MODEL 1
REMARK VINA RESULT:    -5.638      0.000      0.000
REMARK INTER + INTRA:          -6.884
REMARK INTER:                  -6.627
REMARK INTRA:                  -0.256
REMARK UNBOUND:                -0.256
REMARK  Name = /home/qwerty/github/datacon2025hack/step_04_hit_selection/docking/ligands/lig_545.pdb
REMARK  4 active torsions:
REMARK  status: ('A' for Active; 'I' for Inactive)
REMARK    1  A    between atoms: C1_1  and  C2_2
REMARK    2  A    between atoms: C6_6  and  C7_7
REMARK    3  A    between atoms: N1_9  and  C8_10
REMARK    4  A    between atoms: C10_13  and  C11_14
REMARK                            x       y       z     vdW  Elec       q    Type
REMARK                         _______ _______ _______ _____ _____    ______ ____
ROOT
ATOM      1  C7  UNL     1      21.682   3.099  33.318  0.00  0.00    +0.249 C 
ATOM      2  O1  UNL     1      21.152   2.816  34.428  0.00  0.00    -0.270 OA
ATOM      3  N1  UNL     1      22.511   4.268  33.198  0.00  0.00    -0.275 N 
ATOM      4  H7  UNL     1      23.210   4.308  32.423  0.00  0.00    +0.156 HD
ENDROOT
BRANCH   1  10
ATOM      5  C1  UNL     1      22.872   1.679  28.650  0.00  0.00    +0.044 C 
ATOM      6  C2  UNL     1      22.073   1.481  29.904  0.00  0.00    -0.050 A 
ATOM      7  C3  UNL     1      21.096   0.477  29.967  0.00  0.00    +0.003 A 
ATOM      8  C4  UNL     1      20.330   0.313  31.121  0.00  0.00    +0.001 A 
ATOM      9  C5  UNL     1      20.519   1.160  32.217  0.00  0.00    +0.013 A 
ATOM     10  C6  UNL     1      21.474   2.192  32.163  0.00  0.00    +0.037 A 
ATOM     11  C12 UNL     1      22.250   2.342  30.998  0.00  0.00    +0.016 A 
ENDBRANCH   1  10
BRANCH   3  12
ATOM     12  C8  UNL     1      22.480   5.372  34.115  0.00  0.00    +0.092 A 
ATOM     13  C9  UNL     1      23.587   5.860  34.797  0.00  0.00    +0.143 A 
ATOM     14  N2  UNL     1      23.337   6.943  35.580  0.00  0.00    -0.241 NA
ATOM     15  C10 UNL     1      22.041   7.327  35.519  0.00  0.00    +0.164 A 
ATOM     16  S1  UNL     1      21.149   6.337  34.486  0.00  0.00    -0.048 S 
BRANCH  15  17
ATOM     17  C11 UNL     1      21.495   8.470  36.263  0.00  0.00    +0.267 C 
ATOM     18  N3  UNL     1      21.407   8.439  37.688  0.00  0.00    -0.324 N 
ATOM     19  O2  UNL     1      21.101   9.492  35.640  0.00  0.00    -0.268 OA
ATOM     20  H9  UNL     1      21.728   7.606  38.231  0.00  0.00    +0.145 HD
ATOM     21  H10 UNL     1      21.018   9.257  38.208  0.00  0.00    +0.145 HD
ENDBRANCH  15  17
ENDBRANCH   3  12
TORSDOF 3
ENDMDL
MODEL 2
REMARK VINA RESULT:    -5.604     13.374     14.452
REMARK INTER + INTRA:          -6.844
REMARK INTER:                  -6.649
REMARK INTRA:                  -0.194
REMARK UNBOUND:                -0.256
REMARK  Name = /home/qwerty/github/datacon2025hack/step_04_hit_selection/docking/ligands/lig_545.pdb
REMARK  4 active torsions:
REMARK  status: ('A' for Active; 'I' for Inactive)
REMARK    1  A    between atoms: C1_1  and  C2_2
REMARK    2  A    between atoms: C6_6  and  C7_7
REMARK    3  A    between atoms: N1_9  and  C8_10
REMARK    4  A    between atoms: C10_13  and  C11_14
REMARK                            x       y       z     vdW  Elec       q    Type
REMARK                         _______ _______ _______ _____ _____    ______ ____
ROOT
ATOM      1  C7  UNL     1      11.085  13.046  31.156  0.00  0.00    +0.249 C 
ATOM      2  O1  UNL     1      12.071  12.270  31.289  0.00  0.00    -0.270 OA
ATOM      3  N1  UNL     1      10.887  14.120  32.093  0.00  0.00    -0.275 N 
ATOM      4  H7  UNL     1      10.315  14.941  31.797  0.00  0.00    +0.156 HD
ENDROOT
BRANCH   1  10
ATOM      5  C1  UNL     1       7.491  10.395  28.859  0.00  0.00    +0.044 C 
ATOM      6  C2  UNL     1       8.396  11.590  28.902  0.00  0.00    -0.050 A 
ATOM      7  C3  UNL     1       8.415  12.501  27.835  0.00  0.00    +0.003 A 
ATOM      8  C4  UNL     1       9.281  13.594  27.860  0.00  0.00    +0.001 A 
ATOM      9  C5  UNL     1      10.149  13.780  28.940  0.00  0.00    +0.013 A 
ATOM     10  C6  UNL     1      10.167  12.862  30.006  0.00  0.00    +0.037 A 
ATOM     11  C12 UNL     1       9.281  11.768  29.977  0.00  0.00    +0.016 A 
ENDBRANCH   1  10
BRANCH   3  12
ATOM     12  C8  UNL     1      11.477  14.163  33.400  0.00  0.00    +0.092 A 
ATOM     13  C9  UNL     1      10.784  13.944  34.584  0.00  0.00    +0.143 A 
ATOM     14  N2  UNL     1      11.551  13.987  35.705  0.00  0.00    -0.241 NA
ATOM     15  C10 UNL     1      12.853  14.229  35.423  0.00  0.00    +0.164 A 
ATOM     16  S1  UNL     1      13.105  14.398  33.764  0.00  0.00    -0.048 S 
BRANCH  15  17
ATOM     17  C11 UNL     1      13.904  14.325  36.445  0.00  0.00    +0.267 C 
ATOM     18  N3  UNL     1      14.206  13.211  37.287  0.00  0.00    -0.324 N 
ATOM     19  O2  UNL     1      14.548  15.399  36.582  0.00  0.00    -0.268 OA
ATOM     20  H9  UNL     1      13.689  12.309  37.195  0.00  0.00    +0.145 HD
ATOM     21  H10 UNL     1      14.955  13.289  38.011  0.00  0.00    +0.145 HD
ENDBRANCH  15  17
ENDBRANCH   3  12
TORSDOF 3
ENDMDL
MODEL 3
REMARK VINA RESULT:    -5.447     16.741     17.966
REMARK INTER + INTRA:          -6.659
REMARK INTER:                  -6.366
REMARK INTRA:                  -0.293
REMARK UNBOUND:                -0.256
REMARK  Name = /home/qwerty/github/datacon2025hack/step_04_hit_selection/docking/ligands/lig_545.pdb
REMARK  4 active torsions:
REMARK  status: ('A' for Active; 'I' for Inactive)
REMARK    1  A    between atoms: C1_1  and  C2_2
REMARK    2  A    between atoms: C6_6  and  C7_7
REMARK    3  A    between atoms: N1_9  and  C8_10
REMARK    4  A    between atoms: C10_13  and  C11_14
REMARK                            x       y       z     vdW  Elec       q    Type
REMARK                         _______ _______ _______ _____ _____    ______ ____
ROOT
ATOM      1  C7  UNL     1       8.262   9.387  25.790  0.00  0.00    +0.249 C 
ATOM      2  O1  UNL     1       8.544   8.160  25.708  0.00  0.00    -0.270 OA
ATOM      3  N1  UNL     1       8.112  10.170  24.593  0.00  0.00    -0.275 N 
ATOM      4  H7  UNL     1       7.552  11.049  24.638  0.00  0.00    +0.156 HD
ENDROOT
BRANCH   1  10
ATOM      5  C1  UNL     1       8.683  13.322  28.883  0.00  0.00    +0.044 C 
ATOM      6  C2  UNL     1       8.225  11.918  28.623  0.00  0.00    -0.050 A 
ATOM      7  C3  UNL     1       7.646  11.163  29.653  0.00  0.00    +0.003 A 
ATOM      8  C4  UNL     1       7.249   9.845  29.421  0.00  0.00    +0.001 A 
ATOM      9  C5  UNL     1       7.443   9.263  28.165  0.00  0.00    +0.013 A 
ATOM     10  C6  UNL     1       8.049   9.994  27.126  0.00  0.00    +0.037 A 
ATOM     11  C12 UNL     1       8.435  11.326  27.367  0.00  0.00    +0.016 A 
ENDBRANCH   1  10
BRANCH   3  12
ATOM     12  C8  UNL     1       8.640   9.788  23.313  0.00  0.00    +0.092 A 
ATOM     13  C9  UNL     1       7.906   9.159  22.315  0.00  0.00    +0.143 A 
ATOM     14  N2  UNL     1       8.595   8.931  21.166  0.00  0.00    -0.241 NA
ATOM     15  C10 UNL     1       9.869   9.382  21.237  0.00  0.00    +0.164 A 
ATOM     16  S1  UNL     1      10.193  10.087  22.734  0.00  0.00    -0.048 S 
BRANCH  15  17
ATOM     17  C11 UNL     1      10.835   9.269  20.136  0.00  0.00    +0.267 C 
ATOM     18  N3  UNL     1      11.726   8.155  20.058  0.00  0.00    -0.324 N 
ATOM     19  O2  UNL     1      10.880  10.163  19.249  0.00  0.00    -0.268 OA
ATOM     20  H9  UNL     1      11.710   7.400  20.779  0.00  0.00    +0.145 HD
ATOM     21  H10 UNL     1      12.409   8.084  19.271  0.00  0.00    +0.145 HD
ENDBRANCH  15  17
ENDBRANCH   3  12
TORSDOF 3
ENDMDL
MODEL 4
REMARK VINA RESULT:    -5.426     16.004     17.850
REMARK INTER + INTRA:          -6.634
REMARK INTER:                  -6.352
REMARK INTRA:                  -0.281
REMARK UNBOUND:                -0.256
REMARK  Name = /home/qwerty/github/datacon2025hack/step_04_hit_selection/docking/ligands/lig_545.pdb
REMARK  4 active torsions:
REMARK  status: ('A' for Active; 'I' for Inactive)
REMARK    1  A    between atoms: C1_1  and  C2_2
REMARK    2  A    between atoms: C6_6  and  C7_7
REMARK    3  A    between atoms: N1_9  and  C8_10
REMARK    4  A    between atoms: C10_13  and  C11_14
REMARK                            x       y       z     vdW  Elec       q    Type
REMARK                         _______ _______ _______ _____ _____    ______ ____
ROOT
ATOM      1  C7  UNL     1      10.843   6.988  20.293  0.00  0.00    +0.249 C 
ATOM      2  O1  UNL     1       9.980   6.071  20.224  0.00  0.00    -0.270 OA
ATOM      3  N1  UNL     1      12.243   6.657  20.281  0.00  0.00    -0.275 N 
ATOM      4  H7  UNL     1      12.926   7.388  19.985  0.00  0.00    +0.156 HD
ENDROOT
BRANCH   1  10
ATOM      5  C1  UNL     1       7.862  10.528  22.246  0.00  0.00    +0.044 C 
ATOM      6  C2  UNL     1       8.968  10.130  21.314  0.00  0.00    -0.050 A 
ATOM      7  C3  UNL     1       9.542  11.079  20.454  0.00  0.00    +0.003 A 
ATOM      8  C4  UNL     1      10.548  10.703  19.564  0.00  0.00    +0.001 A 
ATOM      9  C5  UNL     1      10.979   9.374  19.510  0.00  0.00    +0.013 A 
ATOM     10  C6  UNL     1      10.396   8.401  20.343  0.00  0.00    +0.037 A 
ATOM     11  C12 UNL     1       9.390   8.793  21.246  0.00  0.00    +0.016 A 
ENDBRANCH   1  10
BRANCH   3  12
ATOM     12  C8  UNL     1      12.763   5.358  20.598  0.00  0.00    +0.092 A 
ATOM     13  C9  UNL     1      12.895   4.855  21.886  0.00  0.00    +0.143 A 
ATOM     14  N2  UNL     1      13.367   3.582  21.951  0.00  0.00    -0.241 NA
ATOM     15  C10 UNL     1      13.603   3.063  20.723  0.00  0.00    +0.164 A 
ATOM     16  S1  UNL     1      13.232   4.166  19.503  0.00  0.00    -0.048 S 
BRANCH  15  17
ATOM     17  C11 UNL     1      14.114   1.704  20.499  0.00  0.00    +0.267 C 
ATOM     18  N3  UNL     1      13.409   0.567  20.999  0.00  0.00    -0.324 N 
ATOM     19  O2  UNL     1      15.185   1.536  19.857  0.00  0.00    -0.268 OA
ATOM     20  H9  UNL     1      12.518   0.676  21.534  0.00  0.00    +0.145 HD
ATOM     21  H10 UNL     1      13.780  -0.395  20.834  0.00  0.00    +0.145 HD
ENDBRANCH  15  17
ENDBRANCH   3  12
TORSDOF 3
ENDMDL
MODEL 5
REMARK VINA RESULT:    -5.396      9.479     12.510
REMARK INTER + INTRA:          -6.598
REMARK INTER:                  -6.349
REMARK INTRA:                  -0.249
REMARK UNBOUND:                -0.256
REMARK  Name = /home/qwerty/github/datacon2025hack/step_04_hit_selection/docking/ligands/lig_545.pdb
REMARK  4 active torsions:
REMARK  status: ('A' for Active; 'I' for Inactive)
REMARK    1  A    between atoms: C1_1  and  C2_2
REMARK    2  A    between atoms: C6_6  and  C7_7
REMARK    3  A    between atoms: N1_9  and  C8_10
REMARK    4  A    between atoms: C10_13  and  C11_14
REMARK                            x       y       z     vdW  Elec       q    Type
REMARK                         _______ _______ _______ _____ _____    ______ ____
ROOT
ATOM      1  C7  UNL     1      19.021   0.781  24.872  0.00  0.00    +0.249 C 
ATOM      2  O1  UNL     1      19.692   1.399  24.000  0.00  0.00    -0.270 OA
ATOM      3  N1  UNL     1      17.987  -0.133  24.465  0.00  0.00    -0.275 N 
ATOM      4  H7  UNL     1      17.691  -0.880  25.131  0.00  0.00    +0.156 HD
ENDROOT
BRANCH   1  10
ATOM      5  C1  UNL     1      22.425   1.141  28.547  0.00  0.00    +0.044 C 
ATOM      6  C2  UNL     1      20.996   1.185  28.091  0.00  0.00    -0.050 A 
ATOM      7  C3  UNL     1      19.963   1.357  29.023  0.00  0.00    +0.003 A 
ATOM      8  C4  UNL     1      18.632   1.365  28.603  0.00  0.00    +0.001 A 
ATOM      9  C5  UNL     1      18.319   1.182  27.253  0.00  0.00    +0.013 A 
ATOM     10  C6  UNL     1      19.340   0.978  26.307  0.00  0.00    +0.037 A 
ATOM     11  C12 UNL     1      20.680   0.984  26.738  0.00  0.00    +0.016 A 
ENDBRANCH   1  10
BRANCH   3  12
ATOM     12  C8  UNL     1      17.369  -0.120  23.170  0.00  0.00    +0.092 A 
ATOM     13  C9  UNL     1      17.307  -1.215  22.317  0.00  0.00    +0.143 A 
ATOM     14  N2  UNL     1      16.633  -0.991  21.157  0.00  0.00    -0.241 NA
ATOM     15  C10 UNL     1      16.150   0.272  21.085  0.00  0.00    +0.164 A 
ATOM     16  S1  UNL     1      16.538   1.164  22.462  0.00  0.00    -0.048 S 
BRANCH  15  17
ATOM     17  C11 UNL     1      15.380   0.784  19.943  0.00  0.00    +0.267 C 
ATOM     18  N3  UNL     1      15.125  -0.041  18.805  0.00  0.00    -0.324 N 
ATOM     19  O2  UNL     1      14.937   1.963  19.966  0.00  0.00    -0.268 OA
ATOM     20  H9  UNL     1      15.479  -1.022  18.760  0.00  0.00    +0.145 HD
ATOM     21  H10 UNL     1      14.576   0.332  17.999  0.00  0.00    +0.145 HD
ENDBRANCH  15  17
ENDBRANCH   3  12
TORSDOF 3
ENDMDL
MODEL 6
REMARK VINA RESULT:    -5.206     14.021     15.527
REMARK INTER + INTRA:          -6.375
REMARK INTER:                  -6.118
REMARK INTRA:                  -0.257
REMARK UNBOUND:                -0.256
REMARK  Name = /home/qwerty/github/datacon2025hack/step_04_hit_selection/docking/ligands/lig_545.pdb
REMARK  4 active torsions:
REMARK  status: ('A' for Active; 'I' for Inactive)
REMARK    1  A    between atoms: C1_1  and  C2_2
REMARK    2  A    between atoms: C6_6  and  C7_7
REMARK    3  A    between atoms: N1_9  and  C8_10
REMARK    4  A    between atoms: C10_13  and  C11_14
REMARK                            x       y       z     vdW  Elec       q    Type
REMARK                         _______ _______ _______ _____ _____    ______ ____
ROOT
ATOM      1  C7  UNL     1      14.503   2.217  21.386  0.00  0.00    +0.249 C 
ATOM      2  O1  UNL     1      14.755   3.162  22.182  0.00  0.00    -0.270 OA
ATOM      3  N1  UNL     1      13.397   2.324  20.472  0.00  0.00    -0.275 N 
ATOM      4  H7  UNL     1      13.404   1.738  19.609  0.00  0.00    +0.156 HD
ENDROOT
BRANCH   1  10
ATOM      5  C1  UNL     1      17.007  -1.307  18.828  0.00  0.00    +0.044 C 
ATOM      6  C2  UNL     1      16.627  -0.674  20.134  0.00  0.00    -0.050 A 
ATOM      7  C3  UNL     1      17.056  -1.238  21.344  0.00  0.00    +0.003 A 
ATOM      8  C4  UNL     1      16.675  -0.668  22.559  0.00  0.00    +0.001 A 
ATOM      9  C5  UNL     1      15.848   0.459  22.579  0.00  0.00    +0.013 A 
ATOM     10  C6  UNL     1      15.382   1.023  21.377  0.00  0.00    +0.037 A 
ATOM     11  C12 UNL     1      15.782   0.447  20.156  0.00  0.00    +0.016 A 
ENDBRANCH   1  10
BRANCH   3  12
ATOM     12  C8  UNL     1      12.302   3.236  20.642  0.00  0.00    +0.092 A 
ATOM     13  C9  UNL     1      11.072   2.896  21.191  0.00  0.00    +0.143 A 
ATOM     14  N2  UNL     1      10.195   3.929  21.300  0.00  0.00    -0.241 NA
ATOM     15  C10 UNL     1      10.721   5.092  20.850  0.00  0.00    +0.164 A 
ATOM     16  S1  UNL     1      12.302   4.886  20.299  0.00  0.00    -0.048 S 
BRANCH  15  17
ATOM     17  C11 UNL     1       9.994   6.369  20.852  0.00  0.00    +0.267 C 
ATOM     18  N3  UNL     1       9.055   6.677  19.821  0.00  0.00    -0.324 N 
ATOM     19  O2  UNL     1      10.198   7.203  21.774  0.00  0.00    -0.268 OA
ATOM     20  H9  UNL     1       8.866   6.003  19.045  0.00  0.00    +0.145 HD
ATOM     21  H10 UNL     1       8.543   7.586  19.832  0.00  0.00    +0.145 HD
ENDBRANCH  15  17
ENDBRANCH   3  12
TORSDOF 3
ENDMDL
MODEL 7
REMARK VINA RESULT:    -5.168     16.626     18.154
REMARK INTER + INTRA:          -6.331
REMARK INTER:                  -6.304
REMARK INTRA:                  -0.027
REMARK UNBOUND:                -0.256
REMARK  Name = /home/qwerty/github/datacon2025hack/step_04_hit_selection/docking/ligands/lig_545.pdb
REMARK  4 active torsions:
REMARK  status: ('A' for Active; 'I' for Inactive)
REMARK    1  A    between atoms: C1_1  and  C2_2
REMARK    2  A    between atoms: C6_6  and  C7_7
REMARK    3  A    between atoms: N1_9  and  C8_10
REMARK    4  A    between atoms: C10_13  and  C11_14
REMARK                            x       y       z     vdW  Elec       q    Type
REMARK                         _______ _______ _______ _____ _____    ______ ____
ROOT
ATOM      1  C7  UNL     1       7.963   9.533  25.369  0.00  0.00    +0.249 C 
ATOM      2  O1  UNL     1       7.219  10.067  24.501  0.00  0.00    -0.270 OA
ATOM      3  N1  UNL     1       8.860   8.475  24.991  0.00  0.00    -0.275 N 
ATOM      4  H7  UNL     1       9.693   8.288  25.591  0.00  0.00    +0.156 HD
ENDROOT
BRANCH   1  10
ATOM      5  C1  UNL     1       6.864   8.813  30.217  0.00  0.00    +0.044 C 
ATOM      6  C2  UNL     1       7.423   9.678  29.127  0.00  0.00    -0.050 A 
ATOM      7  C3  UNL     1       7.862  10.979  29.413  0.00  0.00    +0.003 A 
ATOM      8  C4  UNL     1       8.352  11.796  28.393  0.00  0.00    +0.001 A 
ATOM      9  C5  UNL     1       8.391  11.330  27.076  0.00  0.00    +0.013 A 
ATOM     10  C6  UNL     1       7.928  10.039  26.763  0.00  0.00    +0.037 A 
ATOM     11  C12 UNL     1       7.447   9.218  27.800  0.00  0.00    +0.016 A 
ENDBRANCH   1  10
BRANCH   3  12
ATOM     12  C8  UNL     1       8.715   7.688  23.799  0.00  0.00    +0.092 A 
ATOM     13  C9  UNL     1       8.702   8.206  22.510  0.00  0.00    +0.143 A 
ATOM     14  N2  UNL     1       8.600   7.273  21.527  0.00  0.00    -0.241 NA
ATOM     15  C10 UNL     1       8.541   6.014  22.022  0.00  0.00    +0.164 A 
ATOM     16  S1  UNL     1       8.616   6.008  23.707  0.00  0.00    -0.048 S 
BRANCH  15  17
ATOM     17  C11 UNL     1       8.432   4.813  21.183  0.00  0.00    +0.267 C 
ATOM     18  N3  UNL     1       7.165   4.390  20.677  0.00  0.00    -0.324 N 
ATOM     19  O2  UNL     1       9.464   4.148  20.904  0.00  0.00    -0.268 OA
ATOM     20  H9  UNL     1       6.292   4.922  20.892  0.00  0.00    +0.145 HD
ATOM     21  H10 UNL     1       7.097   3.535  20.081  0.00  0.00    +0.145 HD
ENDBRANCH  15  17
ENDBRANCH   3  12
TORSDOF 3
ENDMDL
MODEL 8
REMARK VINA RESULT:    -5.151     11.804     13.522
REMARK INTER + INTRA:          -6.311
REMARK INTER:                  -6.028
REMARK INTRA:                  -0.283
REMARK UNBOUND:                -0.256
REMARK  Name = /home/qwerty/github/datacon2025hack/step_04_hit_selection/docking/ligands/lig_545.pdb
REMARK  4 active torsions:
REMARK  status: ('A' for Active; 'I' for Inactive)
REMARK    1  A    between atoms: C1_1  and  C2_2
REMARK    2  A    between atoms: C6_6  and  C7_7
REMARK    3  A    between atoms: N1_9  and  C8_10
REMARK    4  A    between atoms: C10_13  and  C11_14
REMARK                            x       y       z     vdW  Elec       q    Type
REMARK                         _______ _______ _______ _____ _____    ______ ____
ROOT
ATOM      1  C7  UNL     1      12.244  13.118  31.607  0.00  0.00    +0.249 C 
ATOM      2  O1  UNL     1      11.739  12.154  32.245  0.00  0.00    -0.270 OA
ATOM      3  N1  UNL     1      13.405  13.792  32.125  0.00  0.00    -0.275 N 
ATOM      4  H7  UNL     1      14.013  14.321  31.462  0.00  0.00    +0.156 HD
ENDROOT
BRANCH   1  10
ATOM      5  C1  UNL     1       8.514  12.792  28.259  0.00  0.00    +0.044 C 
ATOM      6  C2  UNL     1       9.825  13.381  28.690  0.00  0.00    -0.050 A 
ATOM      7  C3  UNL     1      10.515  14.260  27.844  0.00  0.00    +0.003 A 
ATOM      8  C4  UNL     1      11.750  14.783  28.230  0.00  0.00    +0.001 A 
ATOM      9  C5  UNL     1      12.316  14.418  29.455  0.00  0.00    +0.013 A 
ATOM     10  C6  UNL     1      11.653  13.514  30.305  0.00  0.00    +0.037 A 
ATOM     11  C12 UNL     1      10.403  13.002  29.912  0.00  0.00    +0.016 A 
ENDBRANCH   1  10
BRANCH   3  12
ATOM     12  C8  UNL     1      13.818  13.736  33.498  0.00  0.00    +0.092 A 
ATOM     13  C9  UNL     1      13.202  14.427  34.534  0.00  0.00    +0.143 A 
ATOM     14  N2  UNL     1      13.731  14.191  35.764  0.00  0.00    -0.241 NA
ATOM     15  C10 UNL     1      14.758  13.310  35.717  0.00  0.00    +0.164 A 
ATOM     16  S1  UNL     1      15.050  12.784  34.142  0.00  0.00    -0.048 S 
BRANCH  15  17
ATOM     17  C11 UNL     1      15.509  12.872  36.901  0.00  0.00    +0.267 C 
ATOM     18  N3  UNL     1      16.524  13.701  37.470  0.00  0.00    -0.324 N 
ATOM     19  O2  UNL     1      15.258  11.753  37.423  0.00  0.00    -0.268 OA
ATOM     20  H9  UNL     1      16.752  14.634  37.058  0.00  0.00    +0.145 HD
ATOM     21  H10 UNL     1      17.052  13.381  38.311  0.00  0.00    +0.145 HD
ENDBRANCH  15  17
ENDBRANCH   3  12
TORSDOF 3
ENDMDL
MODEL 9
REMARK VINA RESULT:    -5.021     16.284     17.883
REMARK INTER + INTRA:          -6.158
REMARK INTER:                  -5.867
REMARK INTRA:                  -0.291
REMARK UNBOUND:                -0.256
REMARK  Name = /home/qwerty/github/datacon2025hack/step_04_hit_selection/docking/ligands/lig_545.pdb
REMARK  4 active torsions:
REMARK  status: ('A' for Active; 'I' for Inactive)
REMARK    1  A    between atoms: C1_1  and  C2_2
REMARK    2  A    between atoms: C6_6  and  C7_7
REMARK    3  A    between atoms: N1_9  and  C8_10
REMARK    4  A    between atoms: C10_13  and  C11_14
REMARK                            x       y       z     vdW  Elec       q    Type
REMARK                         _______ _______ _______ _____ _____    ______ ____
ROOT
ATOM      1  C7  UNL     1       9.601  10.616  25.947  0.00  0.00    +0.249 C 
ATOM      2  O1  UNL     1      10.725  10.484  25.391  0.00  0.00    -0.270 OA
ATOM      3  N1  UNL     1       8.480   9.838  25.492  0.00  0.00    -0.275 N 
ATOM      4  H7  UNL     1       7.682   9.681  26.146  0.00  0.00    +0.156 HD
ENDROOT
BRANCH   1  10
ATOM      5  C1  UNL     1      11.476  14.322  28.772  0.00  0.00    +0.044 C 
ATOM      6  C2  UNL     1      10.362  13.370  28.451  0.00  0.00    -0.050 A 
ATOM      7  C3  UNL     1       9.219  13.322  29.262  0.00  0.00    +0.003 A 
ATOM      8  C4  UNL     1       8.197  12.414  28.983  0.00  0.00    +0.001 A 
ATOM      9  C5  UNL     1       8.313  11.534  27.903  0.00  0.00    +0.013 A 
ATOM     10  C6  UNL     1       9.464  11.546  27.095  0.00  0.00    +0.037 A 
ATOM     11  C12 UNL     1      10.485  12.474  27.377  0.00  0.00    +0.016 A 
ENDBRANCH   1  10
BRANCH   3  12
ATOM     12  C8  UNL     1       8.411   9.209  24.204  0.00  0.00    +0.092 A 
ATOM     13  C9  UNL     1       8.035   9.853  23.032  0.00  0.00    +0.143 A 
ATOM     14  N2  UNL     1       8.085   9.076  21.918  0.00  0.00    -0.241 NA
ATOM     15  C10 UNL     1       8.507   7.819  22.192  0.00  0.00    +0.164 A 
ATOM     16  S1  UNL     1       8.839   7.622  23.834  0.00  0.00    -0.048 S 
BRANCH  15  17
ATOM     17  C11 UNL     1       8.657   6.771  21.174  0.00  0.00    +0.267 C 
ATOM     18  N3  UNL     1       9.343   7.035  19.950  0.00  0.00    -0.324 N 
ATOM     19  O2  UNL     1       8.177   5.625  21.380  0.00  0.00    -0.268 OA
ATOM     20  H9  UNL     1       9.752   7.976  19.752  0.00  0.00    +0.145 HD
ATOM     21  H10 UNL     1       9.445   6.283  19.233  0.00  0.00    +0.145 HD
ENDBRANCH  15  17
ENDBRANCH   3  12
TORSDOF 3
ENDMDL
