MODEL 1
REMARK VINA RESULT:    -4.987      0.000      0.000
REMARK INTER + INTRA:          -5.520
REMARK INTER:                  -5.861
REMARK INTRA:                   0.341
REMARK UNBOUND:                 0.341
REMARK  Name = /home/qwerty/github/datacon2025hack/step_04_hit_selection/docking/ligands/lig_155.pdb
REMARK  5 active torsions:
REMARK  status: ('A' for Active; 'I' for Inactive)
REMARK    1  A    between atoms: C1_1  and  N1_2
REMARK    2  A    between atoms: N1_2  and  C2_3
REMARK    3  A    between atoms: C3_4  and  C4_6
REMARK    4  A    between atoms: C4_6  and  C5_7
REMARK    5  A    between atoms: C8_12  and  N3_13
REMARK                            x       y       z     vdW  Elec       q    Type
REMARK                         _______ _______ _______ _____ _____    ______ ____
ROOT
ATOM      1  C5  UNL     1      22.314  13.266  20.360  0.00  0.00    +0.231 C 
ATOM      2  O2  UNL     1      23.116  12.535  19.716  0.00  0.00    -0.274 OA
ATOM      3  N2  UNL     1      22.771  13.941  21.553  0.00  0.00    -0.301 N 
ATOM      4  C6  UNL     1      21.957  14.962  22.229  0.00  0.00    +0.109 C 
ATOM      5  C7  UNL     1      22.846  16.100  22.747  0.00  0.00    +0.038 C 
ATOM      6  C8  UNL     1      24.082  15.624  23.573  0.00  0.00    +0.060 C 
ATOM      7  C12 UNL     1      24.208  14.083  23.577  0.00  0.00    +0.038 C 
ATOM      8  C13 UNL     1      24.033  13.503  22.169  0.00  0.00    +0.109 C 
ENDROOT
BRANCH   6   9
ATOM      9  N3  UNL     1      23.992  16.124  24.968  0.00  0.00    -0.299 NA
ATOM     10  C9  UNL     1      23.618  15.067  25.924  0.00  0.00    +0.086 C 
ATOM     11  C10 UNL     1      22.297  15.722  26.268  0.00  0.00    +0.031 C 
ATOM     12  C11 UNL     1      22.703  16.776  25.260  0.00  0.00    +0.086 C 
ENDBRANCH   6   9
BRANCH   1  13
ATOM     13  C4  UNL     1      20.883  13.358  19.892  0.00  0.00    +0.123 C 
ATOM     14  C14 UNL     1      20.424  14.743  19.438  0.00  0.00    +0.027 C 
ATOM     15  C15 UNL     1      20.656  13.650  18.410  0.00  0.00    +0.027 C 
BRANCH  13  19
ATOM     16  C1  UNL     1      18.462  10.396  20.683  0.00  0.00    +0.131 C 
ATOM     17  N1  UNL     1      19.544  11.160  20.055  0.00  0.00    -0.307 N 
ATOM     18  C2  UNL     1      20.322  10.569  18.960  0.00  0.00    +0.131 C 
ATOM     19  C3  UNL     1      19.844  12.483  20.549  0.00  0.00    +0.230 C 
ATOM     20  O1  UNL     1      19.245  12.920  21.569  0.00  0.00    -0.274 OA
ENDBRANCH  13  19
ENDBRANCH   1  13
TORSDOF 3
ENDMDL
MODEL 2
REMARK VINA RESULT:    -4.947      2.067      6.386
REMARK INTER + INTRA:          -5.474
REMARK INTER:                  -5.812
REMARK INTRA:                   0.338
REMARK UNBOUND:                 0.341
REMARK  Name = /home/qwerty/github/datacon2025hack/step_04_hit_selection/docking/ligands/lig_155.pdb
REMARK  5 active torsions:
REMARK  status: ('A' for Active; 'I' for Inactive)
REMARK    1  A    between atoms: C1_1  and  N1_2
REMARK    2  A    between atoms: N1_2  and  C2_3
REMARK    3  A    between atoms: C3_4  and  C4_6
REMARK    4  A    between atoms: C4_6  and  C5_7
REMARK    5  A    between atoms: C8_12  and  N3_13
REMARK                            x       y       z     vdW  Elec       q    Type
REMARK                         _______ _______ _______ _____ _____    ______ ____
ROOT
ATOM      1  C5  UNL     1      22.244  15.803  23.016  0.00  0.00    +0.231 C 
ATOM      2  O2  UNL     1      21.871  16.990  23.228  0.00  0.00    -0.274 OA
ATOM      3  N2  UNL     1      21.706  15.081  21.886  0.00  0.00    -0.301 N 
ATOM      4  C6  UNL     1      22.248  13.780  21.464  0.00  0.00    +0.109 C 
ATOM      5  C7  UNL     1      22.265  13.679  19.934  0.00  0.00    +0.038 C 
ATOM      6  C8  UNL     1      20.915  14.057  19.249  0.00  0.00    +0.060 C 
ATOM      7  C12 UNL     1      19.882  14.581  20.273  0.00  0.00    +0.038 C 
ATOM      8  C13 UNL     1      20.506  15.611  21.221  0.00  0.00    +0.109 C 
ENDROOT
BRANCH   6   9
ATOM      9  N3  UNL     1      20.358  12.884  18.529  0.00  0.00    -0.299 NA
ATOM     10  C9  UNL     1      19.197  12.295  19.220  0.00  0.00    +0.086 C 
ATOM     11  C10 UNL     1      19.913  10.992  19.502  0.00  0.00    +0.031 C 
ATOM     12  C11 UNL     1      21.094  11.638  18.808  0.00  0.00    +0.086 C 
ENDBRANCH   6   9
BRANCH   1  13
ATOM     13  C4  UNL     1      23.198  15.158  23.991  0.00  0.00    +0.123 C 
ATOM     14  C14 UNL     1      24.566  14.779  23.426  0.00  0.00    +0.027 C 
ATOM     15  C15 UNL     1      24.442  15.958  24.376  0.00  0.00    +0.027 C 
BRANCH  13  19
ATOM     16  C1  UNL     1      21.792  13.849  27.393  0.00  0.00    +0.131 C 
ATOM     17  N1  UNL     1      22.242  14.784  26.357  0.00  0.00    -0.307 N 
ATOM     18  C2  UNL     1      22.256  16.226  26.624  0.00  0.00    +0.131 C 
ATOM     19  C3  UNL     1      22.641  14.263  25.071  0.00  0.00    +0.230 C 
ATOM     20  O1  UNL     1      22.503  13.034  24.825  0.00  0.00    -0.274 OA
ENDBRANCH  13  19
ENDBRANCH   1  13
TORSDOF 3
ENDMDL
MODEL 3
REMARK VINA RESULT:    -4.918     12.558     13.959
REMARK INTER + INTRA:          -5.439
REMARK INTER:                  -5.717
REMARK INTRA:                   0.278
REMARK UNBOUND:                 0.341
REMARK  Name = /home/qwerty/github/datacon2025hack/step_04_hit_selection/docking/ligands/lig_155.pdb
REMARK  5 active torsions:
REMARK  status: ('A' for Active; 'I' for Inactive)
REMARK    1  A    between atoms: C1_1  and  N1_2
REMARK    2  A    between atoms: N1_2  and  C2_3
REMARK    3  A    between atoms: C3_4  and  C4_6
REMARK    4  A    between atoms: C4_6  and  C5_7
REMARK    5  A    between atoms: C8_12  and  N3_13
REMARK                            x       y       z     vdW  Elec       q    Type
REMARK                         _______ _______ _______ _____ _____    ______ ____
ROOT
ATOM      1  C5  UNL     1      10.537  13.811  28.920  0.00  0.00    +0.231 C 
ATOM      2  O2  UNL     1      10.924  14.433  27.892  0.00  0.00    -0.274 OA
ATOM      3  N2  UNL     1      11.267  13.963  30.158  0.00  0.00    -0.301 N 
ATOM      4  C6  UNL     1      10.755  13.435  31.432  0.00  0.00    +0.109 C 
ATOM      5  C7  UNL     1      11.066  14.407  32.577  0.00  0.00    +0.038 C 
ATOM      6  C8  UNL     1      12.553  14.876  32.636  0.00  0.00    +0.060 C 
ATOM      7  C12 UNL     1      13.367  14.350  31.431  0.00  0.00    +0.038 C 
ATOM      8  C13 UNL     1      12.612  14.556  30.113  0.00  0.00    +0.109 C 
ENDROOT
BRANCH   6   9
ATOM      9  N3  UNL     1      13.185  14.427  33.902  0.00  0.00    -0.299 NA
ATOM     10  C9  UNL     1      13.973  13.195  33.735  0.00  0.00    +0.086 C 
ATOM     11  C10 UNL     1      13.063  12.384  34.633  0.00  0.00    +0.031 C 
ATOM     12  C11 UNL     1      12.263  13.664  34.762  0.00  0.00    +0.086 C 
ENDBRANCH   6   9
BRANCH   1  13
ATOM     13  C4  UNL     1       9.358  12.879  28.800  0.00  0.00    +0.123 C 
ATOM     14  C14 UNL     1       8.026  13.427  29.312  0.00  0.00    +0.027 C 
ATOM     15  C15 UNL     1       8.256  13.276  27.819  0.00  0.00    +0.027 C 
BRANCH  13  19
ATOM     16  C1  UNL     1      10.284   9.150  28.090  0.00  0.00    +0.131 C 
ATOM     17  N1  UNL     1      10.174  10.601  27.907  0.00  0.00    -0.307 N 
ATOM     18  C2  UNL     1      10.684  11.228  26.684  0.00  0.00    +0.131 C 
ATOM     19  C3  UNL     1       9.583  11.395  28.959  0.00  0.00    +0.230 C 
ATOM     20  O1  UNL     1       9.265  10.849  30.050  0.00  0.00    -0.274 OA
ENDBRANCH  13  19
ENDBRANCH   1  13
TORSDOF 3
ENDMDL
MODEL 4
REMARK VINA RESULT:    -4.786     13.214     14.603
REMARK INTER + INTRA:          -5.285
REMARK INTER:                  -5.736
REMARK INTRA:                   0.451
REMARK UNBOUND:                 0.341
REMARK  Name = /home/qwerty/github/datacon2025hack/step_04_hit_selection/docking/ligands/lig_155.pdb
REMARK  5 active torsions:
REMARK  status: ('A' for Active; 'I' for Inactive)
REMARK    1  A    between atoms: C1_1  and  N1_2
REMARK    2  A    between atoms: N1_2  and  C2_3
REMARK    3  A    between atoms: C3_4  and  C4_6
REMARK    4  A    between atoms: C4_6  and  C5_7
REMARK    5  A    between atoms: C8_12  and  N3_13
REMARK                            x       y       z     vdW  Elec       q    Type
REMARK                         _______ _______ _______ _____ _____    ______ ____
ROOT
ATOM      1  C5  UNL     1      21.217   1.509  31.324  0.00  0.00    +0.231 C 
ATOM      2  O2  UNL     1      20.663   0.507  31.853  0.00  0.00    -0.274 OA
ATOM      3  N2  UNL     1      21.409   2.709  32.105  0.00  0.00    -0.301 N 
ATOM      4  C6  UNL     1      22.227   3.831  31.619  0.00  0.00    +0.109 C 
ATOM      5  C7  UNL     1      23.030   4.446  32.772  0.00  0.00    +0.038 C 
ATOM      6  C8  UNL     1      22.184   4.779  34.039  0.00  0.00    +0.060 C 
ATOM      7  C12 UNL     1      20.724   4.290  33.897  0.00  0.00    +0.038 C 
ATOM      8  C13 UNL     1      20.665   2.854  33.365  0.00  0.00    +0.109 C 
ENDROOT
BRANCH   6   9
ATOM      9  N3  UNL     1      22.200   6.241  34.299  0.00  0.00    -0.299 NA
ATOM     10  C9  UNL     1      23.517   6.721  34.750  0.00  0.00    +0.086 C 
ATOM     11  C10 UNL     1      23.003   7.117  36.118  0.00  0.00    +0.031 C 
ATOM     12  C11 UNL     1      21.670   6.592  35.629  0.00  0.00    +0.086 C 
ENDBRANCH   6   9
BRANCH   1  13
ATOM     13  C4  UNL     1      21.606   1.436  29.868  0.00  0.00    +0.123 C 
ATOM     14  C14 UNL     1      23.053   1.031  29.589  0.00  0.00    +0.027 C 
ATOM     15  C15 UNL     1      21.928   0.053  29.304  0.00  0.00    +0.027 C 
BRANCH  13  19
ATOM     16  C1  UNL     1      19.035   3.262  27.561  0.00  0.00    +0.131 C 
ATOM     17  N1  UNL     1      19.568   2.351  28.580  0.00  0.00    -0.307 N 
ATOM     18  C2  UNL     1      18.671   1.425  29.279  0.00  0.00    +0.131 C 
ATOM     19  C3  UNL     1      20.976   2.403  28.896  0.00  0.00    +0.230 C 
ATOM     20  O1  UNL     1      21.702   3.291  28.371  0.00  0.00    -0.274 OA
ENDBRANCH  13  19
ENDBRANCH   1  13
TORSDOF 3
ENDMDL
MODEL 5
REMARK VINA RESULT:    -4.758     13.491     16.127
REMARK INTER + INTRA:          -5.252
REMARK INTER:                  -5.628
REMARK INTRA:                   0.377
REMARK UNBOUND:                 0.341
REMARK  Name = /home/qwerty/github/datacon2025hack/step_04_hit_selection/docking/ligands/lig_155.pdb
REMARK  5 active torsions:
REMARK  status: ('A' for Active; 'I' for Inactive)
REMARK    1  A    between atoms: C1_1  and  N1_2
REMARK    2  A    between atoms: N1_2  and  C2_3
REMARK    3  A    between atoms: C3_4  and  C4_6
REMARK    4  A    between atoms: C4_6  and  C5_7
REMARK    5  A    between atoms: C8_12  and  N3_13
REMARK                            x       y       z     vdW  Elec       q    Type
REMARK                         _______ _______ _______ _____ _____    ______ ____
ROOT
ATOM      1  C5  UNL     1      11.295  11.947  34.439  0.00  0.00    +0.231 C 
ATOM      2  O2  UNL     1      10.885  10.796  34.752  0.00  0.00    -0.274 OA
ATOM      3  N2  UNL     1      11.612  12.237  33.059  0.00  0.00    -0.301 N 
ATOM      4  C6  UNL     1      11.892  13.605  32.597  0.00  0.00    +0.109 C 
ATOM      5  C7  UNL     1      11.286  13.834  31.206  0.00  0.00    +0.038 C 
ATOM      6  C8  UNL     1      11.633  12.728  30.163  0.00  0.00    +0.060 C 
ATOM      7  C12 UNL     1      12.418  11.561  30.807  0.00  0.00    +0.038 C 
ATOM      8  C13 UNL     1      11.774  11.114  32.124  0.00  0.00    +0.109 C 
ENDROOT
BRANCH   6   9
ATOM      9  N3  UNL     1      12.421  13.304  29.044  0.00  0.00    -0.299 NA
ATOM     10  C9  UNL     1      12.470  14.775  29.085  0.00  0.00    +0.086 C 
ATOM     11  C10 UNL     1      11.697  14.926  27.791  0.00  0.00    +0.031 C 
ATOM     12  C11 UNL     1      11.647  13.412  27.795  0.00  0.00    +0.086 C 
ENDBRANCH   6   9
BRANCH   1  13
ATOM     13  C4  UNL     1      11.497  12.966  35.533  0.00  0.00    +0.123 C 
ATOM     14  C14 UNL     1      10.397  14.017  35.670  0.00  0.00    +0.027 C 
ATOM     15  C15 UNL     1      10.526  12.920  36.712  0.00  0.00    +0.027 C 
BRANCH  13  19
ATOM     16  C1  UNL     1      15.133  13.084  36.959  0.00  0.00    +0.131 C 
ATOM     17  N1  UNL     1      13.813  12.560  36.592  0.00  0.00    -0.307 N 
ATOM     18  C2  UNL     1      13.447  11.183  36.940  0.00  0.00    +0.131 C 
ATOM     19  C3  UNL     1      12.901  13.410  35.864  0.00  0.00    +0.230 C 
ATOM     20  O1  UNL     1      13.284  14.545  35.470  0.00  0.00    -0.274 OA
ENDBRANCH  13  19
ENDBRANCH   1  13
TORSDOF 3
ENDMDL
MODEL 6
REMARK VINA RESULT:    -4.719      1.651      1.889
REMARK INTER + INTRA:          -5.205
REMARK INTER:                  -5.499
REMARK INTRA:                   0.294
REMARK UNBOUND:                 0.341
REMARK  Name = /home/qwerty/github/datacon2025hack/step_04_hit_selection/docking/ligands/lig_155.pdb
REMARK  5 active torsions:
REMARK  status: ('A' for Active; 'I' for Inactive)
REMARK    1  A    between atoms: C1_1  and  N1_2
REMARK    2  A    between atoms: N1_2  and  C2_3
REMARK    3  A    between atoms: C3_4  and  C4_6
REMARK    4  A    between atoms: C4_6  and  C5_7
REMARK    5  A    between atoms: C8_12  and  N3_13
REMARK                            x       y       z     vdW  Elec       q    Type
REMARK                         _______ _______ _______ _____ _____    ______ ____
ROOT
ATOM      1  C5  UNL     1      22.862  14.844  20.497  0.00  0.00    +0.231 C 
ATOM      2  O2  UNL     1      23.758  15.228  19.696  0.00  0.00    -0.274 OA
ATOM      3  N2  UNL     1      23.047  15.044  21.916  0.00  0.00    -0.301 N 
ATOM      4  C6  UNL     1      21.962  14.811  22.882  0.00  0.00    +0.109 C 
ATOM      5  C7  UNL     1      21.996  15.870  23.991  0.00  0.00    +0.038 C 
ATOM      6  C8  UNL     1      23.398  16.069  24.647  0.00  0.00    +0.060 C 
ATOM      7  C12 UNL     1      24.486  15.233  23.934  0.00  0.00    +0.038 C 
ATOM      8  C13 UNL     1      24.392  15.373  22.411  0.00  0.00    +0.109 C 
ENDROOT
BRANCH   6   9
ATOM      9  N3  UNL     1      23.349  15.706  26.086  0.00  0.00    -0.299 NA
ATOM     10  C9  UNL     1      23.721  14.302  26.328  0.00  0.00    +0.086 C 
ATOM     11  C10 UNL     1      22.342  13.930  26.832  0.00  0.00    +0.031 C 
ATOM     12  C11 UNL     1      21.990  15.375  26.547  0.00  0.00    +0.086 C 
ENDBRANCH   6   9
BRANCH   1  13
ATOM     13  C4  UNL     1      21.654  14.130  19.944  0.00  0.00    +0.123 C 
ATOM     14  C14 UNL     1      20.385  14.973  19.825  0.00  0.00    +0.027 C 
ATOM     15  C15 UNL     1      21.150  14.580  18.574  0.00  0.00    +0.027 C 
BRANCH  13  19
ATOM     16  C1  UNL     1      21.950  10.235  19.885  0.00  0.00    +0.131 C 
ATOM     17  N1  UNL     1      22.244  11.643  19.601  0.00  0.00    -0.307 N 
ATOM     18  C2  UNL     1      23.331  11.996  18.682  0.00  0.00    +0.131 C 
ATOM     19  C3  UNL     1      21.465  12.666  20.258  0.00  0.00    +0.230 C 
ATOM     20  O1  UNL     1      20.620  12.341  21.136  0.00  0.00    -0.274 OA
ENDBRANCH  13  19
ENDBRANCH   1  13
TORSDOF 3
ENDMDL
MODEL 7
REMARK VINA RESULT:    -4.715     12.121     14.974
REMARK INTER + INTRA:          -5.201
REMARK INTER:                  -5.588
REMARK INTRA:                   0.387
REMARK UNBOUND:                 0.341
REMARK  Name = /home/qwerty/github/datacon2025hack/step_04_hit_selection/docking/ligands/lig_155.pdb
REMARK  5 active torsions:
REMARK  status: ('A' for Active; 'I' for Inactive)
REMARK    1  A    between atoms: C1_1  and  N1_2
REMARK    2  A    between atoms: N1_2  and  C2_3
REMARK    3  A    between atoms: C3_4  and  C4_6
REMARK    4  A    between atoms: C4_6  and  C5_7
REMARK    5  A    between atoms: C8_12  and  N3_13
REMARK                            x       y       z     vdW  Elec       q    Type
REMARK                         _______ _______ _______ _____ _____    ______ ____
ROOT
ATOM      1  C5  UNL     1      21.532   1.915  26.813  0.00  0.00    +0.231 C 
ATOM      2  O2  UNL     1      22.462   2.624  26.338  0.00  0.00    -0.274 OA
ATOM      3  N2  UNL     1      20.411   1.559  25.973  0.00  0.00    -0.301 N 
ATOM      4  C6  UNL     1      19.406   0.572  26.395  0.00  0.00    +0.109 C 
ATOM      5  C7  UNL     1      18.973  -0.293  25.205  0.00  0.00    +0.038 C 
ATOM      6  C8  UNL     1      18.573   0.517  23.933  0.00  0.00    +0.060 C 
ATOM      7  C12 UNL     1      18.828   2.031  24.115  0.00  0.00    +0.038 C 
ATOM      8  C13 UNL     1      20.213   2.297  24.716  0.00  0.00    +0.109 C 
ENDROOT
BRANCH   6   9
ATOM      9  N3  UNL     1      17.144   0.285  23.603  0.00  0.00    -0.299 NA
ATOM     10  C9  UNL     1      16.618  -0.951  24.206  0.00  0.00    +0.086 C 
ATOM     11  C10 UNL     1      16.386  -1.613  22.865  0.00  0.00    +0.031 C 
ATOM     12  C11 UNL     1      16.955  -0.337  22.281  0.00  0.00    +0.086 C 
ENDBRANCH   6   9
BRANCH   1  13
ATOM     13  C4  UNL     1      21.597   1.514  28.266  0.00  0.00    +0.123 C 
ATOM     14  C14 UNL     1      22.172   0.126  28.544  0.00  0.00    +0.027 C 
ATOM     15  C15 UNL     1      22.987   1.362  28.882  0.00  0.00    +0.027 C 
BRANCH  13  19
ATOM     16  C1  UNL     1      19.426   3.768  30.605  0.00  0.00    +0.131 C 
ATOM     17  N1  UNL     1      20.443   3.379  29.622  0.00  0.00    -0.307 N 
ATOM     18  C2  UNL     1      21.346   4.389  29.060  0.00  0.00    +0.131 C 
ATOM     19  C3  UNL     1      20.520   1.999  29.204  0.00  0.00    +0.230 C 
ATOM     20  O1  UNL     1      19.655   1.175  29.608  0.00  0.00    -0.274 OA
ENDBRANCH  13  19
ENDBRANCH   1  13
TORSDOF 3
ENDMDL
MODEL 8
REMARK VINA RESULT:    -4.661     12.646     15.038
REMARK INTER + INTRA:          -5.138
REMARK INTER:                  -5.426
REMARK INTRA:                   0.287
REMARK UNBOUND:                 0.341
REMARK  Name = /home/qwerty/github/datacon2025hack/step_04_hit_selection/docking/ligands/lig_155.pdb
REMARK  5 active torsions:
REMARK  status: ('A' for Active; 'I' for Inactive)
REMARK    1  A    between atoms: C1_1  and  N1_2
REMARK    2  A    between atoms: N1_2  and  C2_3
REMARK    3  A    between atoms: C3_4  and  C4_6
REMARK    4  A    between atoms: C4_6  and  C5_7
REMARK    5  A    between atoms: C8_12  and  N3_13
REMARK                            x       y       z     vdW  Elec       q    Type
REMARK                         _______ _______ _______ _____ _____    ______ ____
ROOT
ATOM      1  C5  UNL     1      23.025   6.580  31.842  0.00  0.00    +0.231 C 
ATOM      2  O2  UNL     1      23.011   7.505  30.984  0.00  0.00    -0.274 OA
ATOM      3  N2  UNL     1      22.254   5.381  31.607  0.00  0.00    -0.301 N 
ATOM      4  C6  UNL     1      22.388   4.190  32.459  0.00  0.00    +0.109 C 
ATOM      5  C7  UNL     1      22.307   2.914  31.612  0.00  0.00    +0.038 C 
ATOM      6  C8  UNL     1      21.088   2.865  30.639  0.00  0.00    +0.060 C 
ATOM      7  C12 UNL     1      20.291   4.190  30.653  0.00  0.00    +0.038 C 
ATOM      8  C13 UNL     1      21.223   5.403  30.558  0.00  0.00    +0.109 C 
ENDROOT
BRANCH   6   9
ATOM      9  N3  UNL     1      20.190   1.737  30.995  0.00  0.00    -0.299 NA
ATOM     10  C9  UNL     1      19.033   2.166  31.799  0.00  0.00    +0.086 C 
ATOM     11  C10 UNL     1      19.473   1.379  33.015  0.00  0.00    +0.031 C 
ATOM     12  C11 UNL     1      20.662   0.978  32.167  0.00  0.00    +0.086 C 
ENDBRANCH   6   9
BRANCH   1  13
ATOM     13  C4  UNL     1      23.802   6.788  33.118  0.00  0.00    +0.123 C 
ATOM     14  C14 UNL     1      25.167   6.103  33.181  0.00  0.00    +0.027 C 
ATOM     15  C15 UNL     1      25.086   7.611  33.022  0.00  0.00    +0.027 C 
BRANCH  13  19
ATOM     16  C1  UNL     1      21.669   8.196  36.074  0.00  0.00    +0.131 C 
ATOM     17  N1  UNL     1      22.308   8.105  34.757  0.00  0.00    -0.307 N 
ATOM     18  C2  UNL     1      22.168   9.203  33.795  0.00  0.00    +0.131 C 
ATOM     19  C3  UNL     1      23.048   6.912  34.419  0.00  0.00    +0.230 C 
ATOM     20  O1  UNL     1      23.049   5.932  35.214  0.00  0.00    -0.274 OA
ENDBRANCH  13  19
ENDBRANCH   1  13
TORSDOF 3
ENDMDL
MODEL 9
REMARK VINA RESULT:    -4.646     14.080     16.097
REMARK INTER + INTRA:          -5.120
REMARK INTER:                  -5.441
REMARK INTRA:                   0.321
REMARK UNBOUND:                 0.341
REMARK  Name = /home/qwerty/github/datacon2025hack/step_04_hit_selection/docking/ligands/lig_155.pdb
REMARK  5 active torsions:
REMARK  status: ('A' for Active; 'I' for Inactive)
REMARK    1  A    between atoms: C1_1  and  N1_2
REMARK    2  A    between atoms: N1_2  and  C2_3
REMARK    3  A    between atoms: C3_4  and  C4_6
REMARK    4  A    between atoms: C4_6  and  C5_7
REMARK    5  A    between atoms: C8_12  and  N3_13
REMARK                            x       y       z     vdW  Elec       q    Type
REMARK                         _______ _______ _______ _____ _____    ______ ____
ROOT
ATOM      1  C5  UNL     1      16.360  -1.208  23.055  0.00  0.00    +0.231 C 
ATOM      2  O2  UNL     1      17.300  -1.660  22.345  0.00  0.00    -0.274 OA
ATOM      3  N2  UNL     1      15.468  -0.213  22.503  0.00  0.00    -0.301 N 
ATOM      4  C6  UNL     1      14.239   0.200  23.197  0.00  0.00    +0.109 C 
ATOM      5  C7  UNL     1      13.106   0.426  22.189  0.00  0.00    +0.038 C 
ATOM      6  C8  UNL     1      13.491   1.338  20.983  0.00  0.00    +0.060 C 
ATOM      7  C12 UNL     1      14.991   1.713  21.006  0.00  0.00    +0.038 C 
ATOM      8  C13 UNL     1      15.870   0.485  21.273  0.00  0.00    +0.109 C 
ENDROOT
BRANCH   6   9
ATOM      9  N3  UNL     1      12.666   2.573  20.987  0.00  0.00    -0.299 NA
ATOM     10  C9  UNL     1      13.367   3.719  21.590  0.00  0.00    +0.086 C 
ATOM     11  C10 UNL     1      12.397   3.818  22.748  0.00  0.00    +0.031 C 
ATOM     12  C11 UNL     1      11.717   2.623  22.113  0.00  0.00    +0.086 C 
ENDBRANCH   6   9
BRANCH   1  13
ATOM     13  C4  UNL     1      16.239  -1.680  24.483  0.00  0.00    +0.123 C 
ATOM     14  C14 UNL     1      15.279  -2.846  24.715  0.00  0.00    +0.027 C 
ATOM     15  C15 UNL     1      16.778  -3.074  24.800  0.00  0.00    +0.027 C 
BRANCH  13  19
ATOM     16  C1  UNL     1      17.680   0.860  27.079  0.00  0.00    +0.131 C 
ATOM     17  N1  UNL     1      17.616  -0.048  25.929  0.00  0.00    -0.307 N 
ATOM     18  C2  UNL     1      18.814  -0.292  25.118  0.00  0.00    +0.131 C 
ATOM     19  C3  UNL     1      16.356  -0.669  25.597  0.00  0.00    +0.230 C 
ATOM     20  O1  UNL     1      15.315  -0.348  26.233  0.00  0.00    -0.274 OA
ENDBRANCH  13  19
ENDBRANCH   1  13
TORSDOF 3
ENDMDL
