REMARK  Name = /home/qwerty/github/datacon2025hack/step_04_hit_selection/docking/ligands/lig_197.pdb
REMARK  6 active torsions:
REMARK  status: ('A' for Active; 'I' for Inactive)
REMARK    1  A    between atoms: C1_1  and  O1_2
REMARK    2  A    between atoms: O1_2  and  C2_3
REMARK    3  A    between atoms: C2_3  and  C3_5
REMARK    4  A    between atoms: C6_8  and  N1_9
REMARK    5  A    between atoms: N1_9  and  C7_10
REMARK    6  A    between atoms: C16_22  and  N4_23
REMARK                            x       y       z     vdW  Elec       q    Type
REMARK                         _______ _______ _______ _____ _____    ______ ____
ROOT
ATOM      1  N1  UNL     1      -0.297   0.037   2.198  0.00  0.00    -0.314 N 
ATOM      2  H6  UNL     1      -0.248  -0.080   3.236  0.00  0.00    +0.152 HD
ENDROOT
BRANCH   1   3
ATOM      3  C7  UNL     1      -1.579   0.326   1.615  0.00  0.00    +0.032 A 
ATOM      4  C8  UNL     1      -2.532   1.030   2.363  0.00  0.00    +0.025 A 
ATOM      5  C9  UNL     1      -3.795   1.297   1.829  0.00  0.00    +0.025 A 
ATOM      6  C10 UNL     1      -4.127   0.854   0.542  0.00  0.00    +0.040 A 
ATOM      7  C11 UNL     1      -3.184   0.129  -0.214  0.00  0.00    -0.007 A 
ATOM      8  C12 UNL     1      -1.923  -0.147   0.336  0.00  0.00    +0.030 A 
ATOM      9  C13 UNL     1      -3.539  -0.447  -1.567  0.00  0.00    +0.143 C 
ATOM     10  N2  UNL     1      -4.716   0.186  -2.164  0.00  0.00    -0.295 N 
ATOM     11  C14 UNL     1      -5.701   0.847  -1.367  0.00  0.00    +0.304 C 
ATOM     12  O3  UNL     1      -6.806   1.177  -1.872  0.00  0.00    -0.252 OA
ATOM     13  N3  UNL     1      -5.418   1.149  -0.003  0.00  0.00    -0.269 N 
ATOM     14  H12 UNL     1      -4.925  -0.004  -3.169  0.00  0.00    +0.151 HD
ATOM     15  H13 UNL     1      -6.137   1.641   0.575  0.00  0.00    +0.156 HD
ENDBRANCH   1   3
BRANCH   1  19
ATOM     16  C3  UNL     1       3.366  -0.356   0.054  0.00  0.00    +0.080 A 
ATOM     17  C4  UNL     1       3.126  -1.093   1.226  0.00  0.00    +0.018 A 
ATOM     18  C5  UNL     1       1.922  -0.961   1.919  0.00  0.00    +0.024 A 
ATOM     19  C6  UNL     1       0.923  -0.104   1.449  0.00  0.00    +0.033 A 
ATOM     20  C15 UNL     1       1.153   0.641   0.281  0.00  0.00    +0.046 A 
ATOM     21  C16 UNL     1       2.352   0.506  -0.437  0.00  0.00    +0.040 A 
BRANCH  21  22
ATOM     22  N4  UNL     1       2.489   1.211  -1.678  0.00  0.00    -0.357 N 
ATOM     23  H15 UNL     1       1.787   1.932  -1.956  0.00  0.00    +0.142 HD
ATOM     24  H16 UNL     1       3.194   0.937  -2.395  0.00  0.00    +0.142 HD
ENDBRANCH  21  22
BRANCH  16  25
ATOM     25  C2  UNL     1       4.692  -0.482  -0.591  0.00  0.00    +0.341 C 
ATOM     26  O2  UNL     1       5.222   0.510  -1.163  0.00  0.00    -0.245 OA
BRANCH  25  28
ATOM     27  C1  UNL     1       6.672  -1.885  -1.083  0.00  0.00    +0.280 C 
ATOM     28  O1  UNL     1       5.383  -1.696  -0.511  0.00  0.00    -0.464 OA
ENDBRANCH  25  28
ENDBRANCH  16  25
ENDBRANCH   1  19
TORSDOF 5
