REMARK  Name = /home/qwerty/github/datacon2025hack/step_04_hit_selection/docking/ligands/lig_588.pdb
REMARK  8 active torsions:
REMARK  status: ('A' for Active; 'I' for Inactive)
REMARK    1  A    between atoms: C1_1  and  O1_2
REMARK    2  A    between atoms: O1_2  and  C2_3
REMARK    3  A    between atoms: C5_6  and  C6_7
REMARK    4  A    between atoms: C6_7  and  C7_8
REMARK    5  A    between atoms: C7_8  and  C8_9
REMARK    6  A    between atoms: C7_8  and  N1_10
REMARK    7  A    between atoms: C10_12  and  S1_13
REMARK    8  A    between atoms: S1_13  and  N2_16
REMARK                            x       y       z     vdW  Elec       q    Type
REMARK                         _______ _______ _______ _____ _____    ______ ____
ROOT
ATOM      1  S1  UNL     1       0.144   0.453   2.335  0.00  0.00    +0.077 S 
ATOM      2  O2  UNL     1      -0.121  -0.486   3.479  0.00  0.00    -0.150 OA
ATOM      3  O3  UNL     1       0.784   1.697   2.882  0.00  0.00    -0.150 OA
ENDROOT
BRANCH   1   4
ATOM      4  N2  UNL     1      -1.357   0.871   1.576  0.00  0.00    -0.199 N 
ATOM      5  C11 UNL     1      -2.133  -0.100   0.854  0.00  0.00    +0.146 A 
ATOM      6  N3  UNL     1      -1.810  -1.417   0.960  0.00  0.00    -0.201 NA
ATOM      7  C12 UNL     1      -2.524  -2.379   0.327  0.00  0.00    +0.225 A 
ATOM      8 CL1  UNL     1      -2.061  -4.058   0.488  0.00  0.00    -0.041 Cl
ATOM      9  N4  UNL     1      -3.599  -2.042  -0.424  0.00  0.00    -0.222 NA
ATOM     10  C13 UNL     1      -3.984  -0.747  -0.566  0.00  0.00    +0.051 A 
ATOM     11  C14 UNL     1      -3.231   0.281   0.049  0.00  0.00    +0.015 A 
ATOM     12  C15 UNL     1      -3.640   1.736  -0.082  0.00  0.00    +0.040 C 
ATOM     13  C16 UNL     1      -4.641   1.987  -1.216  0.00  0.00    +0.005 C 
ATOM     14  C17 UNL     1      -5.750   0.938  -1.199  0.00  0.00    +0.006 C 
ATOM     15  C18 UNL     1      -5.161  -0.449  -1.458  0.00  0.00    +0.056 C 
ATOM     16  H15 UNL     1      -1.679   1.858   1.673  0.00  0.00    +0.175 HD
ENDBRANCH   1   4
BRANCH   1  22
ATOM     17  C2  UNL     1       1.557  -1.629   1.135  0.00  0.00    +0.147 A 
ATOM     18  C3  UNL     1       2.417  -2.130   0.138  0.00  0.00    +0.048 A 
ATOM     19  C4  UNL     1       2.932  -1.284  -0.846  0.00  0.00    +0.007 A 
ATOM     20  C5  UNL     1       2.597   0.076  -0.859  0.00  0.00    -0.044 A 
ATOM     21  C9  UNL     1       1.743   0.580   0.133  0.00  0.00    +0.036 A 
ATOM     22  C10 UNL     1       1.228  -0.257   1.131  0.00  0.00    +0.150 A 
BRANCH  17  24
ATOM     23  C1  UNL     1       1.283  -3.860   2.241  0.00  0.00    +0.277 C 
ATOM     24  O1  UNL     1       1.017  -2.466   2.125  0.00  0.00    -0.493 OA
ENDBRANCH  17  24
BRANCH  20  25
ATOM     25  C6  UNL     1       3.166   0.993  -1.915  0.00  0.00    +0.053 C 
BRANCH  25  26
ATOM     26  C7  UNL     1       4.548   1.569  -1.539  0.00  0.00    +0.052 C 
ATOM     27  C8  UNL     1       4.474   2.468  -0.297  0.00  0.00    +0.024 C 
BRANCH  26  28
ATOM     28  N1  UNL     1       5.520   0.494  -1.325  0.00  0.00    -0.327 NA
ATOM     29  H12 UNL     1       5.614  -0.046  -2.216  0.00  0.00    +0.118 HD
ATOM     30  H13 UNL     1       6.457   0.925  -1.151  0.00  0.00    +0.118 HD
ENDBRANCH  26  28
ENDBRANCH  25  26
ENDBRANCH  20  25
ENDBRANCH   1  22
TORSDOF 6
