MODEL 1
REMARK VINA RESULT:    -6.060      0.000      0.000
REMARK INTER + INTRA:          -8.741
REMARK INTER:                  -7.831
REMARK INTRA:                  -0.910
REMARK UNBOUND:                -0.910
REMARK  Name = /home/qwerty/github/datacon2025hack/step_04_hit_selection/docking/ligands/lig_741.pdb
REMARK  6 active torsions:
REMARK  status: ('A' for Active; 'I' for Inactive)
REMARK    1  A    between atoms: C1_1  and  C2_2
REMARK    2  A    between atoms: C2_2  and  C3_3
REMARK    3  A    between atoms: C2_2  and  N3_16
REMARK    4  A    between atoms: C3_3  and  N1_4
REMARK    5  A    between atoms: C4_5  and  C5_7
REMARK    6  A    between atoms: C12_17  and  C13_19
REMARK                            x       y       z     vdW  Elec       q    Type
REMARK                         _______ _______ _______ _____ _____    ______ ____
ROOT
ATOM      1  N1  UNL     1       8.723   9.928  26.372  0.00  0.00    -0.308 N 
ATOM      2  C4  UNL     1       9.988  10.311  25.812  0.00  0.00    +0.260 C 
ATOM      3  O1  UNL     1      10.940  10.632  26.573  0.00  0.00    -0.269 OA
ATOM      4  H7  UNL     1       7.869   9.934  25.774  0.00  0.00    +0.149 HD
ENDROOT
BRANCH   2   5
ATOM      5  C5  UNL     1      10.209  10.287  24.353  0.00  0.00    +0.102 A 
ATOM      6  C6  UNL     1       9.267   9.938  23.387  0.00  0.00    +0.038 A 
ATOM      7  C7  UNL     1       9.956   9.952  22.194  0.00  0.00    -0.001 A 
ATOM      8  C8  UNL     1      11.237  10.332  22.460  0.00  0.00    +0.024 A 
ATOM      9  N2  UNL     1      11.411  10.523  23.778  0.00  0.00    -0.354 N 
ATOM     10  C9  UNL     1      12.286  10.378  21.399  0.00  0.00    +0.081 C 
ATOM     11  C10 UNL     1      11.599  10.340  20.016  0.00  0.00    +0.166 C 
ATOM     12  O2  UNL     1      10.588   9.337  19.963  0.00  0.00    -0.375 OA
ATOM     13  C11 UNL     1       9.486   9.680  20.799  0.00  0.00    +0.196 C 
ATOM     14  H9  UNL     1      12.305  10.769  24.259  0.00  0.00    +0.166 HD
ENDBRANCH   2   5
BRANCH   1  15
ATOM     15  C3  UNL     1       8.592   9.434  27.743  0.00  0.00    +0.126 C 
BRANCH  15  17
ATOM     16  C1  UNL     1       6.875   9.402  29.598  0.00  0.00    +0.029 C 
ATOM     17  C2  UNL     1       7.559  10.260  28.532  0.00  0.00    +0.087 C 
BRANCH  17  18
ATOM     18  N3  UNL     1       8.211  11.412  29.165  0.00  0.00    -0.307 N 
ATOM     19  C12 UNL     1       8.614  12.564  28.405  0.00  0.00    +0.247 C 
ATOM     20  O3  UNL     1       7.934  12.909  27.400  0.00  0.00    -0.270 OA
ATOM     21  H16 UNL     1       8.526  11.313  30.155  0.00  0.00    +0.149 HD
BRANCH  19  22
ATOM     22  C13 UNL     1       9.820  13.347  28.770  0.00  0.00    +0.073 A 
ATOM     23  C14 UNL     1      10.321  13.373  30.082  0.00  0.00    +0.127 A 
ATOM     24  N4  UNL     1      11.450  14.072  30.368  0.00  0.00    -0.243 NA
ATOM     25  C15 UNL     1      12.114  14.755  29.403  0.00  0.00    +0.221 A 
ATOM     26  N5  UNL     1      11.661  14.738  28.124  0.00  0.00    -0.243 NA
ATOM     27  C16 UNL     1      10.539  14.050  27.790  0.00  0.00    +0.127 A 
ENDBRANCH  19  22
ENDBRANCH  17  18
ENDBRANCH  15  17
ENDBRANCH   1  15
TORSDOF 5
ENDMDL
MODEL 2
REMARK VINA RESULT:    -6.039     14.126     16.240
REMARK INTER + INTRA:          -8.714
REMARK INTER:                  -7.829
REMARK INTRA:                  -0.885
REMARK UNBOUND:                -0.910
REMARK  Name = /home/qwerty/github/datacon2025hack/step_04_hit_selection/docking/ligands/lig_741.pdb
REMARK  6 active torsions:
REMARK  status: ('A' for Active; 'I' for Inactive)
REMARK    1  A    between atoms: C1_1  and  C2_2
REMARK    2  A    between atoms: C2_2  and  C3_3
REMARK    3  A    between atoms: C2_2  and  N3_16
REMARK    4  A    between atoms: C3_3  and  N1_4
REMARK    5  A    between atoms: C4_5  and  C5_7
REMARK    6  A    between atoms: C12_17  and  C13_19
REMARK                            x       y       z     vdW  Elec       q    Type
REMARK                         _______ _______ _______ _____ _____    ______ ____
ROOT
ATOM      1  N1  UNL     1      21.462   3.478  31.823  0.00  0.00    -0.308 N 
ATOM      2  C4  UNL     1      21.501   4.616  30.949  0.00  0.00    +0.260 C 
ATOM      3  O1  UNL     1      20.763   4.648  29.928  0.00  0.00    -0.269 OA
ATOM      4  H7  UNL     1      22.245   3.312  32.492  0.00  0.00    +0.149 HD
ENDROOT
BRANCH   2   5
ATOM      5  C5  UNL     1      22.360   5.776  31.254  0.00  0.00    +0.102 A 
ATOM      6  C6  UNL     1      23.233   5.889  32.334  0.00  0.00    +0.038 A 
ATOM      7  C7  UNL     1      23.722   7.175  32.268  0.00  0.00    -0.001 A 
ATOM      8  C8  UNL     1      23.178   7.768  31.169  0.00  0.00    +0.024 A 
ATOM      9  N2  UNL     1      22.329   6.931  30.549  0.00  0.00    -0.354 N 
ATOM     10  C9  UNL     1      23.430   9.201  30.835  0.00  0.00    +0.081 C 
ATOM     11  C10 UNL     1      24.647   9.695  31.647  0.00  0.00    +0.166 C 
ATOM     12  O2  UNL     1      24.559   9.296  33.013  0.00  0.00    -0.375 OA
ATOM     13  C11 UNL     1      24.709   7.884  33.141  0.00  0.00    +0.196 C 
ATOM     14  H9  UNL     1      21.741   7.146  29.713  0.00  0.00    +0.166 HD
ENDBRANCH   2   5
BRANCH   1  15
ATOM     15  C3  UNL     1      20.312   2.575  31.881  0.00  0.00    +0.126 C 
BRANCH  15  17
ATOM     16  C1  UNL     1      19.754   0.150  32.323  0.00  0.00    +0.029 C 
ATOM     17  C2  UNL     1      20.746   1.113  31.668  0.00  0.00    +0.087 C 
BRANCH  17  18
ATOM     18  N3  UNL     1      20.848   0.821  30.234  0.00  0.00    -0.307 N 
ATOM     19  C12 UNL     1      21.960   1.278  29.447  0.00  0.00    +0.247 C 
ATOM     20  O3  UNL     1      23.098   1.374  29.983  0.00  0.00    -0.270 OA
ATOM     21  H16 UNL     1      20.013   0.412  29.757  0.00  0.00    +0.149 HD
BRANCH  19  22
ATOM     22  C13 UNL     1      21.796   1.652  28.020  0.00  0.00    +0.073 A 
ATOM     23  C14 UNL     1      20.791   1.090  27.215  0.00  0.00    +0.127 A 
ATOM     24  N4  UNL     1      20.650   1.486  25.924  0.00  0.00    -0.243 NA
ATOM     25  C15 UNL     1      21.466   2.426  25.386  0.00  0.00    +0.221 A 
ATOM     26  N5  UNL     1      22.436   2.997  26.144  0.00  0.00    -0.243 NA
ATOM     27  C16 UNL     1      22.614   2.635  27.441  0.00  0.00    +0.127 A 
ENDBRANCH  19  22
ENDBRANCH  17  18
ENDBRANCH  15  17
ENDBRANCH   1  15
TORSDOF 5
ENDMDL
MODEL 3
REMARK VINA RESULT:    -6.003     14.604     17.197
REMARK INTER + INTRA:          -8.667
REMARK INTER:                  -8.096
REMARK INTRA:                  -0.572
REMARK UNBOUND:                -0.910
REMARK  Name = /home/qwerty/github/datacon2025hack/step_04_hit_selection/docking/ligands/lig_741.pdb
REMARK  6 active torsions:
REMARK  status: ('A' for Active; 'I' for Inactive)
REMARK    1  A    between atoms: C1_1  and  C2_2
REMARK    2  A    between atoms: C2_2  and  C3_3
REMARK    3  A    between atoms: C2_2  and  N3_16
REMARK    4  A    between atoms: C3_3  and  N1_4
REMARK    5  A    between atoms: C4_5  and  C5_7
REMARK    6  A    between atoms: C12_17  and  C13_19
REMARK                            x       y       z     vdW  Elec       q    Type
REMARK                         _______ _______ _______ _____ _____    ______ ____
ROOT
ATOM      1  N1  UNL     1      22.380   6.442  35.723  0.00  0.00    -0.308 N 
ATOM      2  C4  UNL     1      22.025   6.794  37.069  0.00  0.00    +0.260 C 
ATOM      3  O1  UNL     1      22.868   6.659  37.995  0.00  0.00    -0.269 OA
ATOM      4  H7  UNL     1      21.630   6.283  35.015  0.00  0.00    +0.149 HD
ENDROOT
BRANCH   2   5
ATOM      5  C5  UNL     1      20.699   7.361  37.379  0.00  0.00    +0.102 A 
ATOM      6  C6  UNL     1      19.497   6.658  37.427  0.00  0.00    +0.038 A 
ATOM      7  C7  UNL     1      18.529   7.616  37.637  0.00  0.00    -0.001 A 
ATOM      8  C8  UNL     1      19.156   8.821  37.743  0.00  0.00    +0.024 A 
ATOM      9  N2  UNL     1      20.481   8.684  37.570  0.00  0.00    -0.354 N 
ATOM     10  C9  UNL     1      18.398  10.098  37.897  0.00  0.00    +0.081 C 
ATOM     11  C10 UNL     1      16.946   9.769  38.309  0.00  0.00    +0.166 C 
ATOM     12  O2  UNL     1      16.403   8.720  37.513  0.00  0.00    -0.375 OA
ATOM     13  C11 UNL     1      17.048   7.481  37.796  0.00  0.00    +0.196 C 
ATOM     14  H9  UNL     1      21.190   9.451  37.552  0.00  0.00    +0.166 HD
ENDBRANCH   2   5
BRANCH   1  15
ATOM     15  C3  UNL     1      23.770   6.384  35.270  0.00  0.00    +0.126 C 
BRANCH  15  17
ATOM     16  C1  UNL     1      25.212   6.740  33.225  0.00  0.00    +0.029 C 
ATOM     17  C2  UNL     1      23.847   6.274  33.736  0.00  0.00    +0.087 C 
BRANCH  17  18
ATOM     18  N3  UNL     1      23.606   4.890  33.316  0.00  0.00    -0.307 N 
ATOM     19  C12 UNL     1      22.576   4.556  32.369  0.00  0.00    +0.247 C 
ATOM     20  O3  UNL     1      22.289   5.375  31.455  0.00  0.00    -0.270 OA
ATOM     21  H16 UNL     1      24.089   4.127  33.841  0.00  0.00    +0.149 HD
BRANCH  19  22
ATOM     22  C13 UNL     1      21.835   3.273  32.454  0.00  0.00    +0.073 A 
ATOM     23  C14 UNL     1      21.085   2.921  33.588  0.00  0.00    +0.127 A 
ATOM     24  N4  UNL     1      20.390   1.754  33.612  0.00  0.00    -0.243 NA
ATOM     25  C15 UNL     1      20.403   0.910  32.550  0.00  0.00    +0.221 A 
ATOM     26  N5  UNL     1      21.108   1.230  31.436  0.00  0.00    -0.243 NA
ATOM     27  C16 UNL     1      21.815   2.387  31.365  0.00  0.00    +0.127 A 
ENDBRANCH  19  22
ENDBRANCH  17  18
ENDBRANCH  15  17
ENDBRANCH   1  15
TORSDOF 5
ENDMDL
MODEL 4
REMARK VINA RESULT:    -5.889     13.679     14.990
REMARK INTER + INTRA:          -8.521
REMARK INTER:                  -7.639
REMARK INTRA:                  -0.882
REMARK UNBOUND:                -0.910
REMARK  Name = /home/qwerty/github/datacon2025hack/step_04_hit_selection/docking/ligands/lig_741.pdb
REMARK  6 active torsions:
REMARK  status: ('A' for Active; 'I' for Inactive)
REMARK    1  A    between atoms: C1_1  and  C2_2
REMARK    2  A    between atoms: C2_2  and  C3_3
REMARK    3  A    between atoms: C2_2  and  N3_16
REMARK    4  A    between atoms: C3_3  and  N1_4
REMARK    5  A    between atoms: C4_5  and  C5_7
REMARK    6  A    between atoms: C12_17  and  C13_19
REMARK                            x       y       z     vdW  Elec       q    Type
REMARK                         _______ _______ _______ _____ _____    ______ ____
ROOT
ATOM      1  N1  UNL     1      19.692   1.469  26.111  0.00  0.00    -0.308 N 
ATOM      2  C4  UNL     1      18.582   1.254  26.995  0.00  0.00    +0.260 C 
ATOM      3  O1  UNL     1      18.463   1.958  28.034  0.00  0.00    -0.269 OA
ATOM      4  H7  UNL     1      19.955   0.731  25.421  0.00  0.00    +0.149 HD
ENDROOT
BRANCH   2   5
ATOM      5  C5  UNL     1      17.546   0.252  26.681  0.00  0.00    +0.102 A 
ATOM      6  C6  UNL     1      17.565  -0.640  25.611  0.00  0.00    +0.038 A 
ATOM      7  C7  UNL     1      16.350  -1.287  25.661  0.00  0.00    -0.001 A 
ATOM      8  C8  UNL     1      15.672  -0.811  26.743  0.00  0.00    +0.024 A 
ATOM      9  N2  UNL     1      16.384   0.144  27.366  0.00  0.00    -0.354 N 
ATOM     10  C9  UNL     1      14.277  -1.239  27.055  0.00  0.00    +0.081 C 
ATOM     11  C10 UNL     1      13.956  -2.518  26.250  0.00  0.00    +0.166 C 
ATOM     12  O2  UNL     1      14.367  -2.395  24.891  0.00  0.00    -0.375 OA
ATOM     13  C11 UNL     1      15.788  -2.365  24.789  0.00  0.00    +0.196 C 
ATOM     14  H9  UNL     1      16.079   0.709  28.190  0.00  0.00    +0.166 HD
ENDBRANCH   2   5
BRANCH   1  15
ATOM     15  C3  UNL     1      20.429   2.732  26.071  0.00  0.00    +0.126 C 
BRANCH  15  17
ATOM     16  C1  UNL     1      22.757   3.612  25.629  0.00  0.00    +0.029 C 
ATOM     17  C2  UNL     1      21.936   2.501  26.287  0.00  0.00    +0.087 C 
BRANCH  17  18
ATOM     18  N3  UNL     1      22.238   2.443  27.721  0.00  0.00    -0.307 N 
ATOM     19  C12 UNL     1      21.913   1.290  28.516  0.00  0.00    +0.247 C 
ATOM     20  O3  UNL     1      21.949   0.146  27.988  0.00  0.00    -0.270 OA
ATOM     21  H16 UNL     1      22.547   3.322  28.192  0.00  0.00    +0.149 HD
BRANCH  19  22
ATOM     22  C13 UNL     1      21.522   1.420  29.942  0.00  0.00    +0.073 A 
ATOM     23  C14 UNL     1      20.742   0.448  30.590  0.00  0.00    +0.127 A 
ATOM     24  N4  UNL     1      20.437   0.584  31.906  0.00  0.00    -0.243 NA
ATOM     25  C15 UNL     1      20.875   1.651  32.620  0.00  0.00    +0.221 A 
ATOM     26  N5  UNL     1      21.641   2.599  32.024  0.00  0.00    -0.243 NA
ATOM     27  C16 UNL     1      21.975   2.504  30.711  0.00  0.00    +0.127 A 
ENDBRANCH  19  22
ENDBRANCH  17  18
ENDBRANCH  15  17
ENDBRANCH   1  15
TORSDOF 5
ENDMDL
MODEL 5
REMARK VINA RESULT:    -5.726     13.244     14.955
REMARK INTER + INTRA:          -8.310
REMARK INTER:                  -6.659
REMARK INTRA:                  -1.650
REMARK UNBOUND:                -0.910
REMARK  Name = /home/qwerty/github/datacon2025hack/step_04_hit_selection/docking/ligands/lig_741.pdb
REMARK  6 active torsions:
REMARK  status: ('A' for Active; 'I' for Inactive)
REMARK    1  A    between atoms: C1_1  and  C2_2
REMARK    2  A    between atoms: C2_2  and  C3_3
REMARK    3  A    between atoms: C2_2  and  N3_16
REMARK    4  A    between atoms: C3_3  and  N1_4
REMARK    5  A    between atoms: C4_5  and  C5_7
REMARK    6  A    between atoms: C12_17  and  C13_19
REMARK                            x       y       z     vdW  Elec       q    Type
REMARK                         _______ _______ _______ _____ _____    ______ ____
ROOT
ATOM      1  N1  UNL     1      18.942  11.677  34.942  0.00  0.00    -0.308 N 
ATOM      2  C4  UNL     1      20.260  11.526  35.490  0.00  0.00    +0.260 C 
ATOM      3  O1  UNL     1      20.784  12.473  36.135  0.00  0.00    -0.269 OA
ATOM      4  H7  UNL     1      18.617  11.033  34.189  0.00  0.00    +0.149 HD
ENDROOT
BRANCH   2   5
ATOM      5  C5  UNL     1      20.996  10.254  35.352  0.00  0.00    +0.102 A 
ATOM      6  C6  UNL     1      21.246   9.576  34.161  0.00  0.00    +0.038 A 
ATOM      7  C7  UNL     1      21.855   8.400  34.538  0.00  0.00    -0.001 A 
ATOM      8  C8  UNL     1      21.984   8.417  35.895  0.00  0.00    +0.024 A 
ATOM      9  N2  UNL     1      21.447   9.537  36.408  0.00  0.00    -0.354 N 
ATOM     10  C9  UNL     1      22.535   7.256  36.654  0.00  0.00    +0.081 C 
ATOM     11  C10 UNL     1      23.257   6.313  35.666  0.00  0.00    +0.166 C 
ATOM     12  O2  UNL     1      22.474   6.083  34.498  0.00  0.00    -0.375 OA
ATOM     13  C11 UNL     1      22.374   7.266  33.711  0.00  0.00    +0.196 C 
ATOM     14  H9  UNL     1      21.367   9.782  37.420  0.00  0.00    +0.166 HD
ENDBRANCH   2   5
BRANCH   1  15
ATOM     15  C3  UNL     1      17.985  12.653  35.464  0.00  0.00    +0.126 C 
BRANCH  15  17
ATOM     16  C1  UNL     1      15.780  12.709  36.698  0.00  0.00    +0.029 C 
ATOM     17  C2  UNL     1      17.162  12.057  36.621  0.00  0.00    +0.087 C 
BRANCH  17  18
ATOM     18  N3  UNL     1      17.019  10.608  36.445  0.00  0.00    -0.307 N 
ATOM     19  C12 UNL     1      17.606   9.673  37.366  0.00  0.00    +0.247 C 
ATOM     20  O3  UNL     1      17.704   9.985  38.584  0.00  0.00    -0.270 OA
ATOM     21  H16 UNL     1      16.620  10.261  35.545  0.00  0.00    +0.149 HD
BRANCH  19  22
ATOM     22  C13 UNL     1      18.111   8.354  36.912  0.00  0.00    +0.073 A 
ATOM     23  C14 UNL     1      18.100   7.980  35.558  0.00  0.00    +0.127 A 
ATOM     24  N4  UNL     1      18.606   6.778  35.177  0.00  0.00    -0.243 NA
ATOM     25  C15 UNL     1      19.132   5.920  36.087  0.00  0.00    +0.221 A 
ATOM     26  N5  UNL     1      19.169   6.261  37.400  0.00  0.00    -0.243 NA
ATOM     27  C16 UNL     1      18.677   7.452  37.827  0.00  0.00    +0.127 A 
ENDBRANCH  19  22
ENDBRANCH  17  18
ENDBRANCH  15  17
ENDBRANCH   1  15
TORSDOF 5
ENDMDL
MODEL 6
REMARK VINA RESULT:    -5.707      9.755     12.865
REMARK INTER + INTRA:          -8.285
REMARK INTER:                  -6.884
REMARK INTRA:                  -1.401
REMARK UNBOUND:                -0.910
REMARK  Name = /home/qwerty/github/datacon2025hack/step_04_hit_selection/docking/ligands/lig_741.pdb
REMARK  6 active torsions:
REMARK  status: ('A' for Active; 'I' for Inactive)
REMARK    1  A    between atoms: C1_1  and  C2_2
REMARK    2  A    between atoms: C2_2  and  C3_3
REMARK    3  A    between atoms: C2_2  and  N3_16
REMARK    4  A    between atoms: C3_3  and  N1_4
REMARK    5  A    between atoms: C4_5  and  C5_7
REMARK    6  A    between atoms: C12_17  and  C13_19
REMARK                            x       y       z     vdW  Elec       q    Type
REMARK                         _______ _______ _______ _____ _____    ______ ____
ROOT
ATOM      1  N1  UNL     1      15.128  -1.101  22.172  0.00  0.00    -0.308 N 
ATOM      2  C4  UNL     1      14.927  -0.317  23.357  0.00  0.00    +0.260 C 
ATOM      3  O1  UNL     1      15.902  -0.064  24.114  0.00  0.00    -0.269 OA
ATOM      4  H7  UNL     1      14.311  -1.546  21.701  0.00  0.00    +0.149 HD
ENDROOT
BRANCH   2   5
ATOM      5  C5  UNL     1      13.601   0.242  23.680  0.00  0.00    +0.102 A 
ATOM      6  C6  UNL     1      13.205   0.758  24.912  0.00  0.00    +0.038 A 
ATOM      7  C7  UNL     1      11.867   1.049  24.766  0.00  0.00    -0.001 A 
ATOM      8  C8  UNL     1      11.515   0.748  23.485  0.00  0.00    +0.024 A 
ATOM      9  N2  UNL     1      12.560   0.237  22.814  0.00  0.00    -0.354 N 
ATOM     10  C9  UNL     1      10.108   0.867  23.001  0.00  0.00    +0.081 C 
ATOM     11  C10 UNL     1       9.306   1.726  24.004  0.00  0.00    +0.166 C 
ATOM     12  O2  UNL     1       9.556   1.325  25.349  0.00  0.00    -0.375 OA
ATOM     13  C11 UNL     1      10.891   1.641  25.734  0.00  0.00    +0.196 C 
ATOM     14  H9  UNL     1      12.555  -0.123  21.833  0.00  0.00    +0.166 HD
ENDBRANCH   2   5
BRANCH   1  15
ATOM     15  C3  UNL     1      16.438  -1.233  21.533  0.00  0.00    +0.126 C 
BRANCH  15  17
ATOM     16  C1  UNL     1      16.686  -1.260  19.018  0.00  0.00    +0.029 C 
ATOM     17  C2  UNL     1      16.519  -0.376  20.256  0.00  0.00    +0.087 C 
BRANCH  17  18
ATOM     18  N3  UNL     1      15.311   0.445  20.121  0.00  0.00    -0.307 N 
ATOM     19  C12 UNL     1      15.352   1.877  20.240  0.00  0.00    +0.247 C 
ATOM     20  O3  UNL     1      16.381   2.499  19.857  0.00  0.00    -0.270 OA
ATOM     21  H16 UNL     1      14.387  -0.043  20.098  0.00  0.00    +0.149 HD
BRANCH  19  22
ATOM     22  C13 UNL     1      14.217   2.638  20.816  0.00  0.00    +0.073 A 
ATOM     23  C14 UNL     1      12.940   2.626  20.231  0.00  0.00    +0.127 A 
ATOM     24  N4  UNL     1      11.917   3.306  20.810  0.00  0.00    -0.243 NA
ATOM     25  C15 UNL     1      12.101   4.005  21.957  0.00  0.00    +0.221 A 
ATOM     26  N5  UNL     1      13.320   4.024  22.552  0.00  0.00    -0.243 NA
ATOM     27  C16 UNL     1      14.372   3.357  22.012  0.00  0.00    +0.127 A 
ENDBRANCH  19  22
ENDBRANCH  17  18
ENDBRANCH  15  17
ENDBRANCH   1  15
TORSDOF 5
ENDMDL
MODEL 7
REMARK VINA RESULT:    -5.706     11.447     14.473
REMARK INTER + INTRA:          -8.284
REMARK INTER:                  -7.736
REMARK INTRA:                  -0.548
REMARK UNBOUND:                -0.910
REMARK  Name = /home/qwerty/github/datacon2025hack/step_04_hit_selection/docking/ligands/lig_741.pdb
REMARK  6 active torsions:
REMARK  status: ('A' for Active; 'I' for Inactive)
REMARK    1  A    between atoms: C1_1  and  C2_2
REMARK    2  A    between atoms: C2_2  and  C3_3
REMARK    3  A    between atoms: C2_2  and  N3_16
REMARK    4  A    between atoms: C3_3  and  N1_4
REMARK    5  A    between atoms: C4_5  and  C5_7
REMARK    6  A    between atoms: C12_17  and  C13_19
REMARK                            x       y       z     vdW  Elec       q    Type
REMARK                         _______ _______ _______ _____ _____    ______ ____
ROOT
ATOM      1  N1  UNL     1      17.269   0.051  22.649  0.00  0.00    -0.308 N 
ATOM      2  C4  UNL     1      17.858  -0.361  23.891  0.00  0.00    +0.260 C 
ATOM      3  O1  UNL     1      17.534  -1.466  24.403  0.00  0.00    -0.269 OA
ATOM      4  H7  UNL     1      17.307   1.053  22.364  0.00  0.00    +0.149 HD
ENDROOT
BRANCH   2   5
ATOM      5  C5  UNL     1      18.879   0.471  24.557  0.00  0.00    +0.102 A 
ATOM      6  C6  UNL     1      19.510   1.588  24.014  0.00  0.00    +0.038 A 
ATOM      7  C7  UNL     1      20.453   1.957  24.947  0.00  0.00    -0.001 A 
ATOM      8  C8  UNL     1      20.343   1.106  26.005  0.00  0.00    +0.024 A 
ATOM      9  N2  UNL     1      19.397   0.181  25.774  0.00  0.00    -0.354 N 
ATOM     10  C9  UNL     1      21.272   1.169  27.172  0.00  0.00    +0.081 C 
ATOM     11  C10 UNL     1      22.017   2.522  27.144  0.00  0.00    +0.166 C 
ATOM     12  O2  UNL     1      22.505   2.821  25.839  0.00  0.00    -0.375 OA
ATOM     13  C11 UNL     1      21.430   3.090  24.943  0.00  0.00    +0.196 C 
ATOM     14  H9  UNL     1      19.142  -0.618  26.396  0.00  0.00    +0.166 HD
ENDBRANCH   2   5
BRANCH   1  15
ATOM     15  C3  UNL     1      16.686  -0.904  21.705  0.00  0.00    +0.126 C 
BRANCH  15  17
ATOM     16  C1  UNL     1      16.880  -1.232  19.206  0.00  0.00    +0.029 C 
ATOM     17  C2  UNL     1      16.485  -0.260  20.321  0.00  0.00    +0.087 C 
BRANCH  17  18
ATOM     18  N3  UNL     1      15.086   0.147  20.151  0.00  0.00    -0.307 N 
ATOM     19  C12 UNL     1      14.679   1.521  20.268  0.00  0.00    +0.247 C 
ATOM     20  O3  UNL     1      15.475   2.433  19.912  0.00  0.00    -0.270 OA
ATOM     21  H16 UNL     1      14.360  -0.602  20.105  0.00  0.00    +0.149 HD
BRANCH  19  22
ATOM     22  C13 UNL     1      13.349   1.890  20.812  0.00  0.00    +0.073 A 
ATOM     23  C14 UNL     1      12.626   2.992  20.325  0.00  0.00    +0.127 A 
ATOM     24  N4  UNL     1      11.395   3.275  20.823  0.00  0.00    -0.243 NA
ATOM     25  C15 UNL     1      10.838   2.506  21.792  0.00  0.00    +0.221 A 
ATOM     26  N5  UNL     1      11.507   1.427  22.272  0.00  0.00    -0.243 NA
ATOM     27  C16 UNL     1      12.739   1.104  21.802  0.00  0.00    +0.127 A 
ENDBRANCH  19  22
ENDBRANCH  17  18
ENDBRANCH  15  17
ENDBRANCH   1  15
TORSDOF 5
ENDMDL
MODEL 8
REMARK VINA RESULT:    -5.601      9.596     12.792
REMARK INTER + INTRA:          -8.148
REMARK INTER:                  -7.472
REMARK INTRA:                  -0.676
REMARK UNBOUND:                -0.910
REMARK  Name = /home/qwerty/github/datacon2025hack/step_04_hit_selection/docking/ligands/lig_741.pdb
REMARK  6 active torsions:
REMARK  status: ('A' for Active; 'I' for Inactive)
REMARK    1  A    between atoms: C1_1  and  C2_2
REMARK    2  A    between atoms: C2_2  and  C3_3
REMARK    3  A    between atoms: C2_2  and  N3_16
REMARK    4  A    between atoms: C3_3  and  N1_4
REMARK    5  A    between atoms: C4_5  and  C5_7
REMARK    6  A    between atoms: C12_17  and  C13_19
REMARK                            x       y       z     vdW  Elec       q    Type
REMARK                         _______ _______ _______ _____ _____    ______ ____
ROOT
ATOM      1  N1  UNL     1      13.642   1.960  20.805  0.00  0.00    -0.308 N 
ATOM      2  C4  UNL     1      12.896   3.092  20.333  0.00  0.00    +0.260 C 
ATOM      3  O1  UNL     1      13.328   3.766  19.360  0.00  0.00    -0.269 OA
ATOM      4  H7  UNL     1      13.454   1.576  21.756  0.00  0.00    +0.149 HD
ENDROOT
BRANCH   2   5
ATOM      5  C5  UNL     1      11.601   3.452  20.941  0.00  0.00    +0.102 A 
ATOM      6  C6  UNL     1      11.147   3.058  22.198  0.00  0.00    +0.038 A 
ATOM      7  C7  UNL     1       9.857   3.534  22.279  0.00  0.00    -0.001 A 
ATOM      8  C8  UNL     1       9.592   4.210  21.126  0.00  0.00    +0.024 A 
ATOM      9  N2  UNL     1      10.643   4.154  20.291  0.00  0.00    -0.354 N 
ATOM     10  C9  UNL     1       8.249   4.795  20.841  0.00  0.00    +0.081 C 
ATOM     11  C10 UNL     1       7.442   4.856  22.157  0.00  0.00    +0.166 C 
ATOM     12  O2  UNL     1       7.538   3.634  22.884  0.00  0.00    -0.375 OA
ATOM     13  C11 UNL     1       8.857   3.444  23.388  0.00  0.00    +0.196 C 
ATOM     14  H9  UNL     1      10.691   4.544  19.323  0.00  0.00    +0.166 HD
ENDBRANCH   2   5
BRANCH   1  15
ATOM     15  C3  UNL     1      14.608   1.254  19.963  0.00  0.00    +0.126 C 
BRANCH  15  17
ATOM     16  C1  UNL     1      16.561   2.756  20.531  0.00  0.00    +0.029 C 
ATOM     17  C2  UNL     1      16.023   1.323  20.567  0.00  0.00    +0.087 C 
BRANCH  17  18
ATOM     18  N3  UNL     1      16.007   0.834  21.950  0.00  0.00    -0.307 N 
ATOM     19  C12 UNL     1      16.277  -0.542  22.268  0.00  0.00    +0.247 C 
ATOM     20  O3  UNL     1      17.088  -1.193  21.555  0.00  0.00    -0.270 OA
ATOM     21  H16 UNL     1      15.634   1.469  22.690  0.00  0.00    +0.149 HD
BRANCH  19  22
ATOM     22  C13 UNL     1      15.610  -1.217  23.409  0.00  0.00    +0.073 A 
ATOM     23  C14 UNL     1      16.135  -2.381  23.994  0.00  0.00    +0.127 A 
ATOM     24  N4  UNL     1      15.515  -2.948  25.061  0.00  0.00    -0.243 NA
ATOM     25  C15 UNL     1      14.386  -2.408  25.584  0.00  0.00    +0.221 A 
ATOM     26  N5  UNL     1      13.864  -1.276  25.048  0.00  0.00    -0.243 NA
ATOM     27  C16 UNL     1      14.450  -0.672  23.983  0.00  0.00    +0.127 A 
ENDBRANCH  19  22
ENDBRANCH  17  18
ENDBRANCH  15  17
ENDBRANCH   1  15
TORSDOF 5
ENDMDL
MODEL 9
REMARK VINA RESULT:    -5.497     11.517     15.200
REMARK INTER + INTRA:          -8.014
REMARK INTER:                  -7.398
REMARK INTRA:                  -0.615
REMARK UNBOUND:                -0.910
REMARK  Name = /home/qwerty/github/datacon2025hack/step_04_hit_selection/docking/ligands/lig_741.pdb
REMARK  6 active torsions:
REMARK  status: ('A' for Active; 'I' for Inactive)
REMARK    1  A    between atoms: C1_1  and  C2_2
REMARK    2  A    between atoms: C2_2  and  C3_3
REMARK    3  A    between atoms: C2_2  and  N3_16
REMARK    4  A    between atoms: C3_3  and  N1_4
REMARK    5  A    between atoms: C4_5  and  C5_7
REMARK    6  A    between atoms: C12_17  and  C13_19
REMARK                            x       y       z     vdW  Elec       q    Type
REMARK                         _______ _______ _______ _____ _____    ______ ____
ROOT
ATOM      1  N1  UNL     1      23.902  14.753  21.439  0.00  0.00    -0.308 N 
ATOM      2  C4  UNL     1      24.383  15.507  22.562  0.00  0.00    +0.260 C 
ATOM      3  O1  UNL     1      25.285  16.371  22.397  0.00  0.00    -0.269 OA
ATOM      4  H7  UNL     1      23.378  13.865  21.598  0.00  0.00    +0.149 HD
ENDROOT
BRANCH   2   5
ATOM      5  C5  UNL     1      23.800  15.321  23.905  0.00  0.00    +0.102 A 
ATOM      6  C6  UNL     1      22.786  16.091  24.473  0.00  0.00    +0.038 A 
ATOM      7  C7  UNL     1      22.659  15.622  25.761  0.00  0.00    -0.001 A 
ATOM      8  C8  UNL     1      23.541  14.595  25.917  0.00  0.00    +0.024 A 
ATOM      9  N2  UNL     1      24.258  14.411  24.796  0.00  0.00    -0.354 N 
ATOM     10  C9  UNL     1      23.728  13.902  27.226  0.00  0.00    +0.081 C 
ATOM     11  C10 UNL     1      22.537  14.248  28.148  0.00  0.00    +0.166 C 
ATOM     12  O2  UNL     1      22.250  15.644  28.125  0.00  0.00    -0.375 OA
ATOM     13  C11 UNL     1      21.730  16.036  26.858  0.00  0.00    +0.196 C 
ATOM     14  H9  UNL     1      25.035  13.726  24.658  0.00  0.00    +0.166 HD
ENDBRANCH   2   5
BRANCH   1  15
ATOM     15  C3  UNL     1      24.039  15.226  20.062  0.00  0.00    +0.126 C 
BRANCH  15  17
ATOM     16  C1  UNL     1      23.004  16.958  18.539  0.00  0.00    +0.029 C 
ATOM     17  C2  UNL     1      22.725  15.854  19.560  0.00  0.00    +0.087 C 
BRANCH  17  18
ATOM     18  N3  UNL     1      21.872  14.824  18.957  0.00  0.00    -0.307 N 
ATOM     19  C12 UNL     1      20.600  14.469  19.524  0.00  0.00    +0.247 C 
ATOM     20  O3  UNL     1      19.917  15.352  20.111  0.00  0.00    -0.270 OA
ATOM     21  H16 UNL     1      22.278  14.235  18.196  0.00  0.00    +0.149 HD
BRANCH  19  22
ATOM     22  C13 UNL     1      20.079  13.082  19.447  0.00  0.00    +0.073 A 
ATOM     23  C14 UNL     1      18.802  12.739  19.922  0.00  0.00    +0.127 A 
ATOM     24  N4  UNL     1      18.347  11.465  19.799  0.00  0.00    -0.243 NA
ATOM     25  C15 UNL     1      19.106  10.503  19.219  0.00  0.00    +0.221 A 
ATOM     26  N5  UNL     1      20.338  10.808  18.739  0.00  0.00    -0.243 NA
ATOM     27  C16 UNL     1      20.835  12.068  18.836  0.00  0.00    +0.127 A 
ENDBRANCH  19  22
ENDBRANCH  17  18
ENDBRANCH  15  17
ENDBRANCH   1  15
TORSDOF 5
ENDMDL
