MODEL 1
REMARK VINA RESULT:    -7.711      0.000      0.000
REMARK INTER + INTRA:          -9.757
REMARK INTER:                  -9.063
REMARK INTRA:                  -0.695
REMARK UNBOUND:                -0.695
REMARK  Name = /home/qwerty/github/datacon2025hack/step_04_hit_selection/docking/ligands/lig_708.pdb
REMARK  5 active torsions:
REMARK  status: ('A' for Active; 'I' for Inactive)
REMARK    1  A    between atoms: C1_1  and  O1_2
REMARK    2  A    between atoms: O1_2  and  C2_3
REMARK    3  A    between atoms: C5_6  and  C6_7
REMARK    4  A    between atoms: C8_11  and  C9_12
REMARK    5  A    between atoms: N5_29  and  C22_30
REMARK                            x       y       z     vdW  Elec       q    Type
REMARK                         _______ _______ _______ _____ _____    ______ ____
ROOT
ATOM      1  C9  UNL     1      11.708  14.167  32.525  0.00  0.00    +0.250 C 
ATOM      2  O2  UNL     1      10.582  14.535  32.956  0.00  0.00    -0.270 OA
ATOM      3  N3  UNL     1      12.644  13.538  33.421  0.00  0.00    -0.297 N 
ATOM      4  C10 UNL     1      12.558  13.802  34.863  0.00  0.00    +0.112 C 
ATOM      5  C11 UNL     1      13.962  13.828  35.486  0.00  0.00    +0.065 C 
ATOM      6  C12 UNL     1      14.860  12.604  35.083  0.00  0.00    +0.104 C 
ATOM      7  C13 UNL     1      14.145  11.663  34.077  0.00  0.00    +0.065 C 
ATOM      8  C14 UNL     1      13.490  12.440  32.926  0.00  0.00    +0.112 C 
ATOM      9  N4  UNL     1      16.056  13.143  34.413  0.00  0.00    -0.290 N 
ATOM     10  C15 UNL     1      17.354  12.582  34.555  0.00  0.00    +0.247 C 
ATOM     11  O3  UNL     1      18.268  12.918  33.754  0.00  0.00    -0.270 OA
ATOM     12  C16 UNL     1      17.622  11.655  35.651  0.00  0.00    +0.058 A 
ATOM     13  C17 UNL     1      18.917  11.143  35.852  0.00  0.00    +0.015 A 
ATOM     14  C18 UNL     1      19.183  10.300  36.929  0.00  0.00    +0.001 A 
ATOM     15  C19 UNL     1      18.164   9.968  37.817  0.00  0.00    +0.002 A 
ATOM     16  C20 UNL     1      16.874  10.466  37.624  0.00  0.00    +0.024 A 
ATOM     17  C21 UNL     1      16.575  11.310  36.526  0.00  0.00    +0.043 A 
ATOM     18  N5  UNL     1      15.223  11.809  36.297  0.00  0.00    -0.311 N 
ATOM     19  C22 UNL     1      14.142  11.337  37.184  0.00  0.00    +0.131 C 
ATOM     20  H16 UNL     1      15.928  13.853  33.655  0.00  0.00    +0.151 HD
ENDROOT
BRANCH   1  25
ATOM     21  C6  UNL     1      11.389  13.979  29.968  0.00  0.00    +0.105 A 
ATOM     22  N1  UNL     1      11.934  14.579  28.890  0.00  0.00    -0.173 NA
ATOM     23  N2  UNL     1      12.908  15.368  29.312  0.00  0.00    -0.283 N 
ATOM     24  C7  UNL     1      13.006  15.297  30.650  0.00  0.00    +0.118 A 
ATOM     25  C8  UNL     1      12.051  14.413  31.112  0.00  0.00    +0.082 A 
ATOM     26  H6  UNL     1      13.491  15.967  28.686  0.00  0.00    +0.188 HD
BRANCH  21  30
ATOM     27  C2  UNL     1       8.174  11.147  29.636  0.00  0.00    +0.120 A 
ATOM     28  C3  UNL     1       7.974  12.498  29.300  0.00  0.00    +0.046 A 
ATOM     29  C4  UNL     1       9.025  13.415  29.411  0.00  0.00    +0.013 A 
ATOM     30  C5  UNL     1      10.284  13.001  29.874  0.00  0.00    +0.003 A 
ATOM     31  C23 UNL     1      10.485  11.647  30.190  0.00  0.00    +0.013 A 
ATOM     32  C24 UNL     1       9.435  10.732  30.077  0.00  0.00    +0.046 A 
BRANCH  27  34
ATOM     33  C1  UNL     1       7.125   8.969  30.275  0.00  0.00    +0.277 C 
ATOM     34  O1  UNL     1       7.153  10.189  29.541  0.00  0.00    -0.495 OA
ENDBRANCH  27  34
ENDBRANCH  21  30
ENDBRANCH   1  25
TORSDOF 3
ENDMDL
MODEL 2
REMARK VINA RESULT:    -7.667      7.911     12.598
REMARK INTER + INTRA:          -9.706
REMARK INTER:                  -8.993
REMARK INTRA:                  -0.713
REMARK UNBOUND:                -0.695
REMARK  Name = /home/qwerty/github/datacon2025hack/step_04_hit_selection/docking/ligands/lig_708.pdb
REMARK  5 active torsions:
REMARK  status: ('A' for Active; 'I' for Inactive)
REMARK    1  A    between atoms: C1_1  and  O1_2
REMARK    2  A    between atoms: O1_2  and  C2_3
REMARK    3  A    between atoms: C5_6  and  C6_7
REMARK    4  A    between atoms: C8_11  and  C9_12
REMARK    5  A    between atoms: N5_29  and  C22_30
REMARK                            x       y       z     vdW  Elec       q    Type
REMARK                         _______ _______ _______ _____ _____    ______ ____
ROOT
ATOM      1  C9  UNL     1       7.928   9.674  24.830  0.00  0.00    +0.250 C 
ATOM      2  O2  UNL     1       7.431  10.732  24.359  0.00  0.00    -0.270 OA
ATOM      3  N3  UNL     1       8.699   8.806  23.977  0.00  0.00    -0.297 N 
ATOM      4  C10 UNL     1       8.468   8.822  22.527  0.00  0.00    +0.112 C 
ATOM      5  C11 UNL     1       8.642   7.413  21.943  0.00  0.00    +0.065 C 
ATOM      6  C12 UNL     1       9.960   6.690  22.403  0.00  0.00    +0.104 C 
ATOM      7  C13 UNL     1      10.770   7.546  23.412  0.00  0.00    +0.065 C 
ATOM      8  C14 UNL     1       9.882   8.122  24.524  0.00  0.00    +0.112 C 
ATOM      9  N4  UNL     1       9.560   5.452  23.091  0.00  0.00    -0.290 N 
ATOM     10  C15 UNL     1      10.288   4.234  22.999  0.00  0.00    +0.247 C 
ATOM     11  O3  UNL     1      10.050   3.304  23.817  0.00  0.00    -0.270 OA
ATOM     12  C16 UNL     1      11.274   4.063  21.936  0.00  0.00    +0.058 A 
ATOM     13  C17 UNL     1      11.955   2.840  21.785  0.00  0.00    +0.015 A 
ATOM     14  C18 UNL     1      12.856   2.661  20.737  0.00  0.00    +0.001 A 
ATOM     15  C19 UNL     1      13.080   3.692  19.831  0.00  0.00    +0.002 A 
ATOM     16  C20 UNL     1      12.414   4.911  19.974  0.00  0.00    +0.024 A 
ATOM     17  C21 UNL     1      11.506   5.125  21.042  0.00  0.00    +0.043 A 
ATOM     18  N5  UNL     1      10.830   6.405  21.220  0.00  0.00    -0.311 N 
ATOM     19  C22 UNL     1      11.185   7.517  20.316  0.00  0.00    +0.131 C 
ATOM     20  H16 UNL     1       8.818   5.504  23.826  0.00  0.00    +0.151 HD
ENDROOT
BRANCH   1  25
ATOM     21  C6  UNL     1       8.010  10.070  27.382  0.00  0.00    +0.105 A 
ATOM     22  N1  UNL     1       7.450   9.482  28.459  0.00  0.00    -0.173 NA
ATOM     23  N2  UNL     1       6.792   8.413  28.044  0.00  0.00    -0.283 N 
ATOM     24  C7  UNL     1       6.910   8.294  26.710  0.00  0.00    +0.118 A 
ATOM     25  C8  UNL     1       7.686   9.335  26.246  0.00  0.00    +0.082 A 
ATOM     26  H6  UNL     1       6.250   7.778  28.670  0.00  0.00    +0.188 HD
BRANCH  21  30
ATOM     27  C2  UNL     1      10.432  13.606  27.698  0.00  0.00    +0.120 A 
ATOM     28  C3  UNL     1       9.040  13.672  27.896  0.00  0.00    +0.046 A 
ATOM     29  C4  UNL     1       8.258  12.517  27.791  0.00  0.00    +0.013 A 
ATOM     30  C5  UNL     1       8.848  11.284  27.471  0.00  0.00    +0.003 A 
ATOM     31  C23 UNL     1      10.241  11.219  27.293  0.00  0.00    +0.013 A 
ATOM     32  C24 UNL     1      11.021  12.374  27.400  0.00  0.00    +0.046 A 
BRANCH  27  34
ATOM     33  C1  UNL     1      12.454  14.921  27.041  0.00  0.00    +0.277 C 
ATOM     34  O1  UNL     1      11.259  14.735  27.793  0.00  0.00    -0.495 OA
ENDBRANCH  27  34
ENDBRANCH  21  30
ENDBRANCH   1  25
TORSDOF 3
ENDMDL
MODEL 3
REMARK VINA RESULT:    -7.611     13.579     16.973
REMARK INTER + INTRA:          -9.640
REMARK INTER:                  -9.203
REMARK INTRA:                  -0.437
REMARK UNBOUND:                -0.695
REMARK  Name = /home/qwerty/github/datacon2025hack/step_04_hit_selection/docking/ligands/lig_708.pdb
REMARK  5 active torsions:
REMARK  status: ('A' for Active; 'I' for Inactive)
REMARK    1  A    between atoms: C1_1  and  O1_2
REMARK    2  A    between atoms: O1_2  and  C2_3
REMARK    3  A    between atoms: C5_6  and  C6_7
REMARK    4  A    between atoms: C8_11  and  C9_12
REMARK    5  A    between atoms: N5_29  and  C22_30
REMARK                            x       y       z     vdW  Elec       q    Type
REMARK                         _______ _______ _______ _____ _____    ______ ____
ROOT
ATOM      1  C9  UNL     1      19.419   0.766  25.056  0.00  0.00    +0.250 C 
ATOM      2  O2  UNL     1      19.509  -0.368  25.600  0.00  0.00    -0.270 OA
ATOM      3  N3  UNL     1      18.247   1.097  24.286  0.00  0.00    -0.297 N 
ATOM      4  C10 UNL     1      17.451   0.024  23.678  0.00  0.00    +0.112 C 
ATOM      5  C11 UNL     1      16.885   0.479  22.325  0.00  0.00    +0.065 C 
ATOM      6  C12 UNL     1      16.188   1.887  22.367  0.00  0.00    +0.104 C 
ATOM      7  C13 UNL     1      16.288   2.544  23.769  0.00  0.00    +0.065 C 
ATOM      8  C14 UNL     1      17.710   2.467  24.342  0.00  0.00    +0.112 C 
ATOM      9  N4  UNL     1      16.905   2.755  21.417  0.00  0.00    -0.290 N 
ATOM     10  C15 UNL     1      16.262   3.737  20.615  0.00  0.00    +0.247 C 
ATOM     11  O3  UNL     1      16.954   4.618  20.036  0.00  0.00    -0.270 OA
ATOM     12  C16 UNL     1      14.813   3.689  20.440  0.00  0.00    +0.058 A 
ATOM     13  C17 UNL     1      14.165   4.608  19.594  0.00  0.00    +0.015 A 
ATOM     14  C18 UNL     1      12.790   4.527  19.387  0.00  0.00    +0.001 A 
ATOM     15  C19 UNL     1      12.052   3.528  20.014  0.00  0.00    +0.002 A 
ATOM     16  C20 UNL     1      12.683   2.614  20.859  0.00  0.00    +0.024 A 
ATOM     17  C21 UNL     1      14.078   2.686  21.101  0.00  0.00    +0.043 A 
ATOM     18  N5  UNL     1      14.742   1.757  22.008  0.00  0.00    -0.311 N 
ATOM     19  C22 UNL     1      13.911   0.790  22.753  0.00  0.00    +0.131 C 
ATOM     20  H16 UNL     1      17.949   2.789  21.459  0.00  0.00    +0.151 HD
ENDROOT
BRANCH   1  25
ATOM     21  C6  UNL     1      21.311   1.985  26.324  0.00  0.00    +0.105 A 
ATOM     22  N1  UNL     1      22.331   2.795  25.972  0.00  0.00    -0.173 NA
ATOM     23  N2  UNL     1      22.221   3.049  24.678  0.00  0.00    -0.283 N 
ATOM     24  C7  UNL     1      21.147   2.414  24.178  0.00  0.00    +0.118 A 
ATOM     25  C8  UNL     1      20.532   1.722  25.201  0.00  0.00    +0.082 A 
ATOM     26  H6  UNL     1      22.890   3.640  24.138  0.00  0.00    +0.188 HD
BRANCH  21  30
ATOM     27  C2  UNL     1      20.743   0.638  30.365  0.00  0.00    +0.120 A 
ATOM     28  C3  UNL     1      21.833   0.178  29.604  0.00  0.00    +0.046 A 
ATOM     29  C4  UNL     1      22.011   0.620  28.289  0.00  0.00    +0.013 A 
ATOM     30  C5  UNL     1      21.098   1.513  27.708  0.00  0.00    +0.003 A 
ATOM     31  C23 UNL     1      20.021   1.986  28.478  0.00  0.00    +0.013 A 
ATOM     32  C24 UNL     1      19.845   1.544  29.792  0.00  0.00    +0.046 A 
BRANCH  27  34
ATOM     33  C1  UNL     1      20.071   1.082  32.732  0.00  0.00    +0.277 C 
ATOM     34  O1  UNL     1      20.520   0.225  31.687  0.00  0.00    -0.495 OA
ENDBRANCH  27  34
ENDBRANCH  21  30
ENDBRANCH   1  25
TORSDOF 3
ENDMDL
MODEL 4
REMARK VINA RESULT:    -7.605      8.641     12.443
REMARK INTER + INTRA:          -9.634
REMARK INTER:                  -9.123
REMARK INTRA:                  -0.510
REMARK UNBOUND:                -0.695
REMARK  Name = /home/qwerty/github/datacon2025hack/step_04_hit_selection/docking/ligands/lig_708.pdb
REMARK  5 active torsions:
REMARK  status: ('A' for Active; 'I' for Inactive)
REMARK    1  A    between atoms: C1_1  and  O1_2
REMARK    2  A    between atoms: O1_2  and  C2_3
REMARK    3  A    between atoms: C5_6  and  C6_7
REMARK    4  A    between atoms: C8_11  and  C9_12
REMARK    5  A    between atoms: N5_29  and  C22_30
REMARK                            x       y       z     vdW  Elec       q    Type
REMARK                         _______ _______ _______ _____ _____    ______ ____
ROOT
ATOM      1  C9  UNL     1      22.070   3.779  32.808  0.00  0.00    +0.250 C 
ATOM      2  O2  UNL     1      23.248   3.874  32.371  0.00  0.00    -0.270 OA
ATOM      3  N3  UNL     1      21.476   4.887  33.510  0.00  0.00    -0.297 N 
ATOM      4  C10 UNL     1      22.339   5.863  34.187  0.00  0.00    +0.112 C 
ATOM      5  C11 UNL     1      21.671   6.363  35.476  0.00  0.00    +0.065 C 
ATOM      6  C12 UNL     1      20.176   6.810  35.287  0.00  0.00    +0.104 C 
ATOM      7  C13 UNL     1      19.679   6.579  33.836  0.00  0.00    +0.065 C 
ATOM      8  C14 UNL     1      20.047   5.183  33.315  0.00  0.00    +0.112 C 
ATOM      9  N4  UNL     1      19.356   5.969  36.176  0.00  0.00    -0.290 N 
ATOM     10  C15 UNL     1      18.209   6.447  36.868  0.00  0.00    +0.247 C 
ATOM     11  O3  UNL     1      17.407   5.624  37.386  0.00  0.00    -0.270 OA
ATOM     12  C16 UNL     1      17.996   7.886  37.002  0.00  0.00    +0.058 A 
ATOM     13  C17 UNL     1      16.907   8.380  37.743  0.00  0.00    +0.015 A 
ATOM     14  C18 UNL     1      16.735   9.752  37.915  0.00  0.00    +0.001 A 
ATOM     15  C19 UNL     1      17.650  10.640  37.358  0.00  0.00    +0.002 A 
ATOM     16  C20 UNL     1      18.732  10.161  36.617  0.00  0.00    +0.024 A 
ATOM     17  C21 UNL     1      18.918   8.771  36.412  0.00  0.00    +0.043 A 
ATOM     18  N5  UNL     1      20.027   8.262  35.613  0.00  0.00    -0.311 N 
ATOM     19  C22 UNL     1      20.906   9.234  34.933  0.00  0.00    +0.131 C 
ATOM     20  H16 UNL     1      19.502   4.934  36.163  0.00  0.00    +0.151 HD
ENDROOT
BRANCH   1  25
ATOM     21  C6  UNL     1      21.232   1.739  31.462  0.00  0.00    +0.105 A 
ATOM     22  N1  UNL     1      20.613   0.580  31.768  0.00  0.00    -0.173 NA
ATOM     23  N2  UNL     1      20.324   0.601  33.059  0.00  0.00    -0.283 N 
ATOM     24  C7  UNL     1      20.747   1.754  33.602  0.00  0.00    +0.118 A 
ATOM     25  C8  UNL     1      21.332   2.516  32.611  0.00  0.00    +0.082 A 
ATOM     26  H6  UNL     1      19.855  -0.180  33.567  0.00  0.00    +0.188 HD
BRANCH  21  30
ATOM     27  C2  UNL     1      22.510   2.670  27.466  0.00  0.00    +0.120 A 
ATOM     28  C3  UNL     1      23.101   1.610  28.177  0.00  0.00    +0.046 A 
ATOM     29  C4  UNL     1      22.681   1.313  29.478  0.00  0.00    +0.013 A 
ATOM     30  C5  UNL     1      21.677   2.078  30.094  0.00  0.00    +0.003 A 
ATOM     31  C23 UNL     1      21.076   3.123  29.372  0.00  0.00    +0.013 A 
ATOM     32  C24 UNL     1      21.496   3.418  28.073  0.00  0.00    +0.046 A 
BRANCH  27  34
ATOM     33  C1  UNL     1      22.820   4.320  25.613  0.00  0.00    +0.277 C 
ATOM     34  O1  UNL     1      22.897   3.008  26.160  0.00  0.00    -0.495 OA
ENDBRANCH  27  34
ENDBRANCH  21  30
ENDBRANCH   1  25
TORSDOF 3
ENDMDL
MODEL 5
REMARK VINA RESULT:    -7.271      2.549      8.974
REMARK INTER + INTRA:          -9.241
REMARK INTER:                  -8.459
REMARK INTRA:                  -0.782
REMARK UNBOUND:                -0.695
REMARK  Name = /home/qwerty/github/datacon2025hack/step_04_hit_selection/docking/ligands/lig_708.pdb
REMARK  5 active torsions:
REMARK  status: ('A' for Active; 'I' for Inactive)
REMARK    1  A    between atoms: C1_1  and  O1_2
REMARK    2  A    between atoms: O1_2  and  C2_3
REMARK    3  A    between atoms: C5_6  and  C6_7
REMARK    4  A    between atoms: C8_11  and  C9_12
REMARK    5  A    between atoms: N5_29  and  C22_30
REMARK                            x       y       z     vdW  Elec       q    Type
REMARK                         _______ _______ _______ _____ _____    ______ ____
ROOT
ATOM      1  C9  UNL     1      12.038  14.271  33.551  0.00  0.00    +0.250 C 
ATOM      2  O2  UNL     1      13.025  15.035  33.726  0.00  0.00    -0.270 OA
ATOM      3  N3  UNL     1      11.809  13.685  32.255  0.00  0.00    -0.297 N 
ATOM      4  C10 UNL     1      12.331  14.351  31.055  0.00  0.00    +0.112 C 
ATOM      5  C11 UNL     1      11.362  14.167  29.878  0.00  0.00    +0.065 C 
ATOM      6  C12 UNL     1      10.891  12.683  29.667  0.00  0.00    +0.104 C 
ATOM      7  C13 UNL     1      11.462  11.732  30.752  0.00  0.00    +0.065 C 
ATOM      8  C14 UNL     1      11.301  12.306  32.166  0.00  0.00    +0.112 C 
ATOM      9  N4  UNL     1       9.423  12.671  29.794  0.00  0.00    -0.290 N 
ATOM     10  C15 UNL     1       8.576  11.841  29.010  0.00  0.00    +0.247 C 
ATOM     11  O3  UNL     1       7.373  11.680  29.352  0.00  0.00    -0.270 OA
ATOM     12  C16 UNL     1       9.100  11.216  27.798  0.00  0.00    +0.058 A 
ATOM     13  C17 UNL     1       8.260  10.449  26.970  0.00  0.00    +0.015 A 
ATOM     14  C18 UNL     1       8.748   9.898  25.787  0.00  0.00    +0.001 A 
ATOM     15  C19 UNL     1      10.071  10.113  25.417  0.00  0.00    +0.002 A 
ATOM     16  C20 UNL     1      10.915  10.870  26.232  0.00  0.00    +0.024 A 
ATOM     17  C21 UNL     1      10.448  11.425  27.450  0.00  0.00    +0.043 A 
ATOM     18  N5  UNL     1      11.330  12.188  28.326  0.00  0.00    -0.311 N 
ATOM     19  C22 UNL     1      12.758  12.292  27.965  0.00  0.00    +0.131 C 
ATOM     20  H16 UNL     1       8.987  13.149  30.615  0.00  0.00    +0.151 HD
ENDROOT
BRANCH   1  25
ATOM     21  C6  UNL     1      11.354  13.280  35.837  0.00  0.00    +0.105 A 
ATOM     22  N1  UNL     1      10.315  13.450  36.681  0.00  0.00    -0.173 NA
ATOM     23  N2  UNL     1       9.445  14.258  36.097  0.00  0.00    -0.283 N 
ATOM     24  C7  UNL     1       9.901  14.622  34.887  0.00  0.00    +0.118 A 
ATOM     25  C8  UNL     1      11.121  14.014  34.678  0.00  0.00    +0.082 A 
ATOM     26  H6  UNL     1       8.552  14.572  36.536  0.00  0.00    +0.188 HD
BRANCH  21  30
ATOM     27  C2  UNL     1      14.708  10.769  36.796  0.00  0.00    +0.120 A 
ATOM     28  C3  UNL     1      14.730  12.141  37.105  0.00  0.00    +0.046 A 
ATOM     29  C4  UNL     1      13.635  12.953  36.789  0.00  0.00    +0.013 A 
ATOM     30  C5  UNL     1      12.510  12.412  36.147  0.00  0.00    +0.003 A 
ATOM     31  C23 UNL     1      12.484  11.038  35.857  0.00  0.00    +0.013 A 
ATOM     32  C24 UNL     1      13.578  10.228  36.174  0.00  0.00    +0.046 A 
BRANCH  27  34
ATOM     33  C1  UNL     1      16.942  10.302  37.816  0.00  0.00    +0.277 C 
ATOM     34  O1  UNL     1      15.780   9.914  37.091  0.00  0.00    -0.495 OA
ENDBRANCH  27  34
ENDBRANCH  21  30
ENDBRANCH   1  25
TORSDOF 3
ENDMDL
MODEL 6
REMARK VINA RESULT:    -7.169     12.615     16.165
REMARK INTER + INTRA:          -9.121
REMARK INTER:                  -8.695
REMARK INTRA:                  -0.427
REMARK UNBOUND:                -0.695
REMARK  Name = /home/qwerty/github/datacon2025hack/step_04_hit_selection/docking/ligands/lig_708.pdb
REMARK  5 active torsions:
REMARK  status: ('A' for Active; 'I' for Inactive)
REMARK    1  A    between atoms: C1_1  and  O1_2
REMARK    2  A    between atoms: O1_2  and  C2_3
REMARK    3  A    between atoms: C5_6  and  C6_7
REMARK    4  A    between atoms: C8_11  and  C9_12
REMARK    5  A    between atoms: N5_29  and  C22_30
REMARK                            x       y       z     vdW  Elec       q    Type
REMARK                         _______ _______ _______ _____ _____    ______ ____
ROOT
ATOM      1  C9  UNL     1      13.190   2.166  21.437  0.00  0.00    +0.250 C 
ATOM      2  O2  UNL     1      12.852   0.987  21.728  0.00  0.00    -0.270 OA
ATOM      3  N3  UNL     1      12.312   3.261  21.757  0.00  0.00    -0.297 N 
ATOM      4  C10 UNL     1      10.870   3.017  21.895  0.00  0.00    +0.112 C 
ATOM      5  C11 UNL     1      10.073   4.223  21.377  0.00  0.00    +0.065 C 
ATOM      6  C12 UNL     1      10.574   5.605  21.933  0.00  0.00    +0.104 C 
ATOM      7  C13 UNL     1      11.823   5.448  22.840  0.00  0.00    +0.065 C 
ATOM      8  C14 UNL     1      12.886   4.539  22.207  0.00  0.00    +0.112 C 
ATOM      9  N4  UNL     1      10.968   6.424  20.773  0.00  0.00    -0.290 N 
ATOM     10  C15 UNL     1      10.761   7.828  20.700  0.00  0.00    +0.247 C 
ATOM     11  O3  UNL     1      11.358   8.499  19.814  0.00  0.00    -0.270 OA
ATOM     12  C16 UNL     1       9.832   8.470  21.626  0.00  0.00    +0.058 A 
ATOM     13  C17 UNL     1       9.560   9.846  21.525  0.00  0.00    +0.015 A 
ATOM     14  C18 UNL     1       8.632  10.446  22.375  0.00  0.00    +0.001 A 
ATOM     15  C19 UNL     1       7.965   9.679  23.324  0.00  0.00    +0.002 A 
ATOM     16  C20 UNL     1       8.231   8.313  23.437  0.00  0.00    +0.024 A 
ATOM     17  C21 UNL     1       9.183   7.683  22.597  0.00  0.00    +0.043 A 
ATOM     18  N5  UNL     1       9.492   6.264  22.728  0.00  0.00    -0.311 N 
ATOM     19  C22 UNL     1       8.859   5.507  23.827  0.00  0.00    +0.131 C 
ATOM     20  H16 UNL     1      11.590   5.999  20.048  0.00  0.00    +0.151 HD
ENDROOT
BRANCH   1  25
ATOM     21  C6  UNL     1      15.694   1.752  20.947  0.00  0.00    +0.105 A 
ATOM     22  N1  UNL     1      16.556   2.140  19.986  0.00  0.00    -0.173 NA
ATOM     23  N2  UNL     1      15.929   2.996  19.196  0.00  0.00    -0.283 N 
ATOM     24  C7  UNL     1      14.667   3.171  19.625  0.00  0.00    +0.118 A 
ATOM     25  C8  UNL     1      14.475   2.394  20.748  0.00  0.00    +0.082 A 
ATOM     26  H6  UNL     1      16.359   3.444  18.357  0.00  0.00    +0.188 HD
BRANCH  21  30
ATOM     27  C2  UNL     1      16.810  -0.992  24.060  0.00  0.00    +0.120 A 
ATOM     28  C3  UNL     1      16.531  -1.458  22.762  0.00  0.00    +0.046 A 
ATOM     29  C4  UNL     1      16.167  -0.559  21.754  0.00  0.00    +0.013 A 
ATOM     30  C5  UNL     1      16.061   0.813  22.029  0.00  0.00    +0.003 A 
ATOM     31  C23 UNL     1      16.358   1.277  23.321  0.00  0.00    +0.013 A 
ATOM     32  C24 UNL     1      16.723   0.378  24.327  0.00  0.00    +0.046 A 
BRANCH  27  34
ATOM     33  C1  UNL     1      17.871  -3.083  24.927  0.00  0.00    +0.277 C 
ATOM     34  O1  UNL     1      17.178  -1.853  25.106  0.00  0.00    -0.495 OA
ENDBRANCH  27  34
ENDBRANCH  21  30
ENDBRANCH   1  25
TORSDOF 3
ENDMDL
MODEL 7
REMARK VINA RESULT:    -7.037     13.450     14.479
REMARK INTER + INTRA:          -8.966
REMARK INTER:                  -7.804
REMARK INTRA:                  -1.161
REMARK UNBOUND:                -0.695
REMARK  Name = /home/qwerty/github/datacon2025hack/step_04_hit_selection/docking/ligands/lig_708.pdb
REMARK  5 active torsions:
REMARK  status: ('A' for Active; 'I' for Inactive)
REMARK    1  A    between atoms: C1_1  and  O1_2
REMARK    2  A    between atoms: O1_2  and  C2_3
REMARK    3  A    between atoms: C5_6  and  C6_7
REMARK    4  A    between atoms: C8_11  and  C9_12
REMARK    5  A    between atoms: N5_29  and  C22_30
REMARK                            x       y       z     vdW  Elec       q    Type
REMARK                         _______ _______ _______ _____ _____    ______ ____
ROOT
ATOM      1  C9  UNL     1      18.796   4.308  22.371  0.00  0.00    +0.250 C 
ATOM      2  O2  UNL     1      19.561   4.538  21.396  0.00  0.00    -0.270 OA
ATOM      3  N3  UNL     1      19.350   3.868  23.626  0.00  0.00    -0.297 N 
ATOM      4  C10 UNL     1      20.645   3.177  23.644  0.00  0.00    +0.112 C 
ATOM      5  C11 UNL     1      20.660   2.100  24.738  0.00  0.00    +0.065 C 
ATOM      6  C12 UNL     1      20.152   2.605  26.137  0.00  0.00    +0.104 C 
ATOM      7  C13 UNL     1      19.676   4.081  26.084  0.00  0.00    +0.065 C 
ATOM      8  C14 UNL     1      18.757   4.349  24.884  0.00  0.00    +0.112 C 
ATOM      9  N4  UNL     1      18.990   1.777  26.502  0.00  0.00    -0.290 N 
ATOM     10  C15 UNL     1      18.709   1.364  27.833  0.00  0.00    +0.247 C 
ATOM     11  O3  UNL     1      17.571   0.897  28.113  0.00  0.00    -0.270 OA
ATOM     12  C16 UNL     1      19.753   1.452  28.850  0.00  0.00    +0.058 A 
ATOM     13  C17 UNL     1      19.518   0.984  30.156  0.00  0.00    +0.015 A 
ATOM     14  C18 UNL     1      20.533   1.019  31.111  0.00  0.00    +0.001 A 
ATOM     15  C19 UNL     1      21.788   1.512  30.770  0.00  0.00    +0.002 A 
ATOM     16  C20 UNL     1      22.031   1.983  29.478  0.00  0.00    +0.024 A 
ATOM     17  C21 UNL     1      21.011   1.976  28.495  0.00  0.00    +0.043 A 
ATOM     18  N5  UNL     1      21.244   2.496  27.152  0.00  0.00    -0.311 N 
ATOM     19  C22 UNL     1      22.547   3.126  26.861  0.00  0.00    +0.131 C 
ATOM     20  H16 UNL     1      18.234   1.634  25.794  0.00  0.00    +0.151 HD
ENDROOT
BRANCH   1  25
ATOM     21  C6  UNL     1      16.337   3.515  22.311  0.00  0.00    +0.105 A 
ATOM     22  N1  UNL     1      15.137   4.127  22.248  0.00  0.00    -0.173 NA
ATOM     23  N2  UNL     1      15.348   5.424  22.097  0.00  0.00    -0.283 N 
ATOM     24  C7  UNL     1      16.668   5.670  22.064  0.00  0.00    +0.118 A 
ATOM     25  C8  UNL     1      17.340   4.472  22.194  0.00  0.00    +0.082 A 
ATOM     26  H6  UNL     1      14.589   6.138  22.035  0.00  0.00    +0.188 HD
BRANCH  21  30
ATOM     27  C2  UNL     1      16.828  -0.738  22.681  0.00  0.00    +0.120 A 
ATOM     28  C3  UNL     1      16.503  -0.161  21.440  0.00  0.00    +0.046 A 
ATOM     29  C4  UNL     1      16.344   1.225  21.327  0.00  0.00    +0.013 A 
ATOM     30  C5  UNL     1      16.490   2.052  22.452  0.00  0.00    +0.003 A 
ATOM     31  C23 UNL     1      16.834   1.473  23.686  0.00  0.00    +0.013 A 
ATOM     32  C24 UNL     1      16.993   0.089  23.797  0.00  0.00    +0.046 A 
BRANCH  27  34
ATOM     33  C1  UNL     1      17.127  -2.770  24.107  0.00  0.00    +0.277 C 
ATOM     34  O1  UNL     1      16.997  -2.121  22.846  0.00  0.00    -0.495 OA
ENDBRANCH  27  34
ENDBRANCH  21  30
ENDBRANCH   1  25
TORSDOF 3
ENDMDL
MODEL 8
REMARK VINA RESULT:    -6.908     12.742     16.485
REMARK INTER + INTRA:          -8.814
REMARK INTER:                  -7.649
REMARK INTRA:                  -1.164
REMARK UNBOUND:                -0.695
REMARK  Name = /home/qwerty/github/datacon2025hack/step_04_hit_selection/docking/ligands/lig_708.pdb
REMARK  5 active torsions:
REMARK  status: ('A' for Active; 'I' for Inactive)
REMARK    1  A    between atoms: C1_1  and  O1_2
REMARK    2  A    between atoms: O1_2  and  C2_3
REMARK    3  A    between atoms: C5_6  and  C6_7
REMARK    4  A    between atoms: C8_11  and  C9_12
REMARK    5  A    between atoms: N5_29  and  C22_30
REMARK                            x       y       z     vdW  Elec       q    Type
REMARK                         _______ _______ _______ _____ _____    ______ ____
ROOT
ATOM      1  C9  UNL     1      16.159   2.405  21.181  0.00  0.00    +0.250 C 
ATOM      2  O2  UNL     1      17.242   3.051  21.199  0.00  0.00    -0.270 OA
ATOM      3  N3  UNL     1      14.905   3.114  21.196  0.00  0.00    -0.297 N 
ATOM      4  C10 UNL     1      14.842   4.465  21.767  0.00  0.00    +0.112 C 
ATOM      5  C11 UNL     1      13.496   4.686  22.471  0.00  0.00    +0.065 C 
ATOM      6  C12 UNL     1      12.250   4.264  21.611  0.00  0.00    +0.104 C 
ATOM      7  C13 UNL     1      12.666   3.646  20.249  0.00  0.00    +0.065 C 
ATOM      8  C14 UNL     1      13.775   2.598  20.406  0.00  0.00    +0.112 C 
ATOM      9  N4  UNL     1      11.530   3.226  22.368  0.00  0.00    -0.290 N 
ATOM     10  C15 UNL     1      10.113   3.112  22.388  0.00  0.00    +0.247 C 
ATOM     11  O3  UNL     1       9.580   2.055  22.824  0.00  0.00    -0.270 OA
ATOM     12  C16 UNL     1       9.293   4.234  21.938  0.00  0.00    +0.058 A 
ATOM     13  C17 UNL     1       7.890   4.167  22.015  0.00  0.00    +0.015 A 
ATOM     14  C18 UNL     1       7.111   5.259  21.635  0.00  0.00    +0.001 A 
ATOM     15  C19 UNL     1       7.723   6.424  21.184  0.00  0.00    +0.002 A 
ATOM     16  C20 UNL     1       9.115   6.499  21.099  0.00  0.00    +0.024 A 
ATOM     17  C21 UNL     1       9.928   5.396  21.462  0.00  0.00    +0.043 A 
ATOM     18  N5  UNL     1      11.381   5.452  21.345  0.00  0.00    -0.311 N 
ATOM     19  C22 UNL     1      11.991   6.656  20.746  0.00  0.00    +0.131 C 
ATOM     20  H16 UNL     1      12.074   2.425  22.761  0.00  0.00    +0.151 HD
ENDROOT
BRANCH   1  25
ATOM     21  C6  UNL     1      15.778   0.041  22.153  0.00  0.00    +0.105 A 
ATOM     22  N1  UNL     1      15.834  -1.214  21.662  0.00  0.00    -0.173 NA
ATOM     23  N2  UNL     1      16.275  -1.146  20.417  0.00  0.00    -0.283 N 
ATOM     24  C7  UNL     1      16.505   0.135  20.084  0.00  0.00    +0.118 A 
ATOM     25  C8  UNL     1      16.203   0.931  21.170  0.00  0.00    +0.082 A 
ATOM     26  H6  UNL     1      16.400  -1.973  19.793  0.00  0.00    +0.188 HD
BRANCH  21  30
ATOM     27  C2  UNL     1      14.504   0.891  26.168  0.00  0.00    +0.120 A 
ATOM     28  C3  UNL     1      13.601   0.992  25.094  0.00  0.00    +0.046 A 
ATOM     29  C4  UNL     1      14.023   0.716  23.790  0.00  0.00    +0.013 A 
ATOM     30  C5  UNL     1      15.354   0.349  23.535  0.00  0.00    +0.003 A 
ATOM     31  C23 UNL     1      16.248   0.230  24.612  0.00  0.00    +0.013 A 
ATOM     32  C24 UNL     1      15.825   0.506  25.915  0.00  0.00    +0.046 A 
BRANCH  27  34
ATOM     33  C1  UNL     1      13.087   2.051  27.870  0.00  0.00    +0.277 C 
ATOM     34  O1  UNL     1      14.130   1.158  27.494  0.00  0.00    -0.495 OA
ENDBRANCH  27  34
ENDBRANCH  21  30
ENDBRANCH   1  25
TORSDOF 3
ENDMDL
MODEL 9
REMARK VINA RESULT:    -6.862     13.520     14.516
REMARK INTER + INTRA:          -8.761
REMARK INTER:                  -7.561
REMARK INTRA:                  -1.200
REMARK UNBOUND:                -0.695
REMARK  Name = /home/qwerty/github/datacon2025hack/step_04_hit_selection/docking/ligands/lig_708.pdb
REMARK  5 active torsions:
REMARK  status: ('A' for Active; 'I' for Inactive)
REMARK    1  A    between atoms: C1_1  and  O1_2
REMARK    2  A    between atoms: O1_2  and  C2_3
REMARK    3  A    between atoms: C5_6  and  C6_7
REMARK    4  A    between atoms: C8_11  and  C9_12
REMARK    5  A    between atoms: N5_29  and  C22_30
REMARK                            x       y       z     vdW  Elec       q    Type
REMARK                         _______ _______ _______ _____ _____    ______ ____
ROOT
ATOM      1  C9  UNL     1      18.761   5.678  21.069  0.00  0.00    +0.250 C 
ATOM      2  O2  UNL     1      19.514   5.945  20.094  0.00  0.00    -0.270 OA
ATOM      3  N3  UNL     1      19.315   5.082  22.258  0.00  0.00    -0.297 N 
ATOM      4  C10 UNL     1      20.557   4.303  22.167  0.00  0.00    +0.112 C 
ATOM      5  C11 UNL     1      20.523   3.129  23.156  0.00  0.00    +0.065 C 
ATOM      6  C12 UNL     1      20.092   3.532  24.612  0.00  0.00    +0.104 C 
ATOM      7  C13 UNL     1      19.724   5.037  24.713  0.00  0.00    +0.065 C 
ATOM      8  C14 UNL     1      18.794   5.481  23.575  0.00  0.00    +0.112 C 
ATOM      9  N4  UNL     1      18.883   2.757  24.938  0.00  0.00    -0.290 N 
ATOM     10  C15 UNL     1      18.609   2.241  26.234  0.00  0.00    +0.247 C 
ATOM     11  O3  UNL     1      17.449   1.830  26.508  0.00  0.00    -0.270 OA
ATOM     12  C16 UNL     1      19.685   2.158  27.218  0.00  0.00    +0.058 A 
ATOM     13  C17 UNL     1      19.453   1.585  28.483  0.00  0.00    +0.015 A 
ATOM     14  C18 UNL     1      20.493   1.458  29.401  0.00  0.00    +0.001 A 
ATOM     15  C19 UNL     1      21.771   1.892  29.065  0.00  0.00    +0.002 A 
ATOM     16  C20 UNL     1      22.012   2.466  27.815  0.00  0.00    +0.024 A 
ATOM     17  C21 UNL     1      20.967   2.623  26.870  0.00  0.00    +0.043 A 
ATOM     18  N5  UNL     1      21.201   3.251  25.575  0.00  0.00    -0.311 N 
ATOM     19  C22 UNL     1      22.538   3.814  25.299  0.00  0.00    +0.131 C 
ATOM     20  H16 UNL     1      18.099   2.736  24.246  0.00  0.00    +0.151 HD
ENDROOT
BRANCH   1  25
ATOM     21  C6  UNL     1      16.248   5.076  21.073  0.00  0.00    +0.105 A 
ATOM     22  N1  UNL     1      15.097   5.779  21.085  0.00  0.00    -0.173 NA
ATOM     23  N2  UNL     1      15.402   7.063  20.984  0.00  0.00    -0.283 N 
ATOM     24  C7  UNL     1      16.735   7.210  20.909  0.00  0.00    +0.118 A 
ATOM     25  C8  UNL     1      17.317   5.960  20.959  0.00  0.00    +0.082 A 
ATOM     26  H6  UNL     1      14.699   7.834  20.984  0.00  0.00    +0.188 HD
BRANCH  21  30
ATOM     27  C2  UNL     1      16.325   0.786  21.305  0.00  0.00    +0.120 A 
ATOM     28  C3  UNL     1      16.377   1.566  22.474  0.00  0.00    +0.046 A 
ATOM     29  C4  UNL     1      16.353   2.962  22.391  0.00  0.00    +0.013 A 
ATOM     30  C5  UNL     1      16.292   3.600  21.142  0.00  0.00    +0.003 A 
ATOM     31  C23 UNL     1      16.220   2.817  19.977  0.00  0.00    +0.013 A 
ATOM     32  C24 UNL     1      16.244   1.422  20.062  0.00  0.00    +0.046 A 
BRANCH  27  34
ATOM     33  C1  UNL     1      17.024  -1.389  22.320  0.00  0.00    +0.277 C 
ATOM     34  O1  UNL     1      16.347  -0.617  21.334  0.00  0.00    -0.495 OA
ENDBRANCH  27  34
ENDBRANCH  21  30
ENDBRANCH   1  25
TORSDOF 3
ENDMDL
