REMARK  Name = /home/qwerty/github/datacon2025hack/step_04_hit_selection/docking/ligands/lig_684.pdb
REMARK  6 active torsions:
REMARK  status: ('A' for Active; 'I' for Inactive)
REMARK    1  A    between atoms: C2_2  and  C3_3
REMARK    2  A    between atoms: C3_3  and  N1_4
REMARK    3  A    between atoms: C5_6  and  C6_7
REMARK    4  A    between atoms: C8_11  and  C9_12
REMARK    5  A    between atoms: C9_12  and  N3_13
REMARK    6  A    between atoms: C10_14  and  C11_16
REMARK                            x       y       z     vdW  Elec       q    Type
REMARK                         _______ _______ _______ _____ _____    ______ ____
ROOT
ATOM      1  C6  UNL     1       1.865  -0.541  -2.541  0.00  0.00    +0.268 C 
ATOM      2  O1  UNL     1       1.478  -0.970  -3.660  0.00  0.00    -0.268 OA
ATOM      3  N2  UNL     1       0.898  -0.003  -1.635  0.00  0.00    -0.295 N 
ATOM      4  C7  UNL     1       0.830   0.588  -0.284  0.00  0.00    +0.114 C 
ATOM      5  C8  UNL     1      -0.650   0.817  -0.284  0.00  0.00    +0.041 C 
ATOM      6  C16 UNL     1      -0.561   0.214  -1.652  0.00  0.00    +0.114 C 
ENDROOT
BRANCH   1   9
ATOM      7  N1  UNL     1       5.233  -0.465  -1.222  0.00  0.00    -0.247 N 
ATOM      8  C4  UNL     1       3.929  -0.194  -1.051  0.00  0.00    +0.143 A 
ATOM      9  C5  UNL     1       3.298  -0.609  -2.207  0.00  0.00    +0.167 A 
ATOM     10  N5  UNL     1       4.233  -1.126  -3.032  0.00  0.00    -0.125 NA
ATOM     11  N6  UNL     1       5.397  -1.031  -2.406  0.00  0.00    -0.065 NA
BRANCH   7  12
ATOM     12  C3  UNL     1       6.300  -0.268  -0.247  0.00  0.00    +0.172 C 
BRANCH  12  14
ATOM     13  C1  UNL     1       7.323  -1.512   1.626  0.00  0.00    +0.006 C 
ATOM     14  C2  UNL     1       6.411  -1.466   0.652  0.00  0.00    -0.012 C 
ENDBRANCH  12  14
ENDBRANCH   7  12
ENDBRANCH   1   9
BRANCH   5  15
ATOM     15  C9  UNL     1      -1.418  -0.035   0.740  0.00  0.00    +0.111 C 
BRANCH  15  16
ATOM     16  N3  UNL     1      -2.861   0.055   0.513  0.00  0.00    -0.311 N 
ATOM     17  C10 UNL     1      -3.791  -0.649   1.351  0.00  0.00    +0.244 C 
ATOM     18  O2  UNL     1      -3.359  -1.473   2.203  0.00  0.00    -0.270 OA
ATOM     19  H12 UNL     1      -3.215   0.604  -0.302  0.00  0.00    +0.149 HD
BRANCH  17  20
ATOM     20  C11 UNL     1      -5.254  -0.439   1.220  0.00  0.00    +0.042 A 
ATOM     21  C12 UNL     1      -5.776   0.757   0.698  0.00  0.00    +0.033 A 
ATOM     22  C13 UNL     1      -7.160   0.921   0.597  0.00  0.00    +0.114 A 
ATOM     23  N4  UNL     1      -7.998  -0.067   1.007  0.00  0.00    -0.228 NA
ATOM     24  C14 UNL     1      -7.525  -1.231   1.525  0.00  0.00    +0.214 A 
ATOM     25  F1  UNL     1      -8.393  -2.192   1.925  0.00  0.00    -0.184 F 
ATOM     26  C15 UNL     1      -6.148  -1.436   1.646  0.00  0.00    +0.072 A 
ENDBRANCH  17  20
ENDBRANCH  15  16
ENDBRANCH   5  15
TORSDOF 6
