MODEL 1
REMARK VINA RESULT:    -6.451      0.000      0.000
REMARK INTER + INTRA:          -9.415
REMARK INTER:                  -8.337
REMARK INTRA:                  -1.079
REMARK UNBOUND:                -1.079
REMARK  Name = /home/qwerty/github/datacon2025hack/step_04_hit_selection/docking/ligands/lig_215.pdb
REMARK  6 active torsions:
REMARK  status: ('A' for Active; 'I' for Inactive)
REMARK    1  A    between atoms: C1_1  and  N1_2
REMARK    2  A    between atoms: C3_4  and  N2_5
REMARK    3  A    between atoms: N3_8  and  C5_9
REMARK    4  A    between atoms: C5_9  and  C6_10
REMARK    5  A    between atoms: N4_13  and  C9_14
REMARK    6  A    between atoms: C13_18  and  C14_19
REMARK                            x       y       z     vdW  Elec       q    Type
REMARK                         _______ _______ _______ _____ _____    ______ ____
ROOT
ATOM      1  N2  UNL     1      20.134   0.388  24.701  0.00  0.00    -0.267 N 
ATOM      2  C4  UNL     1      18.778  -0.032  24.906  0.00  0.00    +0.304 C 
ATOM      3  O1  UNL     1      18.006   0.641  25.640  0.00  0.00    -0.253 OA
ATOM      4  N3  UNL     1      18.313  -1.246  24.296  0.00  0.00    -0.299 N 
ATOM      5  H5  UNL     1      20.794  -0.315  24.306  0.00  0.00    +0.156 HD
ATOM      6  H6  UNL     1      18.966  -1.777  23.677  0.00  0.00    +0.150 HD
ENDROOT
BRANCH   1  10
ATOM      7  C1  UNL     1      21.720   5.083  24.433  0.00  0.00    +0.172 C 
ATOM      8  N1  UNL     1      21.372   3.761  24.933  0.00  0.00    -0.272 N 
ATOM      9  C2  UNL     1      20.869   2.752  24.199  0.00  0.00    +0.131 A 
ATOM     10  C3  UNL     1      20.634   1.689  25.051  0.00  0.00    +0.076 A 
ATOM     11  C13 UNL     1      21.025   2.133  26.312  0.00  0.00    +0.087 A 
ATOM     12  N5  UNL     1      21.465   3.404  26.206  0.00  0.00    -0.174 NA
BRANCH  11  13
ATOM     13  C14 UNL     1      21.031   1.378  27.619  0.00  0.00    +0.041 C 
ATOM     14  C15 UNL     1      19.883   1.846  28.538  0.00  0.00    +0.010 C 
ATOM     15  C16 UNL     1      19.804   1.001  29.824  0.00  0.00    +0.001 C 
ATOM     16  C17 UNL     1      21.179   0.521  30.337  0.00  0.00    +0.000 C 
ATOM     17  C18 UNL     1      22.321   1.421  29.854  0.00  0.00    +0.001 C 
ATOM     18  C19 UNL     1      22.417   1.417  28.318  0.00  0.00    +0.010 C 
ENDBRANCH  11  13
ENDBRANCH   1  10
BRANCH   4  19
ATOM     19  C5  UNL     1      16.947  -1.747  24.449  0.00  0.00    +0.110 C 
BRANCH  19  20
ATOM     20  C6  UNL     1      16.181  -1.659  23.114  0.00  0.00    +0.021 C 
ATOM     21  C7  UNL     1      16.976  -0.931  22.034  0.00  0.00    +0.021 C 
ATOM     22  C8  UNL     1      16.445   0.502  22.031  0.00  0.00    +0.085 C 
ATOM     23  N4  UNL     1      15.353   0.579  23.012  0.00  0.00    -0.299 NA
ATOM     24  C12 UNL     1      14.931  -0.802  23.256  0.00  0.00    +0.089 C 
BRANCH  23  25
ATOM     25  C9  UNL     1      14.236   1.392  22.514  0.00  0.00    +0.057 C 
ATOM     26  C10 UNL     1      13.014   0.566  22.146  0.00  0.00    +0.020 C 
ATOM     27  C11 UNL     1      13.909   1.127  21.053  0.00  0.00    +0.020 C 
ENDBRANCH  23  25
ENDBRANCH  19  20
ENDBRANCH   4  19
TORSDOF 5
ENDMDL
MODEL 2
REMARK VINA RESULT:    -6.319      6.396     11.468
REMARK INTER + INTRA:          -9.245
REMARK INTER:                  -8.127
REMARK INTRA:                  -1.118
REMARK UNBOUND:                -1.079
REMARK  Name = /home/qwerty/github/datacon2025hack/step_04_hit_selection/docking/ligands/lig_215.pdb
REMARK  6 active torsions:
REMARK  status: ('A' for Active; 'I' for Inactive)
REMARK    1  A    between atoms: C1_1  and  N1_2
REMARK    2  A    between atoms: C3_4  and  N2_5
REMARK    3  A    between atoms: N3_8  and  C5_9
REMARK    4  A    between atoms: C5_9  and  C6_10
REMARK    5  A    between atoms: N4_13  and  C9_14
REMARK    6  A    between atoms: C13_18  and  C14_19
REMARK                            x       y       z     vdW  Elec       q    Type
REMARK                         _______ _______ _______ _____ _____    ______ ____
ROOT
ATOM      1  N2  UNL     1      22.548   3.117  33.007  0.00  0.00    -0.267 N 
ATOM      2  C4  UNL     1      22.765   4.511  32.748  0.00  0.00    +0.304 C 
ATOM      3  O1  UNL     1      21.991   5.145  31.981  0.00  0.00    -0.253 OA
ATOM      4  N3  UNL     1      23.891   5.174  33.342  0.00  0.00    -0.299 N 
ATOM      5  H5  UNL     1      23.337   2.584  33.431  0.00  0.00    +0.156 HD
ATOM      6  H6  UNL     1      24.508   4.633  33.989  0.00  0.00    +0.150 HD
ENDROOT
BRANCH   1  10
ATOM      7  C1  UNL     1      18.182   0.781  33.339  0.00  0.00    +0.172 C 
ATOM      8  N1  UNL     1      19.418   1.348  32.819  0.00  0.00    -0.272 N 
ATOM      9  C2  UNL     1      20.348   1.998  33.542  0.00  0.00    +0.131 A 
ATOM     10  C3  UNL     1      21.338   2.417  32.673  0.00  0.00    +0.076 A 
ATOM     11  C13 UNL     1      20.935   1.978  31.414  0.00  0.00    +0.087 A 
ATOM     12  N5  UNL     1      19.756   1.334  31.538  0.00  0.00    -0.174 NA
BRANCH  11  13
ATOM     13  C14 UNL     1      21.650   2.116  30.092  0.00  0.00    +0.041 C 
ATOM     14  C15 UNL     1      21.027   3.237  29.236  0.00  0.00    +0.010 C 
ATOM     15  C16 UNL     1      21.822   3.469  27.937  0.00  0.00    +0.001 C 
ATOM     16  C17 UNL     1      22.446   2.183  27.353  0.00  0.00    +0.000 C 
ATOM     17  C18 UNL     1      21.700   0.923  27.804  0.00  0.00    +0.001 C 
ATOM     18  C19 UNL     1      21.756   0.764  29.334  0.00  0.00    +0.010 C 
ENDBRANCH  11  13
ENDBRANCH   1  10
BRANCH   4  19
ATOM     19  C5  UNL     1      24.186   6.592  33.135  0.00  0.00    +0.110 C 
BRANCH  19  20
ATOM     20  C6  UNL     1      23.994   7.387  34.442  0.00  0.00    +0.021 C 
ATOM     21  C7  UNL     1      23.692   6.481  35.633  0.00  0.00    +0.021 C 
ATOM     22  C8  UNL     1      22.173   6.515  35.799  0.00  0.00    +0.085 C 
ATOM     23  N4  UNL     1      21.632   7.445  34.797  0.00  0.00    -0.299 NA
ATOM     24  C12 UNL     1      22.759   8.275  34.366  0.00  0.00    +0.089 C 
BRANCH  23  25
ATOM     25  C9  UNL     1      20.553   8.271  35.355  0.00  0.00    +0.057 C 
ATOM     26  C10 UNL     1      21.036   9.616  35.873  0.00  0.00    +0.020 C 
ATOM     27  C11 UNL     1      20.691   8.504  36.851  0.00  0.00    +0.020 C 
ENDBRANCH  23  25
ENDBRANCH  19  20
ENDBRANCH   4  19
TORSDOF 5
ENDMDL
MODEL 3
REMARK VINA RESULT:    -6.285      1.610      2.397
REMARK INTER + INTRA:          -9.201
REMARK INTER:                  -8.108
REMARK INTRA:                  -1.093
REMARK UNBOUND:                -1.079
REMARK  Name = /home/qwerty/github/datacon2025hack/step_04_hit_selection/docking/ligands/lig_215.pdb
REMARK  6 active torsions:
REMARK  status: ('A' for Active; 'I' for Inactive)
REMARK    1  A    between atoms: C1_1  and  N1_2
REMARK    2  A    between atoms: C3_4  and  N2_5
REMARK    3  A    between atoms: N3_8  and  C5_9
REMARK    4  A    between atoms: C5_9  and  C6_10
REMARK    5  A    between atoms: N4_13  and  C9_14
REMARK    6  A    between atoms: C13_18  and  C14_19
REMARK                            x       y       z     vdW  Elec       q    Type
REMARK                         _______ _______ _______ _____ _____    ______ ____
ROOT
ATOM      1  N2  UNL     1      19.981   0.491  25.359  0.00  0.00    -0.267 N 
ATOM      2  C4  UNL     1      18.963   0.591  24.355  0.00  0.00    +0.304 C 
ATOM      3  O1  UNL     1      18.522   1.719  24.002  0.00  0.00    -0.253 OA
ATOM      4  N3  UNL     1      18.421  -0.605  23.775  0.00  0.00    -0.299 N 
ATOM      5  H5  UNL     1      20.131  -0.444  25.793  0.00  0.00    +0.156 HD
ATOM      6  H6  UNL     1      18.815  -1.528  24.069  0.00  0.00    +0.150 HD
ENDROOT
BRANCH   1  10
ATOM      7  C1  UNL     1      22.838   4.547  25.498  0.00  0.00    +0.172 C 
ATOM      8  N1  UNL     1      22.058   3.384  25.894  0.00  0.00    -0.272 N 
ATOM      9  C2  UNL     1      21.420   2.546  25.057  0.00  0.00    +0.131 A 
ATOM     10  C3  UNL     1      20.761   1.605  25.826  0.00  0.00    +0.076 A 
ATOM     11  C13 UNL     1      21.050   1.940  27.147  0.00  0.00    +0.087 A 
ATOM     12  N5  UNL     1      21.839   3.034  27.152  0.00  0.00    -0.174 NA
BRANCH  11  13
ATOM     13  C14 UNL     1      20.631   1.233  28.413  0.00  0.00    +0.041 C 
ATOM     14  C15 UNL     1      19.368   1.878  29.019  0.00  0.00    +0.010 C 
ATOM     15  C16 UNL     1      18.861   1.093  30.244  0.00  0.00    +0.001 C 
ATOM     16  C17 UNL     1      19.989   0.452  31.082  0.00  0.00    +0.000 C 
ATOM     17  C18 UNL     1      21.326   1.176  30.898  0.00  0.00    +0.001 C 
ATOM     18  C19 UNL     1      21.796   1.111  29.434  0.00  0.00    +0.010 C 
ENDBRANCH  11  13
ENDBRANCH   1  10
BRANCH   4  19
ATOM     19  C5  UNL     1      17.383  -0.596  22.743  0.00  0.00    +0.110 C 
BRANCH  19  20
ATOM     20  C6  UNL     1      16.203  -1.501  23.149  0.00  0.00    +0.021 C 
ATOM     21  C7  UNL     1      14.857  -0.791  23.025  0.00  0.00    +0.021 C 
ATOM     22  C8  UNL     1      14.517  -0.308  24.434  0.00  0.00    +0.085 C 
ATOM     23  N4  UNL     1      15.580  -0.774  25.337  0.00  0.00    -0.299 NA
ATOM     24  C12 UNL     1      16.268  -1.855  24.628  0.00  0.00    +0.089 C 
BRANCH  23  25
ATOM     25  C9  UNL     1      15.033  -1.247  26.615  0.00  0.00    +0.057 C 
ATOM     26  C10 UNL     1      13.973  -2.323  26.450  0.00  0.00    +0.020 C 
ATOM     27  C11 UNL     1      13.564  -0.901  26.801  0.00  0.00    +0.020 C 
ENDBRANCH  23  25
ENDBRANCH  19  20
ENDBRANCH   4  19
TORSDOF 5
ENDMDL
MODEL 4
REMARK VINA RESULT:    -6.209      6.422     11.297
REMARK INTER + INTRA:          -9.102
REMARK INTER:                  -7.954
REMARK INTRA:                  -1.148
REMARK UNBOUND:                -1.079
REMARK  Name = /home/qwerty/github/datacon2025hack/step_04_hit_selection/docking/ligands/lig_215.pdb
REMARK  6 active torsions:
REMARK  status: ('A' for Active; 'I' for Inactive)
REMARK    1  A    between atoms: C1_1  and  N1_2
REMARK    2  A    between atoms: C3_4  and  N2_5
REMARK    3  A    between atoms: N3_8  and  C5_9
REMARK    4  A    between atoms: C5_9  and  C6_10
REMARK    5  A    between atoms: N4_13  and  C9_14
REMARK    6  A    between atoms: C13_18  and  C14_19
REMARK                            x       y       z     vdW  Elec       q    Type
REMARK                         _______ _______ _______ _____ _____    ______ ____
ROOT
ATOM      1  N2  UNL     1      22.087   3.294  32.805  0.00  0.00    -0.267 N 
ATOM      2  C4  UNL     1      21.701   4.258  33.794  0.00  0.00    +0.304 C 
ATOM      3  O1  UNL     1      20.482   4.479  34.029  0.00  0.00    -0.253 OA
ATOM      4  N3  UNL     1      22.714   4.997  34.494  0.00  0.00    -0.299 N 
ATOM      5  H5  UNL     1      23.073   3.326  32.469  0.00  0.00    +0.156 HD
ATOM      6  H6  UNL     1      23.717   4.783  34.296  0.00  0.00    +0.150 HD
ENDROOT
BRANCH   1  10
ATOM      7  C1  UNL     1      18.780  -0.365  32.249  0.00  0.00    +0.172 C 
ATOM      8  N1  UNL     1      19.748   0.686  31.971  0.00  0.00    -0.272 N 
ATOM      9  C2  UNL     1      20.402   1.414  32.894  0.00  0.00    +0.131 A 
ATOM     10  C3  UNL     1      21.188   2.333  32.225  0.00  0.00    +0.076 A 
ATOM     11  C13 UNL     1      20.956   2.101  30.872  0.00  0.00    +0.087 A 
ATOM     12  N5  UNL     1      20.067   1.094  30.752  0.00  0.00    -0.174 NA
BRANCH  11  13
ATOM     13  C14 UNL     1      21.579   2.782  29.677  0.00  0.00    +0.041 C 
ATOM     14  C15 UNL     1      20.555   3.676  28.949  0.00  0.00    +0.010 C 
ATOM     15  C16 UNL     1      21.208   4.469  27.801  0.00  0.00    +0.001 C 
ATOM     16  C17 UNL     1      22.348   3.708  27.089  0.00  0.00    +0.000 C 
ATOM     17  C18 UNL     1      22.213   2.190  27.247  0.00  0.00    +0.001 C 
ATOM     18  C19 UNL     1      22.286   1.777  28.727  0.00  0.00    +0.010 C 
ENDBRANCH  11  13
ENDBRANCH   1  10
BRANCH   4  19
ATOM     19  C5  UNL     1      22.411   5.996  35.519  0.00  0.00    +0.110 C 
BRANCH  19  20
ATOM     20  C6  UNL     1      23.311   7.237  35.355  0.00  0.00    +0.021 C 
ATOM     21  C7  UNL     1      22.504   8.519  35.169  0.00  0.00    +0.021 C 
ATOM     22  C8  UNL     1      22.478   8.771  33.662  0.00  0.00    +0.085 C 
ATOM     23  N4  UNL     1      23.285   7.724  33.017  0.00  0.00    -0.299 NA
ATOM     24  C12 UNL     1      24.126   7.156  34.072  0.00  0.00    +0.089 C 
BRANCH  23  25
ATOM     25  C9  UNL     1      24.105   8.269  31.927  0.00  0.00    +0.057 C 
ATOM     26  C10 UNL     1      25.193   9.213  32.411  0.00  0.00    +0.020 C 
ATOM     27  C11 UNL     1      23.942   9.770  31.750  0.00  0.00    +0.020 C 
ENDBRANCH  23  25
ENDBRANCH  19  20
ENDBRANCH   4  19
TORSDOF 5
ENDMDL
MODEL 5
REMARK VINA RESULT:    -6.154     14.543     16.916
REMARK INTER + INTRA:          -9.031
REMARK INTER:                  -7.907
REMARK INTRA:                  -1.124
REMARK UNBOUND:                -1.079
REMARK  Name = /home/qwerty/github/datacon2025hack/step_04_hit_selection/docking/ligands/lig_215.pdb
REMARK  6 active torsions:
REMARK  status: ('A' for Active; 'I' for Inactive)
REMARK    1  A    between atoms: C1_1  and  N1_2
REMARK    2  A    between atoms: C3_4  and  N2_5
REMARK    3  A    between atoms: N3_8  and  C5_9
REMARK    4  A    between atoms: C5_9  and  C6_10
REMARK    5  A    between atoms: N4_13  and  C9_14
REMARK    6  A    between atoms: C13_18  and  C14_19
REMARK                            x       y       z     vdW  Elec       q    Type
REMARK                         _______ _______ _______ _____ _____    ______ ____
ROOT
ATOM      1  N2  UNL     1      11.439  14.346  31.523  0.00  0.00    -0.267 N 
ATOM      2  C4  UNL     1      12.531  14.220  32.443  0.00  0.00    +0.304 C 
ATOM      3  O1  UNL     1      13.623  13.710  32.072  0.00  0.00    -0.253 OA
ATOM      4  N3  UNL     1      12.364  14.649  33.803  0.00  0.00    -0.299 N 
ATOM      5  H5  UNL     1      10.496  14.532  31.926  0.00  0.00    +0.156 HD
ATOM      6  H6  UNL     1      11.457  15.086  34.083  0.00  0.00    +0.150 HD
ENDROOT
BRANCH   1  10
ATOM      7  C1  UNL     1      12.864  14.889  26.800  0.00  0.00    +0.172 C 
ATOM      8  N1  UNL     1      12.166  14.444  27.998  0.00  0.00    -0.272 N 
ATOM      9  C2  UNL     1      12.397  14.884  29.248  0.00  0.00    +0.131 A 
ATOM     10  C3  UNL     1      11.564  14.183  30.100  0.00  0.00    +0.076 A 
ATOM     11  C13 UNL     1      10.842  13.318  29.282  0.00  0.00    +0.087 A 
ATOM     12  N5  UNL     1      11.239  13.499  28.005  0.00  0.00    -0.174 NA
BRANCH  11  13
ATOM     13  C14 UNL     1       9.755  12.343  29.664  0.00  0.00    +0.041 C 
ATOM     14  C15 UNL     1      10.333  10.937  29.923  0.00  0.00    +0.010 C 
ATOM     15  C16 UNL     1       9.253   9.963  30.430  0.00  0.00    +0.001 C 
ATOM     16  C17 UNL     1       7.852  10.223  29.835  0.00  0.00    +0.000 C 
ATOM     17  C18 UNL     1       7.924  10.954  28.491  0.00  0.00    +0.001 C 
ATOM     18  C19 UNL     1       8.582  12.336  28.645  0.00  0.00    +0.010 C 
ENDBRANCH  11  13
ENDBRANCH   1  10
BRANCH   4  19
ATOM     19  C5  UNL     1      13.425  14.561  34.807  0.00  0.00    +0.110 C 
BRANCH  19  20
ATOM     20  C6  UNL     1      12.914  13.858  36.081  0.00  0.00    +0.021 C 
ATOM     21  C7  UNL     1      13.910  12.835  36.619  0.00  0.00    +0.021 C 
ATOM     22  C8  UNL     1      13.428  11.481  36.100  0.00  0.00    +0.085 C 
ATOM     23  N4  UNL     1      12.180  11.704  35.356  0.00  0.00    -0.299 NA
ATOM     24  C12 UNL     1      11.683  13.013  35.784  0.00  0.00    +0.089 C 
BRANCH  23  25
ATOM     25  C9  UNL     1      11.193  10.651  35.630  0.00  0.00    +0.057 C 
ATOM     26  C10 UNL     1      11.040  10.346  37.111  0.00  0.00    +0.020 C 
ATOM     27  C11 UNL     1      11.810   9.391  36.213  0.00  0.00    +0.020 C 
ENDBRANCH  23  25
ENDBRANCH  19  20
ENDBRANCH   4  19
TORSDOF 5
ENDMDL
MODEL 6
REMARK VINA RESULT:    -6.148      7.052      9.931
REMARK INTER + INTRA:          -9.024
REMARK INTER:                  -7.572
REMARK INTRA:                  -1.452
REMARK UNBOUND:                -1.079
REMARK  Name = /home/qwerty/github/datacon2025hack/step_04_hit_selection/docking/ligands/lig_215.pdb
REMARK  6 active torsions:
REMARK  status: ('A' for Active; 'I' for Inactive)
REMARK    1  A    between atoms: C1_1  and  N1_2
REMARK    2  A    between atoms: C3_4  and  N2_5
REMARK    3  A    between atoms: N3_8  and  C5_9
REMARK    4  A    between atoms: C5_9  and  C6_10
REMARK    5  A    between atoms: N4_13  and  C9_14
REMARK    6  A    between atoms: C13_18  and  C14_19
REMARK                            x       y       z     vdW  Elec       q    Type
REMARK                         _______ _______ _______ _____ _____    ______ ____
ROOT
ATOM      1  N2  UNL     1      22.960   4.370  33.180  0.00  0.00    -0.267 N 
ATOM      2  C4  UNL     1      22.375   3.814  31.995  0.00  0.00    +0.304 C 
ATOM      3  O1  UNL     1      21.820   4.563  31.145  0.00  0.00    -0.253 OA
ATOM      4  N3  UNL     1      22.393   2.392  31.796  0.00  0.00    -0.299 N 
ATOM      5  H5  UNL     1      23.175   3.711  33.958  0.00  0.00    +0.156 HD
ATOM      6  H6  UNL     1      22.875   1.793  32.504  0.00  0.00    +0.150 HD
ENDROOT
BRANCH   1  10
ATOM      7  C1  UNL     1      24.820   8.948  32.722  0.00  0.00    +0.172 C 
ATOM      8  N1  UNL     1      24.064   7.797  33.193  0.00  0.00    -0.272 N 
ATOM      9  C2  UNL     1      24.112   6.559  32.670  0.00  0.00    +0.131 A 
ATOM     10  C3  UNL     1      23.216   5.772  33.368  0.00  0.00    +0.076 A 
ATOM     11  C13 UNL     1      22.648   6.615  34.320  0.00  0.00    +0.087 A 
ATOM     12  N5  UNL     1      23.183   7.845  34.182  0.00  0.00    -0.174 NA
BRANCH  11  13
ATOM     13  C14 UNL     1      21.634   6.285  35.388  0.00  0.00    +0.041 C 
ATOM     14  C15 UNL     1      20.196   6.526  34.885  0.00  0.00    +0.010 C 
ATOM     15  C16 UNL     1      19.148   6.080  35.923  0.00  0.00    +0.001 C 
ATOM     16  C17 UNL     1      19.596   6.286  37.386  0.00  0.00    +0.000 C 
ATOM     17  C18 UNL     1      20.663   7.378  37.514  0.00  0.00    +0.001 C 
ATOM     18  C19 UNL     1      21.934   7.007  36.730  0.00  0.00    +0.010 C 
ENDBRANCH  11  13
ENDBRANCH   1  10
BRANCH   4  19
ATOM     19  C5  UNL     1      21.823   1.741  30.616  0.00  0.00    +0.110 C 
BRANCH  19  20
ATOM     20  C6  UNL     1      20.737   0.727  31.024  0.00  0.00    +0.021 C 
ATOM     21  C7  UNL     1      19.406   0.987  30.322  0.00  0.00    +0.021 C 
ATOM     22  C8  UNL     1      18.560   1.769  31.325  0.00  0.00    +0.085 C 
ATOM     23  N4  UNL     1      19.337   1.895  32.567  0.00  0.00    -0.299 NA
ATOM     24  C12 UNL     1      20.380   0.870  32.497  0.00  0.00    +0.089 C 
BRANCH  23  25
ATOM     25  C9  UNL     1      18.492   1.708  33.754  0.00  0.00    +0.057 C 
ATOM     26  C10 UNL     1      17.861   2.999  34.248  0.00  0.00    +0.020 C 
ATOM     27  C11 UNL     1      19.041   2.396  34.993  0.00  0.00    +0.020 C 
ENDBRANCH  23  25
ENDBRANCH  19  20
ENDBRANCH   4  19
TORSDOF 5
ENDMDL
MODEL 7
REMARK VINA RESULT:    -6.098      6.381      9.260
REMARK INTER + INTRA:          -8.959
REMARK INTER:                  -8.011
REMARK INTRA:                  -0.948
REMARK UNBOUND:                -1.079
REMARK  Name = /home/qwerty/github/datacon2025hack/step_04_hit_selection/docking/ligands/lig_215.pdb
REMARK  6 active torsions:
REMARK  status: ('A' for Active; 'I' for Inactive)
REMARK    1  A    between atoms: C1_1  and  N1_2
REMARK    2  A    between atoms: C3_4  and  N2_5
REMARK    3  A    between atoms: N3_8  and  C5_9
REMARK    4  A    between atoms: C5_9  and  C6_10
REMARK    5  A    between atoms: N4_13  and  C9_14
REMARK    6  A    between atoms: C13_18  and  C14_19
REMARK                            x       y       z     vdW  Elec       q    Type
REMARK                         _______ _______ _______ _____ _____    ______ ____
ROOT
ATOM      1  N2  UNL     1      23.380   4.559  33.178  0.00  0.00    -0.267 N 
ATOM      2  C4  UNL     1      22.186   3.977  32.637  0.00  0.00    +0.304 C 
ATOM      3  O1  UNL     1      21.162   4.687  32.443  0.00  0.00    -0.253 OA
ATOM      4  N3  UNL     1      22.152   2.572  32.347  0.00  0.00    -0.299 N 
ATOM      5  H5  UNL     1      24.100   3.905  33.552  0.00  0.00    +0.156 HD
ATOM      6  H6  UNL     1      23.019   2.008  32.497  0.00  0.00    +0.150 HD
ENDROOT
BRANCH   1  10
ATOM      7  C1  UNL     1      25.133   9.136  32.399  0.00  0.00    +0.172 C 
ATOM      8  N1  UNL     1      24.412   8.002  32.958  0.00  0.00    -0.272 N 
ATOM      9  C2  UNL     1      24.474   6.735  32.508  0.00  0.00    +0.131 A 
ATOM     10  C3  UNL     1      23.612   5.974  33.275  0.00  0.00    +0.076 A 
ATOM     11  C13 UNL     1      23.049   6.862  34.189  0.00  0.00    +0.087 A 
ATOM     12  N5  UNL     1      23.555   8.092  33.964  0.00  0.00    -0.174 NA
BRANCH  11  13
ATOM     13  C14 UNL     1      22.068   6.578  35.301  0.00  0.00    +0.041 C 
ATOM     14  C15 UNL     1      20.805   7.451  35.166  0.00  0.00    +0.010 C 
ATOM     15  C16 UNL     1      19.746   7.085  36.223  0.00  0.00    +0.001 C 
ATOM     16  C17 UNL     1      20.345   6.639  37.574  0.00  0.00    +0.000 C 
ATOM     17  C18 UNL     1      21.758   7.189  37.788  0.00  0.00    +0.001 C 
ATOM     18  C19 UNL     1      22.723   6.676  36.706  0.00  0.00    +0.010 C 
ENDBRANCH  11  13
ENDBRANCH   1  10
BRANCH   4  19
ATOM     19  C5  UNL     1      20.979   1.897  31.791  0.00  0.00    +0.110 C 
BRANCH  19  20
ATOM     20  C6  UNL     1      21.370   1.038  30.571  0.00  0.00    +0.021 C 
ATOM     21  C7  UNL     1      22.654   1.526  29.905  0.00  0.00    +0.021 C 
ATOM     22  C8  UNL     1      22.202   2.379  28.720  0.00  0.00    +0.085 C 
ATOM     23  N4  UNL     1      20.734   2.331  28.666  0.00  0.00    -0.299 NA
ATOM     24  C12 UNL     1      20.338   1.165  29.459  0.00  0.00    +0.089 C 
BRANCH  23  25
ATOM     25  C9  UNL     1      20.248   2.217  27.284  0.00  0.00    +0.057 C 
ATOM     26  C10 UNL     1      20.637   0.907  26.620  0.00  0.00    +0.020 C 
ATOM     27  C11 UNL     1      21.368   2.190  26.258  0.00  0.00    +0.020 C 
ENDBRANCH  23  25
ENDBRANCH  19  20
ENDBRANCH   4  19
TORSDOF 5
ENDMDL
MODEL 8
REMARK VINA RESULT:    -6.055      4.855      8.490
REMARK INTER + INTRA:          -8.904
REMARK INTER:                  -7.502
REMARK INTRA:                  -1.402
REMARK UNBOUND:                -1.079
REMARK  Name = /home/qwerty/github/datacon2025hack/step_04_hit_selection/docking/ligands/lig_215.pdb
REMARK  6 active torsions:
REMARK  status: ('A' for Active; 'I' for Inactive)
REMARK    1  A    between atoms: C1_1  and  N1_2
REMARK    2  A    between atoms: C3_4  and  N2_5
REMARK    3  A    between atoms: N3_8  and  C5_9
REMARK    4  A    between atoms: C5_9  and  C6_10
REMARK    5  A    between atoms: N4_13  and  C9_14
REMARK    6  A    between atoms: C13_18  and  C14_19
REMARK                            x       y       z     vdW  Elec       q    Type
REMARK                         _______ _______ _______ _____ _____    ______ ____
ROOT
ATOM      1  N2  UNL     1      11.713   0.905  23.162  0.00  0.00    -0.267 N 
ATOM      2  C4  UNL     1      12.436   1.020  24.395  0.00  0.00    +0.304 C 
ATOM      3  O1  UNL     1      13.039   2.089  24.684  0.00  0.00    -0.253 OA
ATOM      4  N3  UNL     1      12.498  -0.103  25.287  0.00  0.00    -0.299 N 
ATOM      5  H5  UNL     1      11.451  -0.055  22.853  0.00  0.00    +0.156 HD
ATOM      6  H6  UNL     1      11.975  -0.973  25.035  0.00  0.00    +0.150 HD
ENDROOT
BRANCH   1  10
ATOM      7  C1  UNL     1       9.200   4.486  20.818  0.00  0.00    +0.172 C 
ATOM      8  N1  UNL     1      10.262   3.588  21.249  0.00  0.00    -0.272 N 
ATOM      9  C2  UNL     1      10.137   2.605  22.159  0.00  0.00    +0.131 A 
ATOM     10  C3  UNL     1      11.379   2.020  22.319  0.00  0.00    +0.076 A 
ATOM     11  C13 UNL     1      12.227   2.713  21.458  0.00  0.00    +0.087 A 
ATOM     12  N5  UNL     1      11.515   3.667  20.825  0.00  0.00    -0.174 NA
BRANCH  11  13
ATOM     13  C14 UNL     1      13.693   2.478  21.185  0.00  0.00    +0.041 C 
ATOM     14  C15 UNL     1      14.222   3.447  20.108  0.00  0.00    +0.010 C 
ATOM     15  C16 UNL     1      15.742   3.299  19.908  0.00  0.00    +0.001 C 
ATOM     16  C17 UNL     1      16.256   1.855  20.096  0.00  0.00    +0.000 C 
ATOM     17  C18 UNL     1      15.156   0.816  19.859  0.00  0.00    +0.001 C 
ATOM     18  C19 UNL     1      14.003   0.990  20.864  0.00  0.00    +0.010 C 
ENDBRANCH  11  13
ENDBRANCH   1  10
BRANCH   4  19
ATOM     19  C5  UNL     1      13.209  -0.073  26.565  0.00  0.00    +0.110 C 
BRANCH  19  20
ATOM     20  C6  UNL     1      14.374  -1.083  26.566  0.00  0.00    +0.021 C 
ATOM     21  C7  UNL     1      15.736  -0.400  26.655  0.00  0.00    +0.021 C 
ATOM     22  C8  UNL     1      16.255  -0.332  25.220  0.00  0.00    +0.085 C 
ATOM     23  N4  UNL     1      15.274  -1.003  24.355  0.00  0.00    -0.299 NA
ATOM     24  C12 UNL     1      14.452  -1.829  25.241  0.00  0.00    +0.089 C 
BRANCH  23  25
ATOM     25  C9  UNL     1      15.930  -1.823  23.328  0.00  0.00    +0.057 C 
ATOM     26  C10 UNL     1      17.298  -2.330  23.753  0.00  0.00    +0.020 C 
ATOM     27  C11 UNL     1      17.187  -1.181  22.764  0.00  0.00    +0.020 C 
ENDBRANCH  23  25
ENDBRANCH  19  20
ENDBRANCH   4  19
TORSDOF 5
ENDMDL
MODEL 9
REMARK VINA RESULT:    -5.982      6.526      9.683
REMARK INTER + INTRA:          -8.810
REMARK INTER:                  -7.709
REMARK INTRA:                  -1.101
REMARK UNBOUND:                -1.079
REMARK  Name = /home/qwerty/github/datacon2025hack/step_04_hit_selection/docking/ligands/lig_215.pdb
REMARK  6 active torsions:
REMARK  status: ('A' for Active; 'I' for Inactive)
REMARK    1  A    between atoms: C1_1  and  N1_2
REMARK    2  A    between atoms: C3_4  and  N2_5
REMARK    3  A    between atoms: N3_8  and  C5_9
REMARK    4  A    between atoms: C5_9  and  C6_10
REMARK    5  A    between atoms: N4_13  and  C9_14
REMARK    6  A    between atoms: C13_18  and  C14_19
REMARK                            x       y       z     vdW  Elec       q    Type
REMARK                         _______ _______ _______ _____ _____    ______ ____
ROOT
ATOM      1  N2  UNL     1      22.550   5.640  32.745  0.00  0.00    -0.267 N 
ATOM      2  C4  UNL     1      21.223   5.119  32.590  0.00  0.00    +0.304 C 
ATOM      3  O1  UNL     1      20.233   5.898  32.551  0.00  0.00    -0.253 OA
ATOM      4  N3  UNL     1      21.024   3.700  32.512  0.00  0.00    -0.299 N 
ATOM      5  H5  UNL     1      23.296   4.966  33.022  0.00  0.00    +0.156 HD
ATOM      6  H6  UNL     1      21.862   3.075  32.528  0.00  0.00    +0.150 HD
ENDROOT
BRANCH   1  10
ATOM      7  C1  UNL     1      23.958   9.980  30.792  0.00  0.00    +0.172 C 
ATOM      8  N1  UNL     1      23.552   8.948  31.735  0.00  0.00    -0.272 N 
ATOM      9  C2  UNL     1      23.290   7.664  31.428  0.00  0.00    +0.131 A 
ATOM     10  C3  UNL     1      22.893   7.027  32.588  0.00  0.00    +0.076 A 
ATOM     11  C13 UNL     1      22.938   8.004  33.580  0.00  0.00    +0.087 A 
ATOM     12  N5  UNL     1      23.338   9.166  33.024  0.00  0.00    -0.174 NA
BRANCH  11  13
ATOM     13  C14 UNL     1      22.648   7.866  35.055  0.00  0.00    +0.041 C 
ATOM     14  C15 UNL     1      23.487   6.736  35.685  0.00  0.00    +0.010 C 
ATOM     15  C16 UNL     1      23.289   6.665  37.211  0.00  0.00    +0.001 C 
ATOM     16  C17 UNL     1      21.864   7.040  37.671  0.00  0.00    +0.000 C 
ATOM     17  C18 UNL     1      20.827   6.832  36.563  0.00  0.00    +0.001 C 
ATOM     18  C19 UNL     1      21.129   7.725  35.347  0.00  0.00    +0.010 C 
ENDBRANCH  11  13
ENDBRANCH   1  10
BRANCH   4  19
ATOM     19  C5  UNL     1      19.707   3.083  32.351  0.00  0.00    +0.110 C 
BRANCH  19  20
ATOM     20  C6  UNL     1      19.559   2.472  30.944  0.00  0.00    +0.021 C 
ATOM     21  C7  UNL     1      19.304   0.967  30.988  0.00  0.00    +0.021 C 
ATOM     22  C8  UNL     1      20.664   0.314  30.748  0.00  0.00    +0.085 C 
ATOM     23  N4  UNL     1      21.642   1.386  30.511  0.00  0.00    -0.299 NA
ATOM     24  C12 UNL     1      20.861   2.575  30.163  0.00  0.00    +0.089 C 
BRANCH  23  25
ATOM     25  C9  UNL     1      22.577   1.035  29.433  0.00  0.00    +0.057 C 
ATOM     26  C10 UNL     1      21.879   0.614  28.151  0.00  0.00    +0.020 C 
ATOM     27  C11 UNL     1      22.520  -0.434  29.048  0.00  0.00    +0.020 C 
ENDBRANCH  23  25
ENDBRANCH  19  20
ENDBRANCH   4  19
TORSDOF 5
ENDMDL
