REMARK  Name = /home/qwerty/github/datacon2025hack/step_04_hit_selection/docking/ligands/lig_25.pdb
REMARK  12 active torsions:
REMARK  status: ('A' for Active; 'I' for Inactive)
REMARK    1  A    between atoms: C1_1  and  O1_2
REMARK    2  A    between atoms: O1_2  and  C2_3
REMARK    3  A    between atoms: C5_6  and  C6_7
REMARK    4  A    between atoms: C6_7  and  C7_8
REMARK    5  A    between atoms: C7_8  and  C8_9
REMARK    6  A    between atoms: C7_8  and  C9_11
REMARK    7  A    between atoms: C8_9  and  O2_10
REMARK    8  A    between atoms: C9_11  and  N1_12
REMARK    9  A    between atoms: N2_15  and  C11_16
REMARK   10  A    between atoms: C14_19  and  O4_20
REMARK   11  A    between atoms: O4_20  and  C15_21
REMARK   12  A    between atoms: C23_29  and  O5_30
REMARK                            x       y       z     vdW  Elec       q    Type
REMARK                         _______ _______ _______ _____ _____    ______ ____
ROOT
ATOM      1  N1  UNL     1      -1.457  -0.002   0.940  0.00  0.00    -0.299 N 
ATOM      2  C10 UNL     1      -0.066   0.007   0.592  0.00  0.00    +0.304 C 
ATOM      3  O3  UNL     1       0.473   1.068   0.173  0.00  0.00    -0.253 OA
ATOM      4  N2  UNL     1       0.696  -1.205   0.690  0.00  0.00    -0.269 N 
ATOM      5  H14 UNL     1      -1.858  -0.864   1.373  0.00  0.00    +0.150 HD
ATOM      6  H15 UNL     1       0.167  -2.103   0.770  0.00  0.00    +0.156 HD
ENDROOT
BRANCH   4   7
ATOM      7  C11 UNL     1       2.127  -1.273   0.564  0.00  0.00    +0.035 A 
ATOM      8  C12 UNL     1       2.956  -0.246   1.047  0.00  0.00    +0.027 A 
ATOM      9  C13 UNL     1       4.346  -0.345   0.934  0.00  0.00    +0.047 A 
ATOM     10  C14 UNL     1       4.932  -1.483   0.345  0.00  0.00    +0.121 A 
ATOM     11  C20 UNL     1       4.104  -2.514  -0.111  0.00  0.00    +0.047 A 
ATOM     12  C21 UNL     1       2.715  -2.415   0.002  0.00  0.00    +0.027 A 
BRANCH  10  13
ATOM     13  O4  UNL     1       6.320  -1.636   0.204  0.00  0.00    -0.489 OA
BRANCH  13  14
ATOM     14  C15 UNL     1       7.298  -0.641   0.518  0.00  0.00    +0.173 C 
ATOM     15  C16 UNL     1       8.692  -1.236   0.439  0.00  0.00    +0.044 C 
ATOM     16  C17 UNL     1       9.605  -0.071   0.102  0.00  0.00    +0.004 C 
ATOM     17  C18 UNL     1       8.749   0.933  -0.664  0.00  0.00    +0.004 C 
ATOM     18  C19 UNL     1       7.295   0.494  -0.503  0.00  0.00    +0.044 C 
ENDBRANCH  13  14
ENDBRANCH  10  13
ENDBRANCH   4   7
BRANCH   1  19
ATOM     19  C9  UNL     1      -2.315   1.176   0.807  0.00  0.00    +0.111 C 
BRANCH  19  20
ATOM     20  C7  UNL     1      -2.655   1.459  -0.674  0.00  0.00    +0.036 C 
BRANCH  20  21
ATOM     21  C6  UNL     1      -3.411   0.294  -1.364  0.00  0.00    +0.042 C 
BRANCH  21  25
ATOM     22  C2  UNL     1      -7.400  -0.420   0.169  0.00  0.00    +0.161 A 
ATOM     23  C3  UNL     1      -7.197   0.446  -0.922  0.00  0.00    +0.049 A 
ATOM     24  C4  UNL     1      -5.910   0.671  -1.417  0.00  0.00    +0.007 A 
ATOM     25  C5  UNL     1      -4.802   0.043  -0.829  0.00  0.00    -0.043 A 
ATOM     26  C22 UNL     1      -5.004  -0.830   0.250  0.00  0.00    +0.052 A 
ATOM     27  C23 UNL     1      -6.290  -1.061   0.751  0.00  0.00    +0.159 A 
BRANCH  22  29
ATOM     28  C1  UNL     1      -9.881  -0.089   0.196  0.00  0.00    +0.277 C 
ATOM     29  O1  UNL     1      -8.679  -0.668   0.694  0.00  0.00    -0.491 OA
ENDBRANCH  22  29
BRANCH  27  30
ATOM     30  O5  UNL     1      -6.446  -1.932   1.829  0.00  0.00    -0.503 OA
ATOM     31  H30 UNL     1      -7.352  -2.137   2.232  0.00  0.00    +0.292 HD
ENDBRANCH  27  30
ENDBRANCH  21  25
ENDBRANCH  20  21
BRANCH  20  32
ATOM     32  C8  UNL     1      -3.369   2.816  -0.835  0.00  0.00    +0.161 C 
BRANCH  32  33
ATOM     33  O2  UNL     1      -4.489   2.901   0.004  0.00  0.00    -0.395 OA
ATOM     34  H11 UNL     1      -4.898   3.788  -0.170  0.00  0.00    +0.209 HD
ENDBRANCH  32  33
ENDBRANCH  20  32
ENDBRANCH  19  20
ENDBRANCH   1  19
TORSDOF 11
