MODEL 1
REMARK VINA RESULT:    -6.323      0.000      0.000
REMARK INTER + INTRA:          -9.032
REMARK INTER:                  -8.172
REMARK INTRA:                  -0.861
REMARK UNBOUND:                -0.861
REMARK  Name = /home/qwerty/github/datacon2025hack/step_04_hit_selection/docking/ligands/lig_697.pdb
REMARK  7 active torsions:
REMARK  status: ('A' for Active; 'I' for Inactive)
REMARK    1  A    between atoms: C1_1  and  C2_2
REMARK    2  A    between atoms: C2_2  and  C3_3
REMARK    3  A    between atoms: C2_2  and  C4_4
REMARK    4  A    between atoms: C6_6  and  C7_7
REMARK    5  A    between atoms: C10_12  and  C11_13
REMARK    6  A    between atoms: C11_13  and  N2_14
REMARK    7  A    between atoms: C12_15  and  C13_17
REMARK                            x       y       z     vdW  Elec       q    Type
REMARK                         _______ _______ _______ _____ _____    ______ ____
ROOT
ATOM      1  C7  UNL     1      18.324   0.902  24.064  0.00  0.00    +0.267 C 
ATOM      2  O1  UNL     1      17.573   1.618  23.351  0.00  0.00    -0.268 OA
ATOM      3  N1  UNL     1      17.935  -0.447  24.343  0.00  0.00    -0.292 N 
ATOM      4  C8  UNL     1      18.394  -1.608  25.130  0.00  0.00    +0.110 C 
ATOM      5  C9  UNL     1      17.247  -2.502  24.793  0.00  0.00    +0.043 C 
ATOM      6  C10 UNL     1      16.792  -1.316  23.996  0.00  0.00    +0.095 C 
ENDROOT
BRANCH   1   9
ATOM      7  C4  UNL     1      21.231   2.146  25.842  0.00  0.00    +0.039 A 
ATOM      8  C5  UNL     1      20.019   1.492  25.899  0.00  0.00    +0.057 A 
ATOM      9  C6  UNL     1      19.575   1.482  24.586  0.00  0.00    +0.147 A 
ATOM     10  N4  UNL     1      20.480   2.101  23.799  0.00  0.00    -0.169 NA
ATOM     11  N5  UNL     1      21.480   2.500  24.566  0.00  0.00    -0.281 N 
ATOM     12  H23 UNL     1      22.320   3.010  24.214  0.00  0.00    +0.189 HD
BRANCH   7  14
ATOM     13  C1  UNL     1      21.976   1.356  28.089  0.00  0.00    +0.014 C 
ATOM     14  C2  UNL     1      22.141   2.429  27.007  0.00  0.00    +0.031 C 
ATOM     15  C3  UNL     1      21.871   3.826  27.574  0.00  0.00    +0.014 C 
ENDBRANCH   7  14
ENDBRANCH   1   9
BRANCH   6  16
ATOM     16  C11 UNL     1      16.729  -1.571  22.480  0.00  0.00    +0.126 C 
BRANCH  16  17
ATOM     17  N2  UNL     1      15.859  -0.599  21.819  0.00  0.00    -0.312 N 
ATOM     18  C12 UNL     1      16.057  -0.229  20.449  0.00  0.00    +0.233 C 
ATOM     19  O2  UNL     1      16.982  -0.764  19.776  0.00  0.00    -0.274 OA
ATOM     20  H16 UNL     1      15.068  -0.164  22.347  0.00  0.00    +0.149 HD
BRANCH  18  21
ATOM     21  C13 UNL     1      15.123   0.749  19.792  0.00  0.00    +0.159 C 
ATOM     22  C14 UNL     1      15.622   2.208  19.939  0.00  0.00    +0.041 C 
ATOM     23  C15 UNL     1      14.449   3.032  20.498  0.00  0.00    +0.098 C 
ATOM     24  C16 UNL     1      13.427   2.011  20.795  0.00  0.00    +0.214 C 
ATOM     25  O3  UNL     1      12.310   2.265  21.318  0.00  0.00    -0.276 OA
ATOM     26  N3  UNL     1      13.813   0.710  20.415  0.00  0.00    -0.304 N 
ATOM     27  H22 UNL     1      13.202  -0.135  20.477  0.00  0.00    +0.149 HD
ENDBRANCH  18  21
ENDBRANCH  16  17
ENDBRANCH   6  16
TORSDOF 5
ENDMDL
MODEL 2
REMARK VINA RESULT:    -6.170      9.207     14.008
REMARK INTER + INTRA:          -8.834
REMARK INTER:                  -7.884
REMARK INTRA:                  -0.950
REMARK UNBOUND:                -0.861
REMARK  Name = /home/qwerty/github/datacon2025hack/step_04_hit_selection/docking/ligands/lig_697.pdb
REMARK  7 active torsions:
REMARK  status: ('A' for Active; 'I' for Inactive)
REMARK    1  A    between atoms: C1_1  and  C2_2
REMARK    2  A    between atoms: C2_2  and  C3_3
REMARK    3  A    between atoms: C2_2  and  C4_4
REMARK    4  A    between atoms: C6_6  and  C7_7
REMARK    5  A    between atoms: C10_12  and  C11_13
REMARK    6  A    between atoms: C11_13  and  N2_14
REMARK    7  A    between atoms: C12_15  and  C13_17
REMARK                            x       y       z     vdW  Elec       q    Type
REMARK                         _______ _______ _______ _____ _____    ______ ____
ROOT
ATOM      1  C7  UNL     1      21.791   5.562  32.689  0.00  0.00    +0.267 C 
ATOM      2  O1  UNL     1      21.112   5.557  33.750  0.00  0.00    -0.268 OA
ATOM      3  N1  UNL     1      22.429   6.776  32.281  0.00  0.00    -0.292 N 
ATOM      4  C8  UNL     1      23.231   7.301  31.158  0.00  0.00    +0.110 C 
ATOM      5  C9  UNL     1      23.336   8.700  31.669  0.00  0.00    +0.043 C 
ATOM      6  C10 UNL     1      22.523   8.154  32.804  0.00  0.00    +0.095 C 
ENDROOT
BRANCH   1   9
ATOM      7  C4  UNL     1      21.753   2.759  30.387  0.00  0.00    +0.039 A 
ATOM      8  C5  UNL     1      21.349   4.048  30.664  0.00  0.00    +0.057 A 
ATOM      9  C6  UNL     1      21.900   4.317  31.908  0.00  0.00    +0.147 A 
ATOM     10  N4  UNL     1      22.590   3.239  32.338  0.00  0.00    -0.169 NA
ATOM     11  N5  UNL     1      22.496   2.300  31.412  0.00  0.00    -0.281 N 
ATOM     12  H23 UNL     1      22.937   1.358  31.488  0.00  0.00    +0.189 HD
BRANCH   7  14
ATOM     13  C1  UNL     1      21.517   0.472  29.416  0.00  0.00    +0.014 C 
ATOM     14  C2  UNL     1      21.423   1.976  29.144  0.00  0.00    +0.031 C 
ATOM     15  C3  UNL     1      22.343   2.385  27.990  0.00  0.00    +0.014 C 
ENDBRANCH   7  14
ENDBRANCH   1   9
BRANCH   6  16
ATOM     16  C11 UNL     1      23.249   8.185  34.161  0.00  0.00    +0.126 C 
BRANCH  16  17
ATOM     17  N2  UNL     1      22.294   8.246  35.267  0.00  0.00    -0.312 N 
ATOM     18  C12 UNL     1      22.393   7.361  36.389  0.00  0.00    +0.233 C 
ATOM     19  O2  UNL     1      23.333   6.520  36.453  0.00  0.00    -0.274 OA
ATOM     20  H16 UNL     1      21.524   8.954  35.252  0.00  0.00    +0.149 HD
BRANCH  18  21
ATOM     21  C13 UNL     1      21.413   7.475  37.525  0.00  0.00    +0.159 C 
ATOM     22  C14 UNL     1      20.149   6.613  37.282  0.00  0.00    +0.041 C 
ATOM     23  C15 UNL     1      18.931   7.528  37.491  0.00  0.00    +0.098 C 
ATOM     24  C16 UNL     1      19.535   8.863  37.667  0.00  0.00    +0.214 C 
ATOM     25  O3  UNL     1      18.869   9.921  37.822  0.00  0.00    -0.276 OA
ATOM     26  N3  UNL     1      20.944   8.841  37.666  0.00  0.00    -0.304 N 
ATOM     27  H22 UNL     1      21.553   9.670  37.847  0.00  0.00    +0.149 HD
ENDBRANCH  18  21
ENDBRANCH  16  17
ENDBRANCH   6  16
TORSDOF 5
ENDMDL
MODEL 3
REMARK VINA RESULT:    -6.147     14.589     16.214
REMARK INTER + INTRA:          -8.804
REMARK INTER:                  -8.112
REMARK INTRA:                  -0.691
REMARK UNBOUND:                -0.861
REMARK  Name = /home/qwerty/github/datacon2025hack/step_04_hit_selection/docking/ligands/lig_697.pdb
REMARK  7 active torsions:
REMARK  status: ('A' for Active; 'I' for Inactive)
REMARK    1  A    between atoms: C1_1  and  C2_2
REMARK    2  A    between atoms: C2_2  and  C3_3
REMARK    3  A    between atoms: C2_2  and  C4_4
REMARK    4  A    between atoms: C6_6  and  C7_7
REMARK    5  A    between atoms: C10_12  and  C11_13
REMARK    6  A    between atoms: C11_13  and  N2_14
REMARK    7  A    between atoms: C12_15  and  C13_17
REMARK                            x       y       z     vdW  Elec       q    Type
REMARK                         _______ _______ _______ _____ _____    ______ ____
ROOT
ATOM      1  C7  UNL     1      20.625   8.759  36.294  0.00  0.00    +0.267 C 
ATOM      2  O1  UNL     1      20.397   9.997  36.334  0.00  0.00    -0.268 OA
ATOM      3  N1  UNL     1      19.696   7.863  36.912  0.00  0.00    -0.292 N 
ATOM      4  C8  UNL     1      19.540   6.421  37.188  0.00  0.00    +0.110 C 
ATOM      5  C9  UNL     1      18.256   6.534  37.941  0.00  0.00    +0.043 C 
ATOM      6  C10 UNL     1      18.425   7.996  37.652  0.00  0.00    +0.095 C 
ENDROOT
BRANCH   1   9
ATOM      7  C4  UNL     1      23.423   7.841  34.175  0.00  0.00    +0.039 A 
ATOM      8  C5  UNL     1      22.209   8.484  34.293  0.00  0.00    +0.057 A 
ATOM      9  C6  UNL     1      21.843   8.281  35.614  0.00  0.00    +0.147 A 
ATOM     10  N4  UNL     1      22.794   7.555  36.240  0.00  0.00    -0.169 NA
ATOM     11  N5  UNL     1      23.747   7.292  35.362  0.00  0.00    -0.281 N 
ATOM     12  H23 UNL     1      24.607   6.742  35.579  0.00  0.00    +0.189 HD
BRANCH   7  14
ATOM     13  C1  UNL     1      25.269   6.605  33.036  0.00  0.00    +0.014 C 
ATOM     14  C2  UNL     1      24.262   7.755  32.929  0.00  0.00    +0.031 C 
ATOM     15  C3  UNL     1      24.975   9.085  32.667  0.00  0.00    +0.014 C 
ENDBRANCH   7  14
ENDBRANCH   1   9
BRANCH   6  16
ATOM     16  C11 UNL     1      17.320   8.585  36.758  0.00  0.00    +0.126 C 
BRANCH  16  17
ATOM     17  N2  UNL     1      16.656   9.711  37.414  0.00  0.00    -0.312 N 
ATOM     18  C12 UNL     1      16.662  11.022  36.837  0.00  0.00    +0.233 C 
ATOM     19  O2  UNL     1      17.226  11.223  35.725  0.00  0.00    -0.274 OA
ATOM     20  H16 UNL     1      16.157   9.564  38.322  0.00  0.00    +0.149 HD
BRANCH  18  21
ATOM     21  C13 UNL     1      15.941  12.149  37.524  0.00  0.00    +0.159 C 
ATOM     22  C14 UNL     1      14.460  12.241  37.077  0.00  0.00    +0.041 C 
ATOM     23  C15 UNL     1      14.205  13.697  36.654  0.00  0.00    +0.098 C 
ATOM     24  C16 UNL     1      15.546  14.308  36.713  0.00  0.00    +0.214 C 
ATOM     25  O3  UNL     1      15.790  15.501  36.392  0.00  0.00    -0.276 OA
ATOM     26  N3  UNL     1      16.539  13.427  37.186  0.00  0.00    -0.304 N 
ATOM     27  H22 UNL     1      17.534  13.692  37.367  0.00  0.00    +0.149 HD
ENDBRANCH  18  21
ENDBRANCH  16  17
ENDBRANCH   6  16
TORSDOF 5
ENDMDL
MODEL 4
REMARK VINA RESULT:    -6.123     11.193     13.410
REMARK INTER + INTRA:          -8.773
REMARK INTER:                  -8.060
REMARK INTRA:                  -0.713
REMARK UNBOUND:                -0.861
REMARK  Name = /home/qwerty/github/datacon2025hack/step_04_hit_selection/docking/ligands/lig_697.pdb
REMARK  7 active torsions:
REMARK  status: ('A' for Active; 'I' for Inactive)
REMARK    1  A    between atoms: C1_1  and  C2_2
REMARK    2  A    between atoms: C2_2  and  C3_3
REMARK    3  A    between atoms: C2_2  and  C4_4
REMARK    4  A    between atoms: C6_6  and  C7_7
REMARK    5  A    between atoms: C10_12  and  C11_13
REMARK    6  A    between atoms: C11_13  and  N2_14
REMARK    7  A    between atoms: C12_15  and  C13_17
REMARK                            x       y       z     vdW  Elec       q    Type
REMARK                         _______ _______ _______ _____ _____    ______ ____
ROOT
ATOM      1  C7  UNL     1       7.794   9.205  26.545  0.00  0.00    +0.267 C 
ATOM      2  O1  UNL     1       7.561   9.560  25.360  0.00  0.00    -0.268 OA
ATOM      3  N1  UNL     1       8.039   7.822  26.818  0.00  0.00    -0.292 N 
ATOM      4  C8  UNL     1       8.281   6.931  27.970  0.00  0.00    +0.110 C 
ATOM      5  C9  UNL     1       8.348   5.662  27.187  0.00  0.00    +0.043 C 
ATOM      6  C10 UNL     1       8.103   6.578  26.025  0.00  0.00    +0.095 C 
ENDROOT
BRANCH   1   9
ATOM      7  C4  UNL     1       8.040  12.054  28.778  0.00  0.00    +0.039 A 
ATOM      8  C5  UNL     1       8.273  11.530  27.524  0.00  0.00    +0.057 A 
ATOM      9  C6  UNL     1       7.801  10.229  27.606  0.00  0.00    +0.147 A 
ATOM     10  N4  UNL     1       7.317  10.002  28.846  0.00  0.00    -0.169 NA
ATOM     11  N5  UNL     1       7.466  11.112  29.549  0.00  0.00    -0.281 N 
ATOM     12  H23 UNL     1       7.176  11.215  30.546  0.00  0.00    +0.189 HD
BRANCH   7  14
ATOM     13  C1  UNL     1       9.646  13.455  30.077  0.00  0.00    +0.014 C 
ATOM     14  C2  UNL     1       8.371  13.452  29.227  0.00  0.00    +0.031 C 
ATOM     15  C3  UNL     1       7.196  14.062  29.997  0.00  0.00    +0.014 C 
ENDBRANCH   7  14
ENDBRANCH   1   9
BRANCH   6  16
ATOM     16  C11 UNL     1       9.262   6.623  25.014  0.00  0.00    +0.126 C 
BRANCH  16  17
ATOM     17  N2  UNL     1       8.957   7.526  23.905  0.00  0.00    -0.312 N 
ATOM     18  C12 UNL     1       8.478   7.033  22.648  0.00  0.00    +0.233 C 
ATOM     19  O2  UNL     1       8.284   5.796  22.486  0.00  0.00    -0.274 OA
ATOM     20  H16 UNL     1       9.082   8.558  24.024  0.00  0.00    +0.149 HD
BRANCH  18  21
ATOM     21  C13 UNL     1       8.143   7.994  21.542  0.00  0.00    +0.159 C 
ATOM     22  C14 UNL     1       9.414   8.505  20.819  0.00  0.00    +0.041 C 
ATOM     23  C15 UNL     1       9.333  10.040  20.791  0.00  0.00    +0.098 C 
ATOM     24  C16 UNL     1       8.148  10.333  21.620  0.00  0.00    +0.214 C 
ATOM     25  O3  UNL     1       7.752  11.496  21.893  0.00  0.00    -0.276 OA
ATOM     26  N3  UNL     1       7.481   9.175  22.066  0.00  0.00    -0.304 N 
ATOM     27  H22 UNL     1       6.584   9.173  22.603  0.00  0.00    +0.149 HD
ENDBRANCH  18  21
ENDBRANCH  16  17
ENDBRANCH   6  16
TORSDOF 5
ENDMDL
MODEL 5
REMARK VINA RESULT:    -6.094     13.299     16.108
REMARK INTER + INTRA:          -8.736
REMARK INTER:                  -7.890
REMARK INTRA:                  -0.846
REMARK UNBOUND:                -0.861
REMARK  Name = /home/qwerty/github/datacon2025hack/step_04_hit_selection/docking/ligands/lig_697.pdb
REMARK  7 active torsions:
REMARK  status: ('A' for Active; 'I' for Inactive)
REMARK    1  A    between atoms: C1_1  and  C2_2
REMARK    2  A    between atoms: C2_2  and  C3_3
REMARK    3  A    between atoms: C2_2  and  C4_4
REMARK    4  A    between atoms: C6_6  and  C7_7
REMARK    5  A    between atoms: C10_12  and  C11_13
REMARK    6  A    between atoms: C11_13  and  N2_14
REMARK    7  A    between atoms: C12_15  and  C13_17
REMARK                            x       y       z     vdW  Elec       q    Type
REMARK                         _______ _______ _______ _____ _____    ______ ____
ROOT
ATOM      1  C7  UNL     1      19.554  10.034  35.668  0.00  0.00    +0.267 C 
ATOM      2  O1  UNL     1      20.140  10.282  34.581  0.00  0.00    -0.268 OA
ATOM      3  N1  UNL     1      19.876   8.829  36.369  0.00  0.00    -0.292 N 
ATOM      4  C8  UNL     1      19.455   8.083  37.572  0.00  0.00    +0.110 C 
ATOM      5  C9  UNL     1      20.370   6.920  37.374  0.00  0.00    +0.043 C 
ATOM      6  C10 UNL     1      20.789   7.688  36.156  0.00  0.00    +0.095 C 
ENDROOT
BRANCH   1   9
ATOM      7  C4  UNL     1      16.737  11.982  36.863  0.00  0.00    +0.039 A 
ATOM      8  C5  UNL     1      17.203  10.776  36.384  0.00  0.00    +0.057 A 
ATOM      9  C6  UNL     1      18.556  10.995  36.174  0.00  0.00    +0.147 A 
ATOM     10  N4  UNL     1      18.866  12.264  36.511  0.00  0.00    -0.169 NA
ATOM     11  N5  UNL     1      17.759  12.856  36.927  0.00  0.00    -0.281 N 
ATOM     12  H23 UNL     1      17.712  13.847  37.249  0.00  0.00    +0.189 HD
BRANCH   7  14
ATOM     13  C1  UNL     1      14.382  11.155  36.818  0.00  0.00    +0.014 C 
ATOM     14  C2  UNL     1      15.316  12.289  37.254  0.00  0.00    +0.031 C 
ATOM     15  C3  UNL     1      14.870  13.627  36.658  0.00  0.00    +0.014 C 
ENDBRANCH   7  14
ENDBRANCH   1   9
BRANCH   6  16
ATOM     16  C11 UNL     1      22.259   8.141  36.182  0.00  0.00    +0.126 C 
BRANCH  16  17
ATOM     17  N2  UNL     1      22.759   8.386  34.830  0.00  0.00    -0.312 N 
ATOM     18  C12 UNL     1      23.689   7.494  34.203  0.00  0.00    +0.233 C 
ATOM     19  O2  UNL     1      24.077   6.456  34.808  0.00  0.00    -0.274 OA
ATOM     20  H16 UNL     1      22.429   9.224  34.296  0.00  0.00    +0.149 HD
BRANCH  18  21
ATOM     21  C13 UNL     1      24.154   7.760  32.798  0.00  0.00    +0.159 C 
ATOM     22  C14 UNL     1      25.132   8.960  32.733  0.00  0.00    +0.041 C 
ATOM     23  C15 UNL     1      24.606   9.913  31.647  0.00  0.00    +0.098 C 
ATOM     24  C16 UNL     1      23.307   9.321  31.275  0.00  0.00    +0.214 C 
ATOM     25  O3  UNL     1      22.518   9.828  30.434  0.00  0.00    -0.276 OA
ATOM     26  N3  UNL     1      23.036   8.109  31.941  0.00  0.00    -0.304 N 
ATOM     27  H22 UNL     1      22.204   7.503  31.761  0.00  0.00    +0.149 HD
ENDBRANCH  18  21
ENDBRANCH  16  17
ENDBRANCH   6  16
TORSDOF 5
ENDMDL
MODEL 6
REMARK VINA RESULT:    -6.041     14.815     17.505
REMARK INTER + INTRA:          -8.668
REMARK INTER:                  -7.875
REMARK INTRA:                  -0.793
REMARK UNBOUND:                -0.861
REMARK  Name = /home/qwerty/github/datacon2025hack/step_04_hit_selection/docking/ligands/lig_697.pdb
REMARK  7 active torsions:
REMARK  status: ('A' for Active; 'I' for Inactive)
REMARK    1  A    between atoms: C1_1  and  C2_2
REMARK    2  A    between atoms: C2_2  and  C3_3
REMARK    3  A    between atoms: C2_2  and  C4_4
REMARK    4  A    between atoms: C6_6  and  C7_7
REMARK    5  A    between atoms: C10_12  and  C11_13
REMARK    6  A    between atoms: C11_13  and  N2_14
REMARK    7  A    between atoms: C12_15  and  C13_17
REMARK                            x       y       z     vdW  Elec       q    Type
REMARK                         _______ _______ _______ _____ _____    ______ ____
ROOT
ATOM      1  C7  UNL     1      10.018  13.369  29.284  0.00  0.00    +0.267 C 
ATOM      2  O1  UNL     1       9.907  13.804  30.460  0.00  0.00    -0.268 OA
ATOM      3  N1  UNL     1      11.018  13.933  28.429  0.00  0.00    -0.292 N 
ATOM      4  C8  UNL     1      11.488  13.833  27.033  0.00  0.00    +0.110 C 
ATOM      5  C9  UNL     1      12.539  14.888  27.136  0.00  0.00    +0.043 C 
ATOM      6  C10 UNL     1      12.053  14.979  28.551  0.00  0.00    +0.095 C 
ENDROOT
BRANCH   1   9
ATOM      7  C4  UNL     1       7.798  10.560  28.696  0.00  0.00    +0.039 A 
ATOM      8  C5  UNL     1       8.570  11.272  29.591  0.00  0.00    +0.057 A 
ATOM      9  C6  UNL     1       9.112  12.297  28.832  0.00  0.00    +0.147 A 
ATOM     10  N4  UNL     1       8.680  12.193  27.557  0.00  0.00    -0.169 NA
ATOM     11  N5  UNL     1       7.885  11.138  27.483  0.00  0.00    -0.281 N 
ATOM     12  H23 UNL     1       7.412  10.823  26.608  0.00  0.00    +0.189 HD
BRANCH   7  14
ATOM     13  C1  UNL     1       7.351   8.786  30.394  0.00  0.00    +0.014 C 
ATOM     14  C2  UNL     1       6.985   9.333  29.010  0.00  0.00    +0.031 C 
ATOM     15  C3  UNL     1       7.182   8.267  27.929  0.00  0.00    +0.014 C 
ENDBRANCH   7  14
ENDBRANCH   1   9
BRANCH   6  16
ATOM     16  C11 UNL     1      13.112  14.593  29.598  0.00  0.00    +0.126 C 
BRANCH  16  17
ATOM     17  N2  UNL     1      12.790  15.160  30.907  0.00  0.00    -0.312 N 
ATOM     18  C12 UNL     1      12.771  14.350  32.089  0.00  0.00    +0.233 C 
ATOM     19  O2  UNL     1      13.061  13.123  32.021  0.00  0.00    -0.274 OA
ATOM     20  H16 UNL     1      12.574  16.180  30.994  0.00  0.00    +0.149 HD
BRANCH  18  21
ATOM     21  C13 UNL     1      12.467  14.974  33.423  0.00  0.00    +0.159 C 
ATOM     22  C14 UNL     1      13.383  14.416  34.541  0.00  0.00    +0.041 C 
ATOM     23  C15 UNL     1      12.469  13.967  35.693  0.00  0.00    +0.098 C 
ATOM     24  C16 UNL     1      11.113  14.124  35.132  0.00  0.00    +0.214 C 
ATOM     25  O3  UNL     1      10.058  13.818  35.747  0.00  0.00    -0.276 OA
ATOM     26  N3  UNL     1      11.108  14.676  33.835  0.00  0.00    -0.304 N 
ATOM     27  H22 UNL     1      10.248  14.931  33.299  0.00  0.00    +0.149 HD
ENDBRANCH  18  21
ENDBRANCH  16  17
ENDBRANCH   6  16
TORSDOF 5
ENDMDL
MODEL 7
REMARK VINA RESULT:    -5.948     12.734     16.602
REMARK INTER + INTRA:          -8.547
REMARK INTER:                  -7.867
REMARK INTRA:                  -0.680
REMARK UNBOUND:                -0.861
REMARK  Name = /home/qwerty/github/datacon2025hack/step_04_hit_selection/docking/ligands/lig_697.pdb
REMARK  7 active torsions:
REMARK  status: ('A' for Active; 'I' for Inactive)
REMARK    1  A    between atoms: C1_1  and  C2_2
REMARK    2  A    between atoms: C2_2  and  C3_3
REMARK    3  A    between atoms: C2_2  and  C4_4
REMARK    4  A    between atoms: C6_6  and  C7_7
REMARK    5  A    between atoms: C10_12  and  C11_13
REMARK    6  A    between atoms: C11_13  and  N2_14
REMARK    7  A    between atoms: C12_15  and  C13_17
REMARK                            x       y       z     vdW  Elec       q    Type
REMARK                         _______ _______ _______ _____ _____    ______ ____
ROOT
ATOM      1  C7  UNL     1      18.593  10.559  35.851  0.00  0.00    +0.267 C 
ATOM      2  O1  UNL     1      19.142  10.811  34.746  0.00  0.00    -0.268 OA
ATOM      3  N1  UNL     1      19.004   9.398  36.580  0.00  0.00    -0.292 N 
ATOM      4  C8  UNL     1      18.655   8.664  37.812  0.00  0.00    +0.110 C 
ATOM      5  C9  UNL     1      19.638   7.555  37.629  0.00  0.00    +0.043 C 
ATOM      6  C10 UNL     1      19.985   8.312  36.382  0.00  0.00    +0.095 C 
ENDROOT
BRANCH   1   9
ATOM      7  C4  UNL     1      15.660  12.398  36.938  0.00  0.00    +0.039 A 
ATOM      8  C5  UNL     1      16.177  11.249  36.376  0.00  0.00    +0.057 A 
ATOM      9  C6  UNL     1      17.545  11.469  36.350  0.00  0.00    +0.147 A 
ATOM     10  N4  UNL     1      17.817  12.685  36.869  0.00  0.00    -0.169 NA
ATOM     11  N5  UNL     1      16.671  13.241  37.223  0.00  0.00    -0.281 N 
ATOM     12  H23 UNL     1      16.589  14.188  37.653  0.00  0.00    +0.189 HD
BRANCH   7  14
ATOM     13  C1  UNL     1      13.348  11.467  36.815  0.00  0.00    +0.014 C 
ATOM     14  C2  UNL     1      14.205  12.679  37.197  0.00  0.00    +0.031 C 
ATOM     15  C3  UNL     1      13.755  13.930  36.438  0.00  0.00    +0.014 C 
ENDBRANCH   7  14
ENDBRANCH   1   9
BRANCH   6  16
ATOM     16  C11 UNL     1      21.423   8.857  36.365  0.00  0.00    +0.126 C 
BRANCH  16  17
ATOM     17  N2  UNL     1      22.265   8.092  35.445  0.00  0.00    -0.312 N 
ATOM     18  C12 UNL     1      23.185   7.103  35.922  0.00  0.00    +0.233 C 
ATOM     19  O2  UNL     1      23.265   6.855  37.158  0.00  0.00    -0.274 OA
ATOM     20  H16 UNL     1      22.196   8.259  34.415  0.00  0.00    +0.149 HD
BRANCH  18  21
ATOM     21  C13 UNL     1      24.010   6.311  34.945  0.00  0.00    +0.159 C 
ATOM     22  C14 UNL     1      24.437   7.168  33.727  0.00  0.00    +0.041 C 
ATOM     23  C15 UNL     1      24.048   6.382  32.463  0.00  0.00    +0.098 C 
ATOM     24  C16 UNL     1      23.290   5.234  32.997  0.00  0.00    +0.214 C 
ATOM     25  O3  UNL     1      22.746   4.355  32.278  0.00  0.00    -0.276 OA
ATOM     26  N3  UNL     1      23.248   5.201  34.406  0.00  0.00    -0.304 N 
ATOM     27  H22 UNL     1      22.823   4.432  34.972  0.00  0.00    +0.149 HD
ENDBRANCH  18  21
ENDBRANCH  16  17
ENDBRANCH   6  16
TORSDOF 5
ENDMDL
MODEL 8
REMARK VINA RESULT:    -5.848      3.390      8.999
REMARK INTER + INTRA:          -8.418
REMARK INTER:                  -7.981
REMARK INTRA:                  -0.437
REMARK UNBOUND:                -0.861
REMARK  Name = /home/qwerty/github/datacon2025hack/step_04_hit_selection/docking/ligands/lig_697.pdb
REMARK  7 active torsions:
REMARK  status: ('A' for Active; 'I' for Inactive)
REMARK    1  A    between atoms: C1_1  and  C2_2
REMARK    2  A    between atoms: C2_2  and  C3_3
REMARK    3  A    between atoms: C2_2  and  C4_4
REMARK    4  A    between atoms: C6_6  and  C7_7
REMARK    5  A    between atoms: C10_12  and  C11_13
REMARK    6  A    between atoms: C11_13  and  N2_14
REMARK    7  A    between atoms: C12_15  and  C13_17
REMARK                            x       y       z     vdW  Elec       q    Type
REMARK                         _______ _______ _______ _____ _____    ______ ____
ROOT
ATOM      1  C7  UNL     1      12.320   2.808  21.531  0.00  0.00    +0.267 C 
ATOM      2  O1  UNL     1      12.277   1.973  22.472  0.00  0.00    -0.268 OA
ATOM      3  N1  UNL     1      13.557   3.007  20.838  0.00  0.00    -0.292 N 
ATOM      4  C8  UNL     1      14.124   3.859  19.775  0.00  0.00    +0.110 C 
ATOM      5  C9  UNL     1      15.512   3.316  19.848  0.00  0.00    +0.043 C 
ATOM      6  C10 UNL     1      14.924   2.455  20.925  0.00  0.00    +0.095 C 
ENDROOT
BRANCH   1   9
ATOM      7  C4  UNL     1       9.099   4.429  21.138  0.00  0.00    +0.039 A 
ATOM      8  C5  UNL     1       9.904   3.597  21.887  0.00  0.00    +0.057 A 
ATOM      9  C6  UNL     1      11.096   3.551  21.181  0.00  0.00    +0.147 A 
ATOM     10  N4  UNL     1      10.995   4.316  20.073  0.00  0.00    -0.169 NA
ATOM     11  N5  UNL     1       9.783   4.844  20.054  0.00  0.00    -0.281 N 
ATOM     12  H23 UNL     1       9.434   5.480  19.304  0.00  0.00    +0.189 HD
BRANCH   7  14
ATOM     13  C1  UNL     1       7.513   6.340  21.390  0.00  0.00    +0.014 C 
ATOM     14  C2  UNL     1       7.682   4.819  21.464  0.00  0.00    +0.031 C 
ATOM     15  C3  UNL     1       7.282   4.288  22.844  0.00  0.00    +0.014 C 
ENDBRANCH   7  14
ENDBRANCH   1   9
BRANCH   6  16
ATOM     16  C11 UNL     1      14.938   0.951  20.597  0.00  0.00    +0.126 C 
BRANCH  16  17
ATOM     17  N2  UNL     1      15.482   0.175  21.711  0.00  0.00    -0.312 N 
ATOM     18  C12 UNL     1      16.440  -0.870  21.497  0.00  0.00    +0.233 C 
ATOM     19  O2  UNL     1      16.852  -1.121  20.330  0.00  0.00    -0.274 OA
ATOM     20  H16 UNL     1      15.178   0.384  22.690  0.00  0.00    +0.149 HD
BRANCH  18  21
ATOM     21  C13 UNL     1      17.003  -1.625  22.669  0.00  0.00    +0.159 C 
ATOM     22  C14 UNL     1      15.935  -1.866  23.764  0.00  0.00    +0.041 C 
ATOM     23  C15 UNL     1      16.534  -1.384  25.095  0.00  0.00    +0.098 C 
ATOM     24  C16 UNL     1      17.805  -0.754  24.687  0.00  0.00    +0.214 C 
ATOM     25  O3  UNL     1      18.594  -0.183  25.485  0.00  0.00    -0.276 OA
ATOM     26  N3  UNL     1      18.065  -0.869  23.307  0.00  0.00    -0.304 N 
ATOM     27  H22 UNL     1      18.943  -0.552  22.837  0.00  0.00    +0.149 HD
ENDBRANCH  18  21
ENDBRANCH  16  17
ENDBRANCH   6  16
TORSDOF 5
ENDMDL
MODEL 9
REMARK VINA RESULT:    -5.838      9.307     12.578
REMARK INTER + INTRA:          -8.405
REMARK INTER:                  -7.650
REMARK INTRA:                  -0.755
REMARK UNBOUND:                -0.861
REMARK  Name = /home/qwerty/github/datacon2025hack/step_04_hit_selection/docking/ligands/lig_697.pdb
REMARK  7 active torsions:
REMARK  status: ('A' for Active; 'I' for Inactive)
REMARK    1  A    between atoms: C1_1  and  C2_2
REMARK    2  A    between atoms: C2_2  and  C3_3
REMARK    3  A    between atoms: C2_2  and  C4_4
REMARK    4  A    between atoms: C6_6  and  C7_7
REMARK    5  A    between atoms: C10_12  and  C11_13
REMARK    6  A    between atoms: C11_13  and  N2_14
REMARK    7  A    between atoms: C12_15  and  C13_17
REMARK                            x       y       z     vdW  Elec       q    Type
REMARK                         _______ _______ _______ _____ _____    ______ ____
ROOT
ATOM      1  C7  UNL     1       8.478   8.641  24.553  0.00  0.00    +0.267 C 
ATOM      2  O1  UNL     1       9.013   7.504  24.473  0.00  0.00    -0.268 OA
ATOM      3  N1  UNL     1       8.255   9.387  23.353  0.00  0.00    -0.292 N 
ATOM      4  C8  UNL     1       7.755  10.710  22.929  0.00  0.00    +0.110 C 
ATOM      5  C9  UNL     1       7.995  10.518  21.468  0.00  0.00    +0.043 C 
ATOM      6  C10 UNL     1       8.498   9.177  21.911  0.00  0.00    +0.095 C 
ENDROOT
BRANCH   1   9
ATOM      7  C4  UNL     1       7.899  10.341  27.705  0.00  0.00    +0.039 A 
ATOM      8  C5  UNL     1       8.552  10.323  26.491  0.00  0.00    +0.057 A 
ATOM      9  C6  UNL     1       8.105   9.161  25.882  0.00  0.00    +0.147 A 
ATOM     10  N4  UNL     1       7.235   8.529  26.698  0.00  0.00    -0.169 NA
ATOM     11  N5  UNL     1       7.115   9.250  27.800  0.00  0.00    -0.281 N 
ATOM     12  H23 UNL     1       6.503   8.991  28.604  0.00  0.00    +0.189 HD
BRANCH   7  14
ATOM     13  C1  UNL     1       8.454  12.735  28.140  0.00  0.00    +0.014 C 
ATOM     14  C2  UNL     1       8.031  11.402  28.765  0.00  0.00    +0.031 C 
ATOM     15  C3  UNL     1       9.022  10.963  29.846  0.00  0.00    +0.014 C 
ENDBRANCH   7  14
ENDBRANCH   1   9
BRANCH   6  16
ATOM     16  C11 UNL     1       7.672   7.995  21.375  0.00  0.00    +0.126 C 
BRANCH  16  17
ATOM     17  N2  UNL     1       8.541   6.911  20.917  0.00  0.00    -0.312 N 
ATOM     18  C12 UNL     1       8.284   5.547  21.271  0.00  0.00    +0.233 C 
ATOM     19  O2  UNL     1       7.276   5.253  21.971  0.00  0.00    -0.274 OA
ATOM     20  H16 UNL     1       9.367   7.126  20.311  0.00  0.00    +0.149 HD
BRANCH  18  21
ATOM     21  C13 UNL     1       9.180   4.455  20.754  0.00  0.00    +0.159 C 
ATOM     22  C14 UNL     1       9.920   3.726  21.903  0.00  0.00    +0.041 C 
ATOM     23  C15 UNL     1      11.416   3.718  21.545  0.00  0.00    +0.098 C 
ATOM     24  C16 UNL     1      11.480   4.561  20.336  0.00  0.00    +0.214 C 
ATOM     25  O3  UNL     1      12.549   4.853  19.738  0.00  0.00    -0.276 OA
ATOM     26  N3  UNL     1      10.215   5.000  19.895  0.00  0.00    -0.304 N 
ATOM     27  H22 UNL     1      10.045   5.545  19.020  0.00  0.00    +0.149 HD
ENDBRANCH  18  21
ENDBRANCH  16  17
ENDBRANCH   6  16
TORSDOF 5
ENDMDL
