REMARK  Name = /home/qwerty/github/datacon2025hack/step_04_hit_selection/docking/ligands/lig_362.pdb
REMARK  8 active torsions:
REMARK  status: ('A' for Active; 'I' for Inactive)
REMARK    1  A    between atoms: C1_1  and  C2_2
REMARK    2  A    between atoms: C2_2  and  C3_3
REMARK    3  A    between atoms: C2_2  and  C4_4
REMARK    4  A    between atoms: C2_2  and  O1_5
REMARK    5  A    between atoms: O1_5  and  C5_6
REMARK    6  A    between atoms: C11_14  and  C12_15
REMARK    7  A    between atoms: C13_18  and  C14_19
REMARK    8  A    between atoms: C17_22  and  N4_23
REMARK                            x       y       z     vdW  Elec       q    Type
REMARK                         _______ _______ _______ _____ _____    ______ ____
ROOT
ATOM      1  C12 UNL     1       0.842  -0.723  -0.561  0.00  0.00    +0.221 A 
ATOM      2  N2  UNL     1       1.131  -0.852  -1.872  0.00  0.00    -0.112 NA
ATOM      3  N3  UNL     1       2.421  -0.586  -1.996  0.00  0.00    -0.107 NA
ATOM      4  C13 UNL     1       2.873  -0.305  -0.758  0.00  0.00    +0.248 A 
ATOM      5  O3  UNL     1       1.906  -0.389   0.126  0.00  0.00    -0.420 OA
ENDROOT
BRANCH   1  14
ATOM      6  C5  UNL     1      -5.192  -0.800   0.570  0.00  0.00    +0.403 C 
ATOM      7  O2  UNL     1      -5.933  -1.677   1.092  0.00  0.00    -0.226 OA
ATOM      8  N1  UNL     1      -3.766  -1.003   0.511  0.00  0.00    -0.267 N 
ATOM      9  C6  UNL     1      -3.119  -2.040   1.316  0.00  0.00    +0.111 C 
ATOM     10  C7  UNL     1      -2.195  -2.883   0.437  0.00  0.00    +0.023 C 
ATOM     11  C8  UNL     1      -1.320  -2.081  -0.542  0.00  0.00    +0.008 C 
ATOM     12  C9  UNL     1      -1.708  -0.632  -0.856  0.00  0.00    +0.023 C 
ATOM     13  C10 UNL     1      -2.907   0.000  -0.128  0.00  0.00    +0.115 C 
ATOM     14  C11 UNL     1      -0.512  -0.932   0.057  0.00  0.00    +0.085 C 
BRANCH   6  15
ATOM     15  O1  UNL     1      -5.749   0.375   0.039  0.00  0.00    -0.445 OA
BRANCH  15  17
ATOM     16  C1  UNL     1      -7.944  -0.301  -0.807  0.00  0.00    +0.055 C 
ATOM     17  C2  UNL     1      -7.141   0.725   0.014  0.00  0.00    +0.107 C 
ATOM     18  C3  UNL     1      -7.251   2.099  -0.665  0.00  0.00    +0.055 C 
ATOM     19  C4  UNL     1      -7.699   0.832   1.446  0.00  0.00    +0.055 C 
ENDBRANCH  15  17
ENDBRANCH   6  15
ENDBRANCH   1  14
BRANCH   4  20
ATOM     20  C14 UNL     1       4.269   0.049  -0.437  0.00  0.00    +0.039 A 
ATOM     21  C15 UNL     1       5.242   0.114  -1.447  0.00  0.00    +0.015 A 
ATOM     22  C16 UNL     1       6.562   0.450  -1.137  0.00  0.00    +0.027 A 
ATOM     23  C17 UNL     1       6.938   0.728   0.190  0.00  0.00    +0.046 A 
ATOM     24  C22 UNL     1       5.960   0.661   1.199  0.00  0.00    +0.027 A 
ATOM     25  C23 UNL     1       4.639   0.325   0.888  0.00  0.00    +0.015 A 
BRANCH  23  26
ATOM     26  N4  UNL     1       8.301   1.075   0.510  0.00  0.00    -0.323 N 
ATOM     27  C18 UNL     1       9.196   1.665  -0.311  0.00  0.00    +0.091 A 
ATOM     28  C19 UNL     1      10.396   1.840   0.346  0.00  0.00    +0.019 A 
ATOM     29  C20 UNL     1      10.226   1.335   1.619  0.00  0.00    +0.019 A 
ATOM     30  C21 UNL     1       8.928   0.873   1.689  0.00  0.00    +0.091 A 
ENDBRANCH  23  26
ENDBRANCH   4  20
TORSDOF 5
