REMARK  Name = /home/qwerty/github/datacon2025hack/step_04_hit_selection/docking/ligands/lig_107.pdb
REMARK  6 active torsions:
REMARK  status: ('A' for Active; 'I' for Inactive)
REMARK    1  A    between atoms: C2_2  and  C3_3
REMARK    2  A    between atoms: C3_3  and  O1_4
REMARK    3  A    between atoms: C3_3  and  C4_5
REMARK    4  A    between atoms: C8_12  and  N4_13
REMARK    5  A    between atoms: N5_20  and  C15_21
REMARK    6  A    between atoms: C15_21  and  C16_22
REMARK                            x       y       z     vdW  Elec       q    Type
REMARK                         _______ _______ _______ _____ _____    ______ ____
ROOT
ATOM      1  C4  UNL     1      -2.533   2.036   0.979  0.00  0.00    +0.168 A 
ATOM      2  N1  UNL     1      -1.691   2.327   1.988  0.00  0.00    -0.130 NA
ATOM      3  N2  UNL     1      -0.593   1.616   1.795  0.00  0.00    -0.113 NA
ATOM      4  C5  UNL     1      -0.767   0.911   0.660  0.00  0.00    +0.220 A 
ATOM      5  N3  UNL     1       0.230  -0.016   0.180  0.00  0.00    -0.298 N 
ATOM      6  C6  UNL     1       0.436  -0.399  -1.210  0.00  0.00    +0.109 C 
ATOM      7  C7  UNL     1       1.834  -0.998  -1.287  0.00  0.00    +0.039 C 
ATOM      8  C8  UNL     1       2.220  -1.323   0.165  0.00  0.00    +0.075 C 
ATOM      9  C14 UNL     1       1.303  -0.474   1.049  0.00  0.00    +0.126 C 
ATOM     10  N5  UNL     1      -1.983   1.158   0.105  0.00  0.00    -0.292 N 
ENDROOT
BRANCH   8  11
ATOM     11  N4  UNL     1       3.660  -1.132   0.480  0.00  0.00    -0.298 NA
ATOM     12  C9  UNL     1       4.204   0.236   0.240  0.00  0.00    +0.085 C 
ATOM     13  C10 UNL     1       5.314   0.275  -0.823  0.00  0.00    +0.015 C 
ATOM     14  C11 UNL     1       6.460  -0.689  -0.478  0.00  0.00    +0.002 C 
ATOM     15  C12 UNL     1       5.970  -1.984   0.197  0.00  0.00    +0.015 C 
ATOM     16  C13 UNL     1       4.483  -2.234  -0.065  0.00  0.00    +0.085 C 
ENDBRANCH   8  11
BRANCH   1  17
ATOM     17  C3  UNL     1      -3.892   2.671   0.834  0.00  0.00    +0.205 C 
BRANCH  17  19
ATOM     18  C1  UNL     1      -3.128   4.934   0.124  0.00  0.00    +0.007 C 
ATOM     19  C2  UNL     1      -3.827   3.824  -0.136  0.00  0.00    +0.004 C 
ENDBRANCH  17  19
BRANCH  17  20
ATOM     20  O1  UNL     1      -4.347   3.114   2.087  0.00  0.00    -0.380 OA
ATOM     21  H5  UNL     1      -5.330   3.228   2.013  0.00  0.00    +0.211 HD
ENDBRANCH  17  20
ENDBRANCH   1  17
BRANCH  10  22
ATOM     22  C15 UNL     1      -2.660   0.546  -1.047  0.00  0.00    +0.161 C 
BRANCH  22  23
ATOM     23  C16 UNL     1      -3.501  -0.632  -0.621  0.00  0.00    -0.028 A 
ATOM     24  C17 UNL     1      -2.925  -1.714   0.069  0.00  0.00    +0.005 A 
ATOM     25  C18 UNL     1      -3.708  -2.810   0.445  0.00  0.00    +0.000 A 
ATOM     26  C19 UNL     1      -5.069  -2.840   0.129  0.00  0.00    +0.000 A 
ATOM     27  C20 UNL     1      -5.649  -1.773  -0.562  0.00  0.00    +0.000 A 
ATOM     28  C21 UNL     1      -4.871  -0.675  -0.938  0.00  0.00    +0.005 A 
ENDBRANCH  22  23
ENDBRANCH  10  22
TORSDOF 6
