MODEL 1
REMARK VINA RESULT:    -6.175      0.000      0.000
REMARK INTER + INTRA:          -8.294
REMARK INTER:                  -7.799
REMARK INTRA:                  -0.496
REMARK UNBOUND:                -0.496
REMARK  Name = /home/qwerty/github/datacon2025hack/step_04_hit_selection/docking/ligands/lig_160.pdb
REMARK  6 active torsions:
REMARK  status: ('A' for Active; 'I' for Inactive)
REMARK    1  A    between atoms: C1_1  and  C2_2
REMARK    2  A    between atoms: C5_5  and  C6_6
REMARK    3  A    between atoms: C10_13  and  C11_14
REMARK    4  A    between atoms: C11_14  and  O2_16
REMARK    5  A    between atoms: N4_18  and  C13_19
REMARK    6  A    between atoms: C13_19  and  C14_20
REMARK                            x       y       z     vdW  Elec       q    Type
REMARK                         _______ _______ _______ _____ _____    ______ ____
ROOT
ATOM      1  C6  UNL     1      10.755   2.283  22.694  0.00  0.00    +0.167 A 
ATOM      2  N1  UNL     1      10.494   1.154  23.383  0.00  0.00    -0.127 NA
ATOM      3  N2  UNL     1      11.651   0.545  23.589  0.00  0.00    -0.113 NA
ATOM      4  C7  UNL     1      12.602   1.323  23.039  0.00  0.00    +0.220 A 
ATOM      5  N3  UNL     1      13.992   0.972  23.036  0.00  0.00    -0.299 N 
ATOM      6  C8  UNL     1      14.984   1.682  23.826  0.00  0.00    +0.109 C 
ATOM      7  C9  UNL     1      16.258   0.856  23.714  0.00  0.00    +0.035 C 
ATOM      8  C10 UNL     1      15.788  -0.554  23.336  0.00  0.00    +0.116 C 
ATOM      9  C12 UNL     1      14.451  -0.343  22.621  0.00  0.00    +0.122 C 
ATOM     10  N4  UNL     1      12.082   2.430  22.466  0.00  0.00    -0.295 N 
ENDROOT
BRANCH   1  15
ATOM     11  C1  UNL     1       6.620   5.916  21.016  0.00  0.00    +0.065 C 
ATOM     12  C2  UNL     1       7.689   4.974  21.469  0.00  0.00    +0.038 A 
ATOM     13  C3  UNL     1       7.590   4.331  22.709  0.00  0.00    +0.024 A 
ATOM     14  C4  UNL     1       8.594   3.448  23.106  0.00  0.00    +0.015 A 
ATOM     15  C5  UNL     1       9.697   3.218  22.272  0.00  0.00    +0.037 A 
ATOM     16  C18 UNL     1       9.745   3.860  21.027  0.00  0.00    +0.122 A 
ATOM     17  N5  UNL     1       8.752   4.714  20.659  0.00  0.00    -0.259 NA
ENDBRANCH   1  15
BRANCH   8  18
ATOM     18  C11 UNL     1      16.793  -1.312  22.508  0.00  0.00    +0.309 C 
ATOM     19  O1  UNL     1      16.824  -1.160  21.257  0.00  0.00    -0.251 OA
BRANCH  18  20
ATOM     20  O2  UNL     1      17.632  -2.249  23.105  0.00  0.00    -0.480 OA
ATOM     21  H11 UNL     1      17.719  -3.185  22.728  0.00  0.00    +0.295 HD
ENDBRANCH  18  20
ENDBRANCH   8  18
BRANCH  10  22
ATOM     22  C13 UNL     1      12.793   3.506  21.762  0.00  0.00    +0.132 C 
BRANCH  22  23
ATOM     23  C14 UNL     1      13.127   3.118  20.301  0.00  0.00    +0.037 C 
ATOM     24  C15 UNL     1      14.568   2.702  20.163  0.00  0.00    +0.035 C 
ATOM     25  C16 UNL     1      15.264   3.986  19.752  0.00  0.00    +0.160 C 
ATOM     26  O3  UNL     1      14.320   4.888  19.223  0.00  0.00    -0.379 OA
ATOM     27  C17 UNL     1      13.048   4.293  19.336  0.00  0.00    +0.165 C 
ENDBRANCH  22  23
ENDBRANCH  10  22
TORSDOF 5
ENDMDL
MODEL 2
REMARK VINA RESULT:    -6.004     16.644     18.851
REMARK INTER + INTRA:          -8.078
REMARK INTER:                  -7.106
REMARK INTRA:                  -0.972
REMARK UNBOUND:                -0.496
REMARK  Name = /home/qwerty/github/datacon2025hack/step_04_hit_selection/docking/ligands/lig_160.pdb
REMARK  6 active torsions:
REMARK  status: ('A' for Active; 'I' for Inactive)
REMARK    1  A    between atoms: C1_1  and  C2_2
REMARK    2  A    between atoms: C5_5  and  C6_6
REMARK    3  A    between atoms: C10_13  and  C11_14
REMARK    4  A    between atoms: C11_14  and  O2_16
REMARK    5  A    between atoms: N4_18  and  C13_19
REMARK    6  A    between atoms: C13_19  and  C14_20
REMARK                            x       y       z     vdW  Elec       q    Type
REMARK                         _______ _______ _______ _____ _____    ______ ____
ROOT
ATOM      1  C6  UNL     1      20.249  10.608  35.583  0.00  0.00    +0.167 A 
ATOM      2  N1  UNL     1      20.664  11.883  35.721  0.00  0.00    -0.127 NA
ATOM      3  N2  UNL     1      19.587  12.626  35.923  0.00  0.00    -0.113 NA
ATOM      4  C7  UNL     1      18.532  11.789  35.923  0.00  0.00    +0.220 A 
ATOM      5  N3  UNL     1      17.180  12.237  36.083  0.00  0.00    -0.299 N 
ATOM      6  C8  UNL     1      16.396  11.958  37.275  0.00  0.00    +0.109 C 
ATOM      7  C9  UNL     1      15.132  12.796  37.132  0.00  0.00    +0.035 C 
ATOM      8  C10 UNL     1      15.506  13.920  36.159  0.00  0.00    +0.116 C 
ATOM      9  C12 UNL     1      16.642  13.344  35.310  0.00  0.00    +0.122 C 
ATOM     10  N4  UNL     1      18.904  10.507  35.716  0.00  0.00    -0.295 N 
ENDROOT
BRANCH   1  15
ATOM     11  C1  UNL     1      23.902   6.277  34.586  0.00  0.00    +0.065 C 
ATOM     12  C2  UNL     1      22.947   7.393  34.860  0.00  0.00    +0.038 A 
ATOM     13  C3  UNL     1      22.459   7.608  36.155  0.00  0.00    +0.024 A 
ATOM     14  C4  UNL     1      21.578   8.665  36.389  0.00  0.00    +0.015 A 
ATOM     15  C5  UNL     1      21.178   9.493  35.332  0.00  0.00    +0.037 A 
ATOM     16  C18 UNL     1      21.712   9.262  34.056  0.00  0.00    +0.122 A 
ATOM     17  N5  UNL     1      22.573   8.229  33.852  0.00  0.00    -0.259 NA
ENDBRANCH   1  15
BRANCH   8  18
ATOM     18  C11 UNL     1      14.339  14.408  35.340  0.00  0.00    +0.309 C 
ATOM     19  O1  UNL     1      14.037  13.827  34.263  0.00  0.00    -0.251 OA
BRANCH  18  20
ATOM     20  O2  UNL     1      13.644  15.554  35.718  0.00  0.00    -0.480 OA
ATOM     21  H11 UNL     1      12.997  16.004  35.083  0.00  0.00    +0.295 HD
ENDBRANCH  18  20
ENDBRANCH   8  18
BRANCH  10  22
ATOM     22  C13 UNL     1      18.047   9.316  35.639  0.00  0.00    +0.132 C 
BRANCH  22  23
ATOM     23  C14 UNL     1      17.897   8.622  37.015  0.00  0.00    +0.037 C 
ATOM     24  C15 UNL     1      18.408   7.206  36.971  0.00  0.00    +0.035 C 
ATOM     25  C16 UNL     1      17.161   6.396  36.669  0.00  0.00    +0.160 C 
ATOM     26  O3  UNL     1      16.016   7.146  37.000  0.00  0.00    -0.379 OA
ATOM     27  C17 UNL     1      16.446   8.418  37.426  0.00  0.00    +0.165 C 
ENDBRANCH  22  23
ENDBRANCH  10  22
TORSDOF 5
ENDMDL
MODEL 3
REMARK VINA RESULT:    -5.928     10.378     13.084
REMARK INTER + INTRA:          -7.983
REMARK INTER:                  -6.938
REMARK INTRA:                  -1.045
REMARK UNBOUND:                -0.496
REMARK  Name = /home/qwerty/github/datacon2025hack/step_04_hit_selection/docking/ligands/lig_160.pdb
REMARK  6 active torsions:
REMARK  status: ('A' for Active; 'I' for Inactive)
REMARK    1  A    between atoms: C1_1  and  C2_2
REMARK    2  A    between atoms: C5_5  and  C6_6
REMARK    3  A    between atoms: C10_13  and  C11_14
REMARK    4  A    between atoms: C11_14  and  O2_16
REMARK    5  A    between atoms: N4_18  and  C13_19
REMARK    6  A    between atoms: C13_19  and  C14_20
REMARK                            x       y       z     vdW  Elec       q    Type
REMARK                         _______ _______ _______ _____ _____    ______ ____
ROOT
ATOM      1  C6  UNL     1      23.291  10.725  20.642  0.00  0.00    +0.167 A 
ATOM      2  N1  UNL     1      24.359   9.904  20.596  0.00  0.00    -0.127 NA
ATOM      3  N2  UNL     1      23.901   8.663  20.641  0.00  0.00    -0.113 NA
ATOM      4  C7  UNL     1      22.559   8.746  20.694  0.00  0.00    +0.220 A 
ATOM      5  N3  UNL     1      21.709   7.596  20.785  0.00  0.00    -0.299 N 
ATOM      6  C8  UNL     1      20.848   7.166  19.695  0.00  0.00    +0.109 C 
ATOM      7  C9  UNL     1      20.311   5.806  20.116  0.00  0.00    +0.035 C 
ATOM      8  C10 UNL     1      21.314   5.282  21.150  0.00  0.00    +0.116 C 
ATOM      9  C12 UNL     1      21.948   6.538  21.752  0.00  0.00    +0.122 C 
ATOM     10  N4  UNL     1      22.131  10.028  20.693  0.00  0.00    -0.295 N 
ENDROOT
BRANCH   1  15
ATOM     11  C1  UNL     1      23.810  16.455  20.591  0.00  0.00    +0.065 C 
ATOM     12  C2  UNL     1      23.669  14.967  20.587  0.00  0.00    +0.038 A 
ATOM     13  C3  UNL     1      23.622  14.262  19.379  0.00  0.00    +0.024 A 
ATOM     14  C4  UNL     1      23.502  12.872  19.400  0.00  0.00    +0.015 A 
ATOM     15  C5  UNL     1      23.417  12.193  20.623  0.00  0.00    +0.037 A 
ATOM     16  C18 UNL     1      23.496  12.933  21.811  0.00  0.00    +0.122 A 
ATOM     17  N5  UNL     1      23.618  14.287  21.766  0.00  0.00    -0.259 NA
ENDBRANCH   1  15
BRANCH   8  18
ATOM     18  C11 UNL     1      20.687   4.380  22.181  0.00  0.00    +0.309 C 
ATOM     19  O1  UNL     1      19.463   4.087  22.103  0.00  0.00    -0.251 OA
BRANCH  18  20
ATOM     20  O2  UNL     1      21.429   3.936  23.272  0.00  0.00    -0.480 OA
ATOM     21  H11 UNL     1      20.974   3.643  24.127  0.00  0.00    +0.295 HD
ENDBRANCH  18  20
ENDBRANCH   8  18
BRANCH  10  22
ATOM     22  C13 UNL     1      20.749  10.522  20.752  0.00  0.00    +0.132 C 
BRANCH  22  23
ATOM     23  C14 UNL     1      20.147  10.725  19.340  0.00  0.00    +0.037 C 
ATOM     24  C15 UNL     1      19.776  12.166  19.107  0.00  0.00    +0.035 C 
ATOM     25  C16 UNL     1      18.312  12.217  19.502  0.00  0.00    +0.160 C 
ATOM     26  O3  UNL     1      17.767  10.918  19.471  0.00  0.00    -0.379 OA
ATOM     27  C17 UNL     1      18.809  10.024  19.154  0.00  0.00    +0.165 C 
ENDBRANCH  22  23
ENDBRANCH  10  22
TORSDOF 5
ENDMDL
MODEL 4
REMARK VINA RESULT:    -5.883     16.090     16.890
REMARK INTER + INTRA:          -7.926
REMARK INTER:                  -6.870
REMARK INTRA:                  -1.056
REMARK UNBOUND:                -0.496
REMARK  Name = /home/qwerty/github/datacon2025hack/step_04_hit_selection/docking/ligands/lig_160.pdb
REMARK  6 active torsions:
REMARK  status: ('A' for Active; 'I' for Inactive)
REMARK    1  A    between atoms: C1_1  and  C2_2
REMARK    2  A    between atoms: C5_5  and  C6_6
REMARK    3  A    between atoms: C10_13  and  C11_14
REMARK    4  A    between atoms: C11_14  and  O2_16
REMARK    5  A    between atoms: N4_18  and  C13_19
REMARK    6  A    between atoms: C13_19  and  C14_20
REMARK                            x       y       z     vdW  Elec       q    Type
REMARK                         _______ _______ _______ _____ _____    ______ ____
ROOT
ATOM      1  C6  UNL     1      16.713   9.954  36.813  0.00  0.00    +0.167 A 
ATOM      2  N1  UNL     1      16.825   9.095  37.846  0.00  0.00    -0.127 NA
ATOM      3  N2  UNL     1      17.989   8.478  37.719  0.00  0.00    -0.113 NA
ATOM      4  C7  UNL     1      18.578   8.985  36.619  0.00  0.00    +0.220 A 
ATOM      5  N3  UNL     1      19.852   8.536  36.139  0.00  0.00    -0.299 N 
ATOM      6  C8  UNL     1      21.048   9.359  36.195  0.00  0.00    +0.109 C 
ATOM      7  C9  UNL     1      22.194   8.434  35.809  0.00  0.00    +0.035 C 
ATOM      8  C10 UNL     1      21.680   7.019  36.095  0.00  0.00    +0.116 C 
ATOM      9  C12 UNL     1      20.157   7.124  35.977  0.00  0.00    +0.122 C 
ATOM     10  N4  UNL     1      17.811   9.921  36.020  0.00  0.00    -0.295 N 
ENDROOT
BRANCH   1  15
ATOM     11  C1  UNL     1      12.078  13.279  36.065  0.00  0.00    +0.065 C 
ATOM     12  C2  UNL     1      13.293  12.430  36.263  0.00  0.00    +0.038 A 
ATOM     13  C3  UNL     1      14.388  12.916  36.987  0.00  0.00    +0.024 A 
ATOM     14  C4  UNL     1      15.506  12.101  37.168  0.00  0.00    +0.015 A 
ATOM     15  C5  UNL     1      15.531  10.813  36.618  0.00  0.00    +0.037 A 
ATOM     16  C18 UNL     1      14.403  10.353  35.925  0.00  0.00    +0.122 A 
ATOM     17  N5  UNL     1      13.323  11.164  35.764  0.00  0.00    -0.259 NA
ENDBRANCH   1  15
BRANCH   8  18
ATOM     18  C11 UNL     1      22.276   5.975  35.186  0.00  0.00    +0.309 C 
ATOM     19  O1  UNL     1      21.539   5.342  34.382  0.00  0.00    -0.251 OA
BRANCH  18  20
ATOM     20  O2  UNL     1      23.623   5.641  35.288  0.00  0.00    -0.480 OA
ATOM     21  H11 UNL     1      24.085   5.610  36.189  0.00  0.00    +0.295 HD
ENDBRANCH  18  20
ENDBRANCH   8  18
BRANCH  10  22
ATOM     22  C13 UNL     1      18.102  10.688  34.801  0.00  0.00    +0.132 C 
BRANCH  22  23
ATOM     23  C14 UNL     1      18.737  12.063  35.122  0.00  0.00    +0.037 C 
ATOM     24  C15 UNL     1      17.861  13.193  34.649  0.00  0.00    +0.035 C 
ATOM     25  C16 UNL     1      18.408  13.505  33.269  0.00  0.00    +0.160 C 
ATOM     26  O3  UNL     1      19.721  13.004  33.156  0.00  0.00    -0.379 OA
ATOM     27  C17 UNL     1      20.024  12.323  34.351  0.00  0.00    +0.165 C 
ENDBRANCH  22  23
ENDBRANCH  10  22
TORSDOF 5
ENDMDL
MODEL 5
REMARK VINA RESULT:    -5.882     13.071     15.995
REMARK INTER + INTRA:          -7.925
REMARK INTER:                  -7.120
REMARK INTRA:                  -0.805
REMARK UNBOUND:                -0.496
REMARK  Name = /home/qwerty/github/datacon2025hack/step_04_hit_selection/docking/ligands/lig_160.pdb
REMARK  6 active torsions:
REMARK  status: ('A' for Active; 'I' for Inactive)
REMARK    1  A    between atoms: C1_1  and  C2_2
REMARK    2  A    between atoms: C5_5  and  C6_6
REMARK    3  A    between atoms: C10_13  and  C11_14
REMARK    4  A    between atoms: C11_14  and  O2_16
REMARK    5  A    between atoms: N4_18  and  C13_19
REMARK    6  A    between atoms: C13_19  and  C14_20
REMARK                            x       y       z     vdW  Elec       q    Type
REMARK                         _______ _______ _______ _____ _____    ______ ____
ROOT
ATOM      1  C6  UNL     1      20.397   4.984  32.060  0.00  0.00    +0.167 A 
ATOM      2  N1  UNL     1      19.167   5.483  31.826  0.00  0.00    -0.127 NA
ATOM      3  N2  UNL     1      18.982   6.483  32.675  0.00  0.00    -0.113 NA
ATOM      4  C7  UNL     1      20.110   6.590  33.401  0.00  0.00    +0.220 A 
ATOM      5  N3  UNL     1      20.274   7.550  34.452  0.00  0.00    -0.299 N 
ATOM      6  C8  UNL     1      21.175   8.686  34.346  0.00  0.00    +0.109 C 
ATOM      7  C9  UNL     1      20.872   9.557  35.557  0.00  0.00    +0.035 C 
ATOM      8  C10 UNL     1      19.452   9.169  35.983  0.00  0.00    +0.116 C 
ATOM      9  C12 UNL     1      19.272   7.731  35.489  0.00  0.00    +0.122 C 
ATOM     10  N4  UNL     1      21.030   5.667  33.044  0.00  0.00    -0.295 N 
ENDROOT
BRANCH   1  15
ATOM     11  C1  UNL     1      22.520   0.513  29.127  0.00  0.00    +0.065 C 
ATOM     12  C2  UNL     1      21.976   1.686  29.877  0.00  0.00    +0.038 A 
ATOM     13  C3  UNL     1      21.811   2.921  29.240  0.00  0.00    +0.024 A 
ATOM     14  C4  UNL     1      21.290   3.999  29.957  0.00  0.00    +0.015 A 
ATOM     15  C5  UNL     1      20.948   3.844  31.307  0.00  0.00    +0.037 A 
ATOM     16  C18 UNL     1      21.102   2.584  31.900  0.00  0.00    +0.122 A 
ATOM     17  N5  UNL     1      21.607   1.546  31.180  0.00  0.00    -0.259 NA
ENDBRANCH   1  15
BRANCH   8  18
ATOM     18  C11 UNL     1      19.213   9.324  37.463  0.00  0.00    +0.309 C 
ATOM     19  O1  UNL     1      18.866   8.328  38.154  0.00  0.00    -0.251 OA
BRANCH  18  20
ATOM     20  O2  UNL     1      19.288  10.579  38.060  0.00  0.00    -0.480 OA
ATOM     21  H11 UNL     1      19.891  11.300  37.683  0.00  0.00    +0.295 HD
ENDBRANCH  18  20
ENDBRANCH   8  18
BRANCH  10  22
ATOM     22  C13 UNL     1      22.371   5.459  33.607  0.00  0.00    +0.132 C 
BRANCH  22  23
ATOM     23  C14 UNL     1      23.483   5.693  32.555  0.00  0.00    +0.037 C 
ATOM     24  C15 UNL     1      24.817   5.929  33.213  0.00  0.00    +0.035 C 
ATOM     25  C16 UNL     1      24.894   7.440  33.313  0.00  0.00    +0.160 C 
ATOM     26  O3  UNL     1      23.998   8.022  32.394  0.00  0.00    -0.379 OA
ATOM     27  C17 UNL     1      23.295   6.979  31.762  0.00  0.00    +0.165 C 
ENDBRANCH  22  23
ENDBRANCH  10  22
TORSDOF 5
ENDMDL
MODEL 6
REMARK VINA RESULT:    -5.867     13.209     15.260
REMARK INTER + INTRA:          -7.906
REMARK INTER:                  -6.950
REMARK INTRA:                  -0.956
REMARK UNBOUND:                -0.496
REMARK  Name = /home/qwerty/github/datacon2025hack/step_04_hit_selection/docking/ligands/lig_160.pdb
REMARK  6 active torsions:
REMARK  status: ('A' for Active; 'I' for Inactive)
REMARK    1  A    between atoms: C1_1  and  C2_2
REMARK    2  A    between atoms: C5_5  and  C6_6
REMARK    3  A    between atoms: C10_13  and  C11_14
REMARK    4  A    between atoms: C11_14  and  O2_16
REMARK    5  A    between atoms: N4_18  and  C13_19
REMARK    6  A    between atoms: C13_19  and  C14_20
REMARK                            x       y       z     vdW  Elec       q    Type
REMARK                         _______ _______ _______ _____ _____    ______ ____
ROOT
ATOM      1  C6  UNL     1      13.599  13.634  28.731  0.00  0.00    +0.167 A 
ATOM      2  N1  UNL     1      13.466  12.947  27.579  0.00  0.00    -0.127 NA
ATOM      3  N2  UNL     1      12.248  12.426  27.571  0.00  0.00    -0.113 NA
ATOM      4  C7  UNL     1      11.651  12.820  28.712  0.00  0.00    +0.220 A 
ATOM      5  N3  UNL     1      10.322  12.424  29.074  0.00  0.00    -0.299 N 
ATOM      6  C8  UNL     1       9.204  13.351  29.098  0.00  0.00    +0.109 C 
ATOM      7  C9  UNL     1       7.966  12.488  29.302  0.00  0.00    +0.035 C 
ATOM      8  C10 UNL     1       8.373  11.088  28.828  0.00  0.00    +0.116 C 
ATOM      9  C12 UNL     1       9.891  11.037  29.014  0.00  0.00    +0.122 C 
ATOM     10  N4  UNL     1      12.465  13.586  29.471  0.00  0.00    -0.295 N 
ENDROOT
BRANCH   1  15
ATOM     11  C1  UNL     1      18.456  16.377  30.138  0.00  0.00    +0.065 C 
ATOM     12  C2  UNL     1      17.187  15.680  29.767  0.00  0.00    +0.038 A 
ATOM     13  C3  UNL     1      16.312  16.249  28.834  0.00  0.00    +0.024 A 
ATOM     14  C4  UNL     1      15.138  15.574  28.494  0.00  0.00    +0.015 A 
ATOM     15  C5  UNL     1      14.838  14.344  29.093  0.00  0.00    +0.037 A 
ATOM     16  C18 UNL     1      15.754  13.795  30.001  0.00  0.00    +0.122 A 
ATOM     17  N5  UNL     1      16.893  14.468  30.314  0.00  0.00    -0.259 NA
ENDBRANCH   1  15
BRANCH   8  18
ATOM     18  C11 UNL     1       7.647   9.983  29.550  0.00  0.00    +0.309 C 
ATOM     19  O1  UNL     1       8.228   9.337  30.464  0.00  0.00    -0.251 OA
BRANCH  18  20
ATOM     20  O2  UNL     1       6.366   9.608  29.155  0.00  0.00    -0.480 OA
ATOM     21  H11 UNL     1       5.997   9.884  28.253  0.00  0.00    +0.295 HD
ENDBRANCH  18  20
ENDBRANCH   8  18
BRANCH  10  22
ATOM     22  C13 UNL     1      12.180  14.192  30.779  0.00  0.00    +0.132 C 
BRANCH  22  23
ATOM     23  C14 UNL     1      12.581  13.259  31.948  0.00  0.00    +0.037 C 
ATOM     24  C15 UNL     1      11.380  12.857  32.762  0.00  0.00    +0.035 C 
ATOM     25  C16 UNL     1      11.355  13.886  33.877  0.00  0.00    +0.160 C 
ATOM     26  O3  UNL     1      12.628  14.478  34.005  0.00  0.00    -0.379 OA
ATOM     27  C17 UNL     1      13.450  13.947  32.992  0.00  0.00    +0.165 C 
ENDBRANCH  22  23
ENDBRANCH  10  22
TORSDOF 5
ENDMDL
MODEL 7
REMARK VINA RESULT:    -5.784      5.692      8.141
REMARK INTER + INTRA:          -7.801
REMARK INTER:                  -6.734
REMARK INTRA:                  -1.068
REMARK UNBOUND:                -0.496
REMARK  Name = /home/qwerty/github/datacon2025hack/step_04_hit_selection/docking/ligands/lig_160.pdb
REMARK  6 active torsions:
REMARK  status: ('A' for Active; 'I' for Inactive)
REMARK    1  A    between atoms: C1_1  and  C2_2
REMARK    2  A    between atoms: C5_5  and  C6_6
REMARK    3  A    between atoms: C10_13  and  C11_14
REMARK    4  A    between atoms: C11_14  and  O2_16
REMARK    5  A    between atoms: N4_18  and  C13_19
REMARK    6  A    between atoms: C13_19  and  C14_20
REMARK                            x       y       z     vdW  Elec       q    Type
REMARK                         _______ _______ _______ _____ _____    ______ ____
ROOT
ATOM      1  C6  UNL     1      17.875   1.158  25.027  0.00  0.00    +0.167 A 
ATOM      2  N1  UNL     1      17.424   0.622  26.178  0.00  0.00    -0.127 NA
ATOM      3  N2  UNL     1      18.425   0.653  27.044  0.00  0.00    -0.113 NA
ATOM      4  C7  UNL     1      19.467   1.225  26.412  0.00  0.00    +0.220 A 
ATOM      5  N3  UNL     1      20.750   1.404  27.026  0.00  0.00    -0.299 N 
ATOM      6  C8  UNL     1      21.272   2.710  27.391  0.00  0.00    +0.109 C 
ATOM      7  C9  UNL     1      22.526   2.431  28.207  0.00  0.00    +0.035 C 
ATOM      8  C10 UNL     1      22.350   1.004  28.736  0.00  0.00    +0.116 C 
ATOM      9  C12 UNL     1      21.424   0.322  27.725  0.00  0.00    +0.122 C 
ATOM     10  N4  UNL     1      19.164   1.562  25.140  0.00  0.00    -0.295 N 
ENDROOT
BRANCH   1  15
ATOM     11  C1  UNL     1      14.574   1.603  20.337  0.00  0.00    +0.065 C 
ATOM     12  C2  UNL     1      15.431   1.506  21.558  0.00  0.00    +0.038 A 
ATOM     13  C3  UNL     1      15.393   2.509  22.533  0.00  0.00    +0.024 A 
ATOM     14  C4  UNL     1      16.193   2.391  23.670  0.00  0.00    +0.015 A 
ATOM     15  C5  UNL     1      17.033   1.281  23.824  0.00  0.00    +0.037 A 
ATOM     16  C18 UNL     1      17.021   0.284  22.839  0.00  0.00    +0.122 A 
ATOM     17  N5  UNL     1      16.229   0.418  21.741  0.00  0.00    -0.259 NA
ENDBRANCH   1  15
BRANCH   8  18
ATOM     18  C11 UNL     1      23.655   0.277  28.931  0.00  0.00    +0.309 C 
ATOM     19  O1  UNL     1      23.686  -0.983  28.913  0.00  0.00    -0.251 OA
BRANCH  18  20
ATOM     20  O2  UNL     1      24.818   0.986  29.220  0.00  0.00    -0.480 OA
ATOM     21  H11 UNL     1      25.570   0.561  29.749  0.00  0.00    +0.295 HD
ENDBRANCH  18  20
ENDBRANCH   8  18
BRANCH  10  22
ATOM     22  C13 UNL     1      20.033   2.193  24.137  0.00  0.00    +0.132 C 
BRANCH  22  23
ATOM     23  C14 UNL     1      19.698   3.692  23.943  0.00  0.00    +0.037 C 
ATOM     24  C15 UNL     1      19.316   3.986  22.516  0.00  0.00    +0.035 C 
ATOM     25  C16 UNL     1      20.627   4.420  21.888  0.00  0.00    +0.160 C 
ATOM     26  O3  UNL     1      21.525   4.823  22.895  0.00  0.00    -0.379 OA
ATOM     27  C17 UNL     1      20.901   4.605  24.138  0.00  0.00    +0.165 C 
ENDBRANCH  22  23
ENDBRANCH  10  22
TORSDOF 5
ENDMDL
MODEL 8
REMARK VINA RESULT:    -5.784      4.572      8.521
REMARK INTER + INTRA:          -7.801
REMARK INTER:                  -6.776
REMARK INTRA:                  -1.025
REMARK UNBOUND:                -0.496
REMARK  Name = /home/qwerty/github/datacon2025hack/step_04_hit_selection/docking/ligands/lig_160.pdb
REMARK  6 active torsions:
REMARK  status: ('A' for Active; 'I' for Inactive)
REMARK    1  A    between atoms: C1_1  and  C2_2
REMARK    2  A    between atoms: C5_5  and  C6_6
REMARK    3  A    between atoms: C10_13  and  C11_14
REMARK    4  A    between atoms: C11_14  and  O2_16
REMARK    5  A    between atoms: N4_18  and  C13_19
REMARK    6  A    between atoms: C13_19  and  C14_20
REMARK                            x       y       z     vdW  Elec       q    Type
REMARK                         _______ _______ _______ _____ _____    ______ ____
ROOT
ATOM      1  C6  UNL     1      11.754   5.331  20.711  0.00  0.00    +0.167 A 
ATOM      2  N1  UNL     1      10.632   5.275  19.966  0.00  0.00    -0.127 NA
ATOM      3  N2  UNL     1       9.870   6.296  20.329  0.00  0.00    -0.113 NA
ATOM      4  C7  UNL     1      10.549   6.969  21.276  0.00  0.00    +0.220 A 
ATOM      5  N3  UNL     1      10.024   8.128  21.937  0.00  0.00    -0.299 N 
ATOM      6  C8  UNL     1      10.558   9.463  21.725  0.00  0.00    +0.109 C 
ATOM      7  C9  UNL     1       9.584  10.404  22.419  0.00  0.00    +0.035 C 
ATOM      8  C10 UNL     1       8.268   9.623  22.508  0.00  0.00    +0.116 C 
ATOM      9  C12 UNL     1       8.685   8.150  22.502  0.00  0.00    +0.122 C 
ATOM     10  N4  UNL     1      11.743   6.398  21.546  0.00  0.00    -0.295 N 
ENDROOT
BRANCH   1  15
ATOM     11  C1  UNL     1      16.009   1.487  20.244  0.00  0.00    +0.065 C 
ATOM     12  C2  UNL     1      14.893   2.473  20.373  0.00  0.00    +0.038 A 
ATOM     13  C3  UNL     1      13.875   2.273  21.312  0.00  0.00    +0.024 A 
ATOM     14  C4  UNL     1      12.849   3.213  21.423  0.00  0.00    +0.015 A 
ATOM     15  C5  UNL     1      12.838   4.340  20.590  0.00  0.00    +0.037 A 
ATOM     16  C18 UNL     1      13.891   4.518  19.683  0.00  0.00    +0.122 A 
ATOM     17  N5  UNL     1      14.882   3.591  19.596  0.00  0.00    -0.259 NA
ENDBRANCH   1  15
BRANCH   8  18
ATOM     18  C11 UNL     1       7.433  10.000  23.705  0.00  0.00    +0.309 C 
ATOM     19  O1  UNL     1       7.690   9.505  24.835  0.00  0.00    -0.251 OA
BRANCH  18  20
ATOM     20  O2  UNL     1       6.322  10.824  23.555  0.00  0.00    -0.480 OA
ATOM     21  H11 UNL     1       5.443  10.601  24.006  0.00  0.00    +0.295 HD
ENDBRANCH  18  20
ENDBRANCH   8  18
BRANCH  10  22
ATOM     22  C13 UNL     1      12.755   6.831  22.519  0.00  0.00    +0.132 C 
BRANCH  22  23
ATOM     23  C14 UNL     1      13.903   7.621  21.845  0.00  0.00    +0.037 C 
ATOM     24  C15 UNL     1      15.237   6.969  22.097  0.00  0.00    +0.035 C 
ATOM     25  C16 UNL     1      15.752   7.693  23.327  0.00  0.00    +0.160 C 
ATOM     26  O3  UNL     1      15.080   8.924  23.468  0.00  0.00    -0.379 OA
ATOM     27  C17 UNL     1      14.113   9.003  22.447  0.00  0.00    +0.165 C 
ENDBRANCH  22  23
ENDBRANCH  10  22
TORSDOF 5
ENDMDL
MODEL 9
REMARK VINA RESULT:    -5.758     16.380     18.593
REMARK INTER + INTRA:          -7.768
REMARK INTER:                  -6.907
REMARK INTRA:                  -0.861
REMARK UNBOUND:                -0.496
REMARK  Name = /home/qwerty/github/datacon2025hack/step_04_hit_selection/docking/ligands/lig_160.pdb
REMARK  6 active torsions:
REMARK  status: ('A' for Active; 'I' for Inactive)
REMARK    1  A    between atoms: C1_1  and  C2_2
REMARK    2  A    between atoms: C5_5  and  C6_6
REMARK    3  A    between atoms: C10_13  and  C11_14
REMARK    4  A    between atoms: C11_14  and  O2_16
REMARK    5  A    between atoms: N4_18  and  C13_19
REMARK    6  A    between atoms: C13_19  and  C14_20
REMARK                            x       y       z     vdW  Elec       q    Type
REMARK                         _______ _______ _______ _____ _____    ______ ____
ROOT
ATOM      1  C6  UNL     1      18.966   9.165  36.661  0.00  0.00    +0.167 A 
ATOM      2  N1  UNL     1      18.491   9.172  37.922  0.00  0.00    -0.127 NA
ATOM      3  N2  UNL     1      17.437   9.973  37.940  0.00  0.00    -0.113 NA
ATOM      4  C7  UNL     1      17.275  10.429  36.684  0.00  0.00    +0.220 A 
ATOM      5  N3  UNL     1      16.244  11.355  36.316  0.00  0.00    -0.299 N 
ATOM      6  C8  UNL     1      15.113  10.982  35.483  0.00  0.00    +0.109 C 
ATOM      7  C9  UNL     1      14.164  12.171  35.535  0.00  0.00    +0.035 C 
ATOM      8  C10 UNL     1      14.529  12.920  36.821  0.00  0.00    +0.116 C 
ATOM      9  C12 UNL     1      15.998  12.570  37.074  0.00  0.00    +0.122 C 
ATOM     10  N4  UNL     1      18.214   9.942  35.844  0.00  0.00    -0.295 N 
ENDROOT
BRANCH   1  15
ATOM     11  C1  UNL     1      23.609   6.130  35.136  0.00  0.00    +0.065 C 
ATOM     12  C2  UNL     1      22.392   6.907  35.523  0.00  0.00    +0.038 A 
ATOM     13  C3  UNL     1      21.128   6.308  35.491  0.00  0.00    +0.024 A 
ATOM     14  C4  UNL     1      20.007   7.049  35.867  0.00  0.00    +0.015 A 
ATOM     15  C5  UNL     1      20.151   8.386  36.262  0.00  0.00    +0.037 A 
ATOM     16  C18 UNL     1      21.437   8.941  36.308  0.00  0.00    +0.122 A 
ATOM     17  N5  UNL     1      22.515   8.197  35.941  0.00  0.00    -0.259 NA
ENDBRANCH   1  15
BRANCH   8  18
ATOM     18  C11 UNL     1      14.276  14.403  36.738  0.00  0.00    +0.309 C 
ATOM     19  O1  UNL     1      13.477  14.860  35.876  0.00  0.00    -0.251 OA
BRANCH  18  20
ATOM     20  O2  UNL     1      14.987  15.284  37.549  0.00  0.00    -0.480 OA
ATOM     21  H11 UNL     1      15.227  15.037  38.501  0.00  0.00    +0.295 HD
ENDBRANCH  18  20
ENDBRANCH   8  18
BRANCH  10  22
ATOM     22  C13 UNL     1      18.375  10.214  34.409  0.00  0.00    +0.132 C 
BRANCH  22  23
ATOM     23  C14 UNL     1      19.486  11.258  34.139  0.00  0.00    +0.037 C 
ATOM     24  C15 UNL     1      19.357  12.443  35.060  0.00  0.00    +0.035 C 
ATOM     25  C16 UNL     1      18.535  13.427  34.248  0.00  0.00    +0.160 C 
ATOM     26  O3  UNL     1      18.612  13.094  32.881  0.00  0.00    -0.379 OA
ATOM     27  C17 UNL     1      19.372  11.913  32.770  0.00  0.00    +0.165 C 
ENDBRANCH  22  23
ENDBRANCH  10  22
TORSDOF 5
ENDMDL
