REMARK  Name = /home/qwerty/github/datacon2025hack/step_04_hit_selection/docking/ligands/lig_766.pdb
REMARK  5 active torsions:
REMARK  status: ('A' for Active; 'I' for Inactive)
REMARK    1  A    between atoms: C1_1  and  C2_2
REMARK    2  A    between atoms: C4_5  and  C5_6
REMARK    3  A    between atoms: N2_8  and  C6_9
REMARK    4  A    between atoms: C9_13  and  C10_15
REMARK    5  A    between atoms: C13_18  and  C14_19
REMARK                            x       y       z     vdW  Elec       q    Type
REMARK                         _______ _______ _______ _____ _____    ______ ____
ROOT
ATOM      1  C6  UNL     1       1.111  -0.181  -1.158  0.00  0.00    +0.092 C 
ATOM      2  C7  UNL     1       0.286   1.096  -1.347  0.00  0.00    +0.043 C 
ATOM      3  C8  UNL     1      -1.125   0.727  -0.909  0.00  0.00    +0.110 C 
ATOM      4  N3  UNL     1      -0.974  -0.447  -0.061  0.00  0.00    -0.296 N 
ATOM      5  C9  UNL     1      -1.967  -0.893   0.881  0.00  0.00    +0.247 C 
ATOM      6  O2  UNL     1      -1.612  -1.578   1.879  0.00  0.00    -0.270 OA
ATOM      7  C17 UNL     1       0.387  -0.958  -0.060  0.00  0.00    +0.130 C 
ENDROOT
BRANCH   5   8
ATOM      8  C10 UNL     1      -3.396  -0.551   0.723  0.00  0.00    +0.040 A 
ATOM      9  C11 UNL     1      -4.026  -0.661  -0.526  0.00  0.00    +0.013 A 
ATOM     10  C12 UNL     1      -5.381  -0.346  -0.664  0.00  0.00    +0.007 A 
ATOM     11  C13 UNL     1      -6.131   0.065   0.449  0.00  0.00    -0.015 A 
ATOM     12  C14 UNL     1      -7.582   0.421   0.301  0.00  0.00    +0.047 C 
ATOM     13  C15 UNL     1      -5.504   0.163   1.702  0.00  0.00    +0.127 A 
ATOM     14  F1  UNL     1      -6.206   0.565   2.793  0.00  0.00    -0.205 F 
ATOM     15  C16 UNL     1      -4.149  -0.153   1.838  0.00  0.00    +0.051 A 
ENDBRANCH   5   8
BRANCH   1  18
ATOM     16  C5  UNL     1       3.487  -0.942  -0.706  0.00  0.00    +0.262 C 
ATOM     17  O1  UNL     1       3.175  -2.124  -1.020  0.00  0.00    -0.269 OA
ATOM     18  N2  UNL     1       2.504   0.102  -0.794  0.00  0.00    -0.306 N 
ATOM     19  H5  UNL     1       2.801   1.092  -0.652  0.00  0.00    +0.149 HD
BRANCH  16  24
ATOM     20  C1  UNL     1       7.536   1.376   0.974  0.00  0.00    +0.086 C 
ATOM     21  C2  UNL     1       6.613   0.307   0.490  0.00  0.00    +0.104 A 
ATOM     22  N1  UNL     1       7.011  -0.960   0.248  0.00  0.00    -0.240 NA
ATOM     23  C3  UNL     1       5.902  -1.570  -0.215  0.00  0.00    +0.143 A 
ATOM     24  C4  UNL     1       4.865  -0.661  -0.258  0.00  0.00    +0.121 A 
ATOM     25  N4  UNL     1       5.320   0.525   0.184  0.00  0.00    -0.338 N 
ATOM     26  H19 UNL     1       4.801   1.425   0.282  0.00  0.00    +0.167 HD
ENDBRANCH  16  24
ENDBRANCH   1  18
TORSDOF 3
