MODEL 1
REMARK VINA RESULT:    -5.751      0.000      0.000
REMARK INTER + INTRA:          -8.029
REMARK INTER:                  -7.600
REMARK INTRA:                  -0.428
REMARK UNBOUND:                -0.428
REMARK  Name = /home/qwerty/github/datacon2025hack/step_04_hit_selection/docking/ligands/lig_413.pdb
REMARK  7 active torsions:
REMARK  status: ('A' for Active; 'I' for Inactive)
REMARK    1  A    between atoms: C1_1  and  N1_2
REMARK    2  A    between atoms: N1_2  and  C2_3
REMARK    3  A    between atoms: N1_2  and  C6_7
REMARK    4  A    between atoms: C2_3  and  C3_4
REMARK    5  A    between atoms: C9_11  and  C10_12
REMARK    6  A    between atoms: C13_15  and  C14_16
REMARK    7  A    between atoms: C14_16  and  O1_17
REMARK                            x       y       z     vdW  Elec       q    Type
REMARK                         _______ _______ _______ _____ _____    ______ ____
ROOT
ATOM      1  C6  UNL     1      22.849   7.507  35.486  0.00  0.00    +0.140 A 
ATOM      2  C7  UNL     1      23.248   6.693  36.561  0.00  0.00    +0.154 A 
ATOM      3  N2  UNL     1      22.549   6.730  37.724  0.00  0.00    -0.258 NA
ATOM      4  C8  UNL     1      21.462   7.527  37.878  0.00  0.00    +0.139 A 
ATOM      5  C9  UNL     1      21.042   8.336  36.810  0.00  0.00    +0.091 A 
ATOM      6  N3  UNL     1      21.756   8.301  35.652  0.00  0.00    -0.229 NA
ENDROOT
BRANCH   5   7
ATOM      7  C10 UNL     1      19.866   9.239  36.914  0.00  0.00    +0.005 A 
ATOM      8  C11 UNL     1      19.859  10.510  36.309  0.00  0.00    +0.010 A 
ATOM      9  C12 UNL     1      18.746  11.347  36.428  0.00  0.00    +0.009 A 
ATOM     10  C13 UNL     1      17.625  10.939  37.167  0.00  0.00    +0.013 A 
ATOM     11  C15 UNL     1      17.625   9.672  37.769  0.00  0.00    +0.129 A 
ATOM     12  F1  UNL     1      16.545   9.242  38.470  0.00  0.00    -0.205 F 
ATOM     13  C16 UNL     1      18.738   8.834  37.651  0.00  0.00    +0.048 A 
BRANCH  10  14
ATOM     14  C14 UNL     1      16.418  11.834  37.263  0.00  0.00    +0.194 C 
BRANCH  14  15
ATOM     15  O1  UNL     1      16.817  13.155  37.507  0.00  0.00    -0.390 OA
ATOM     16  H17 UNL     1      17.265  13.472  36.680  0.00  0.00    +0.210 HD
ENDBRANCH  14  15
ENDBRANCH  10  14
ENDBRANCH   5   7
BRANCH   1  18
ATOM     17  C1  UNL     1      24.553   6.487  33.901  0.00  0.00    +0.130 C 
ATOM     18  N1  UNL     1      23.563   7.523  34.225  0.00  0.00    -0.317 N 
BRANCH  18  19
ATOM     19  C2  UNL     1      23.306   8.597  33.253  0.00  0.00    +0.109 C 
BRANCH  19  20
ATOM     20  C3  UNL     1      24.412   8.618  32.190  0.00  0.00    +0.006 C 
ATOM     21  C4  UNL     1      24.414   9.834  31.277  0.00  0.00    +0.005 C 
ATOM     22  C5  UNL     1      25.464   9.702  32.370  0.00  0.00    +0.005 C 
ENDBRANCH  19  20
ENDBRANCH  18  19
ENDBRANCH   1  18
TORSDOF 6
ENDMDL
MODEL 2
REMARK VINA RESULT:    -5.703      6.667      8.356
REMARK INTER + INTRA:          -7.965
REMARK INTER:                  -7.424
REMARK INTRA:                  -0.541
REMARK UNBOUND:                -0.428
REMARK  Name = /home/qwerty/github/datacon2025hack/step_04_hit_selection/docking/ligands/lig_413.pdb
REMARK  7 active torsions:
REMARK  status: ('A' for Active; 'I' for Inactive)
REMARK    1  A    between atoms: C1_1  and  N1_2
REMARK    2  A    between atoms: N1_2  and  C2_3
REMARK    3  A    between atoms: N1_2  and  C6_7
REMARK    4  A    between atoms: C2_3  and  C3_4
REMARK    5  A    between atoms: C9_11  and  C10_12
REMARK    6  A    between atoms: C13_15  and  C14_16
REMARK    7  A    between atoms: C14_16  and  O1_17
REMARK                            x       y       z     vdW  Elec       q    Type
REMARK                         _______ _______ _______ _____ _____    ______ ____
ROOT
ATOM      1  C6  UNL     1      21.756   1.020  30.406  0.00  0.00    +0.140 A 
ATOM      2  C7  UNL     1      20.664   0.297  30.918  0.00  0.00    +0.154 A 
ATOM      3  N2  UNL     1      20.050   0.724  32.051  0.00  0.00    -0.258 NA
ATOM      4  C8  UNL     1      20.456   1.842  32.705  0.00  0.00    +0.139 A 
ATOM      5  C9  UNL     1      21.536   2.583  32.200  0.00  0.00    +0.091 A 
ATOM      6  N3  UNL     1      22.152   2.141  31.070  0.00  0.00    -0.229 NA
ENDROOT
BRANCH   5   7
ATOM      7  C10 UNL     1      22.037   3.811  32.871  0.00  0.00    +0.005 A 
ATOM      8  C11 UNL     1      21.316   4.429  33.909  0.00  0.00    +0.010 A 
ATOM      9  C12 UNL     1      21.802   5.588  34.520  0.00  0.00    +0.009 A 
ATOM     10  C13 UNL     1      23.009   6.163  34.095  0.00  0.00    +0.013 A 
ATOM     11  C15 UNL     1      23.735   5.549  33.063  0.00  0.00    +0.129 A 
ATOM     12  F1  UNL     1      24.918   6.070  32.649  0.00  0.00    -0.205 F 
ATOM     13  C16 UNL     1      23.249   4.390  32.452  0.00  0.00    +0.048 A 
BRANCH  10  14
ATOM     14  C14 UNL     1      23.541   7.394  34.780  0.00  0.00    +0.194 C 
BRANCH  14  15
ATOM     15  O1  UNL     1      23.645   7.170  36.159  0.00  0.00    -0.390 OA
ATOM     16  H17 UNL     1      24.229   7.888  36.519  0.00  0.00    +0.210 HD
ENDBRANCH  14  15
ENDBRANCH  10  14
ENDBRANCH   5   7
BRANCH   1  18
ATOM     17  C1  UNL     1      22.609  -0.814  28.870  0.00  0.00    +0.130 C 
ATOM     18  N1  UNL     1      22.461   0.607  29.210  0.00  0.00    -0.317 N 
BRANCH  18  19
ATOM     19  C2  UNL     1      23.050   1.621  28.322  0.00  0.00    +0.109 C 
BRANCH  19  20
ATOM     20  C3  UNL     1      21.965   2.217  27.415  0.00  0.00    +0.006 C 
ATOM     21  C4  UNL     1      21.832   3.731  27.468  0.00  0.00    +0.005 C 
ATOM     22  C5  UNL     1      22.479   3.066  26.262  0.00  0.00    +0.005 C 
ENDBRANCH  19  20
ENDBRANCH  18  19
ENDBRANCH   1  18
TORSDOF 6
ENDMDL
MODEL 3
REMARK VINA RESULT:    -5.680     12.120     14.062
REMARK INTER + INTRA:          -7.935
REMARK INTER:                  -7.470
REMARK INTRA:                  -0.464
REMARK UNBOUND:                -0.428
REMARK  Name = /home/qwerty/github/datacon2025hack/step_04_hit_selection/docking/ligands/lig_413.pdb
REMARK  7 active torsions:
REMARK  status: ('A' for Active; 'I' for Inactive)
REMARK    1  A    between atoms: C1_1  and  N1_2
REMARK    2  A    between atoms: N1_2  and  C2_3
REMARK    3  A    between atoms: N1_2  and  C6_7
REMARK    4  A    between atoms: C2_3  and  C3_4
REMARK    5  A    between atoms: C9_11  and  C10_12
REMARK    6  A    between atoms: C13_15  and  C14_16
REMARK    7  A    between atoms: C14_16  and  O1_17
REMARK                            x       y       z     vdW  Elec       q    Type
REMARK                         _______ _______ _______ _____ _____    ______ ____
ROOT
ATOM      1  C6  UNL     1      21.586   1.198  27.545  0.00  0.00    +0.140 A 
ATOM      2  C7  UNL     1      22.294   2.266  26.964  0.00  0.00    +0.154 A 
ATOM      3  N2  UNL     1      21.891   2.764  25.767  0.00  0.00    -0.258 NA
ATOM      4  C8  UNL     1      20.812   2.264  25.114  0.00  0.00    +0.139 A 
ATOM      5  C9  UNL     1      20.086   1.207  25.686  0.00  0.00    +0.091 A 
ATOM      6  N3  UNL     1      20.504   0.707  26.880  0.00  0.00    -0.229 NA
ENDROOT
BRANCH   5   7
ATOM      7  C10 UNL     1      18.901   0.607  25.019  0.00  0.00    +0.005 A 
ATOM      8  C11 UNL     1      18.093   1.355  24.142  0.00  0.00    +0.010 A 
ATOM      9  C12 UNL     1      16.978   0.773  23.532  0.00  0.00    +0.009 A 
ATOM     10  C13 UNL     1      16.637  -0.561  23.801  0.00  0.00    +0.013 A 
ATOM     11  C15 UNL     1      17.440  -1.313  24.671  0.00  0.00    +0.129 A 
ATOM     12  F1  UNL     1      17.147  -2.613  24.930  0.00  0.00    -0.205 F 
ATOM     13  C16 UNL     1      18.556  -0.731  25.281  0.00  0.00    +0.048 A 
BRANCH  10  14
ATOM     14  C14 UNL     1      15.452  -1.189  23.116  0.00  0.00    +0.194 C 
BRANCH  14  15
ATOM     15  O1  UNL     1      15.798  -1.575  21.814  0.00  0.00    -0.390 OA
ATOM     16  H17 UNL     1      15.747  -2.566  21.790  0.00  0.00    +0.210 HD
ENDBRANCH  14  15
ENDBRANCH  10  14
ENDBRANCH   5   7
BRANCH   1  18
ATOM     17  C1  UNL     1      22.828  -0.580  28.868  0.00  0.00    +0.130 C 
ATOM     18  N1  UNL     1      21.976   0.615  28.813  0.00  0.00    -0.317 N 
BRANCH  18  19
ATOM     19  C2  UNL     1      21.506   1.218  30.070  0.00  0.00    +0.109 C 
BRANCH  19  20
ATOM     20  C3  UNL     1      20.450   0.315  30.722  0.00  0.00    +0.006 C 
ATOM     21  C4  UNL     1      20.280   0.493  32.223  0.00  0.00    +0.005 C 
ATOM     22  C5  UNL     1      19.228   1.037  31.268  0.00  0.00    +0.005 C 
ENDBRANCH  19  20
ENDBRANCH  18  19
ENDBRANCH   1  18
TORSDOF 6
ENDMDL
MODEL 4
REMARK VINA RESULT:    -5.673     11.029     13.197
REMARK INTER + INTRA:          -7.925
REMARK INTER:                  -7.464
REMARK INTRA:                  -0.461
REMARK UNBOUND:                -0.428
REMARK  Name = /home/qwerty/github/datacon2025hack/step_04_hit_selection/docking/ligands/lig_413.pdb
REMARK  7 active torsions:
REMARK  status: ('A' for Active; 'I' for Inactive)
REMARK    1  A    between atoms: C1_1  and  N1_2
REMARK    2  A    between atoms: N1_2  and  C2_3
REMARK    3  A    between atoms: N1_2  and  C6_7
REMARK    4  A    between atoms: C2_3  and  C3_4
REMARK    5  A    between atoms: C9_11  and  C10_12
REMARK    6  A    between atoms: C13_15  and  C14_16
REMARK    7  A    between atoms: C14_16  and  O1_17
REMARK                            x       y       z     vdW  Elec       q    Type
REMARK                         _______ _______ _______ _____ _____    ______ ____
ROOT
ATOM      1  C6  UNL     1      10.037  13.546  28.939  0.00  0.00    +0.140 A 
ATOM      2  C7  UNL     1      11.068  14.293  28.343  0.00  0.00    +0.154 A 
ATOM      3  N2  UNL     1      12.115  14.712  29.099  0.00  0.00    -0.258 NA
ATOM      4  C8  UNL     1      12.201  14.420  30.422  0.00  0.00    +0.139 A 
ATOM      5  C9  UNL     1      11.187  13.663  31.030  0.00  0.00    +0.091 A 
ATOM      6  N3  UNL     1      10.136  13.257  30.266  0.00  0.00    -0.229 NA
ENDROOT
BRANCH   5   7
ATOM      7  C10 UNL     1      11.215  13.316  32.475  0.00  0.00    +0.005 A 
ATOM      8  C11 UNL     1      11.120  14.305  33.471  0.00  0.00    +0.010 A 
ATOM      9  C12 UNL     1      11.157  13.957  34.824  0.00  0.00    +0.009 A 
ATOM     10  C13 UNL     1      11.307  12.617  35.209  0.00  0.00    +0.013 A 
ATOM     11  C15 UNL     1      11.397  11.625  34.221  0.00  0.00    +0.129 A 
ATOM     12  F1  UNL     1      11.517  10.317  34.565  0.00  0.00    -0.205 F 
ATOM     13  C16 UNL     1      11.360  11.973  32.867  0.00  0.00    +0.048 A 
BRANCH  10  14
ATOM     14  C14 UNL     1      11.314  12.247  36.669  0.00  0.00    +0.194 C 
BRANCH  14  15
ATOM     15  O1  UNL     1      12.626  12.251  37.160  0.00  0.00    -0.390 OA
ATOM     16  H17 UNL     1      12.788  13.160  37.526  0.00  0.00    +0.210 HD
ENDBRANCH  14  15
ENDBRANCH  10  14
ENDBRANCH   5   7
BRANCH   1  18
ATOM     17  C1  UNL     1       7.945  14.033  27.583  0.00  0.00    +0.130 C 
ATOM     18  N1  UNL     1       8.887  13.083  28.188  0.00  0.00    -0.317 N 
BRANCH  18  19
ATOM     19  C2  UNL     1       8.648  11.640  28.032  0.00  0.00    +0.109 C 
BRANCH  19  20
ATOM     20  C3  UNL     1       7.737  11.135  29.159  0.00  0.00    +0.006 C 
ATOM     21  C4  UNL     1       7.168   9.740  28.959  0.00  0.00    +0.005 C 
ATOM     22  C5  UNL     1       8.288   9.967  29.963  0.00  0.00    +0.005 C 
ENDBRANCH  19  20
ENDBRANCH  18  19
ENDBRANCH   1  18
TORSDOF 6
ENDMDL
MODEL 5
REMARK VINA RESULT:    -5.630     10.941     13.144
REMARK INTER + INTRA:          -7.868
REMARK INTER:                  -7.413
REMARK INTRA:                  -0.455
REMARK UNBOUND:                -0.428
REMARK  Name = /home/qwerty/github/datacon2025hack/step_04_hit_selection/docking/ligands/lig_413.pdb
REMARK  7 active torsions:
REMARK  status: ('A' for Active; 'I' for Inactive)
REMARK    1  A    between atoms: C1_1  and  N1_2
REMARK    2  A    between atoms: N1_2  and  C2_3
REMARK    3  A    between atoms: N1_2  and  C6_7
REMARK    4  A    between atoms: C2_3  and  C3_4
REMARK    5  A    between atoms: C9_11  and  C10_12
REMARK    6  A    between atoms: C13_15  and  C14_16
REMARK    7  A    between atoms: C14_16  and  O1_17
REMARK                            x       y       z     vdW  Elec       q    Type
REMARK                         _______ _______ _______ _____ _____    ______ ____
ROOT
ATOM      1  C6  UNL     1      10.103  13.429  29.121  0.00  0.00    +0.140 A 
ATOM      2  C7  UNL     1      11.089  14.276  28.584  0.00  0.00    +0.154 A 
ATOM      3  N2  UNL     1      12.103  14.709  29.375  0.00  0.00    -0.258 NA
ATOM      4  C8  UNL     1      12.201  14.337  30.677  0.00  0.00    +0.139 A 
ATOM      5  C9  UNL     1      11.234  13.481  31.225  0.00  0.00    +0.091 A 
ATOM      6  N3  UNL     1      10.214  13.061  30.428  0.00  0.00    -0.229 NA
ENDROOT
BRANCH   5   7
ATOM      7  C10 UNL     1      11.276  13.043  32.645  0.00  0.00    +0.005 A 
ATOM      8  C11 UNL     1      11.459  11.691  32.993  0.00  0.00    +0.010 A 
ATOM      9  C12 UNL     1      11.487  11.300  34.334  0.00  0.00    +0.009 A 
ATOM     10  C13 UNL     1      11.315  12.248  35.354  0.00  0.00    +0.013 A 
ATOM     11  C15 UNL     1      11.136  13.597  35.014  0.00  0.00    +0.129 A 
ATOM     12  F1  UNL     1      10.991  14.539  35.981  0.00  0.00    -0.205 F 
ATOM     13  C16 UNL     1      11.108  13.989  33.672  0.00  0.00    +0.048 A 
BRANCH  10  14
ATOM     14  C14 UNL     1      11.377  11.823  36.798  0.00  0.00    +0.194 C 
BRANCH  14  15
ATOM     15  O1  UNL     1      12.667  12.032  37.305  0.00  0.00    -0.390 OA
ATOM     16  H17 UNL     1      13.084  11.135  37.394  0.00  0.00    +0.210 HD
ENDBRANCH  14  15
ENDBRANCH  10  14
ENDBRANCH   5   7
BRANCH   1  18
ATOM     17  C1  UNL     1       8.065  13.878  27.674  0.00  0.00    +0.130 C 
ATOM     18  N1  UNL     1       8.989  12.945  28.331  0.00  0.00    -0.317 N 
BRANCH  18  19
ATOM     19  C2  UNL     1       8.767  11.498  28.189  0.00  0.00    +0.109 C 
BRANCH  19  20
ATOM     20  C3  UNL     1       7.730  11.023  29.216  0.00  0.00    +0.006 C 
ATOM     21  C4  UNL     1       7.099   9.671  28.925  0.00  0.00    +0.005 C 
ATOM     22  C5  UNL     1       8.136   9.805  30.031  0.00  0.00    +0.005 C 
ENDBRANCH  19  20
ENDBRANCH  18  19
ENDBRANCH   1  18
TORSDOF 6
ENDMDL
MODEL 6
REMARK VINA RESULT:    -5.541     15.157     17.221
REMARK INTER + INTRA:          -7.751
REMARK INTER:                  -7.300
REMARK INTRA:                  -0.451
REMARK UNBOUND:                -0.428
REMARK  Name = /home/qwerty/github/datacon2025hack/step_04_hit_selection/docking/ligands/lig_413.pdb
REMARK  7 active torsions:
REMARK  status: ('A' for Active; 'I' for Inactive)
REMARK    1  A    between atoms: C1_1  and  N1_2
REMARK    2  A    between atoms: N1_2  and  C2_3
REMARK    3  A    between atoms: N1_2  and  C6_7
REMARK    4  A    between atoms: C2_3  and  C3_4
REMARK    5  A    between atoms: C9_11  and  C10_12
REMARK    6  A    between atoms: C13_15  and  C14_16
REMARK    7  A    between atoms: C14_16  and  O1_17
REMARK                            x       y       z     vdW  Elec       q    Type
REMARK                         _______ _______ _______ _____ _____    ______ ____
ROOT
ATOM      1  C6  UNL     1       8.229  11.583  27.701  0.00  0.00    +0.140 A 
ATOM      2  C7  UNL     1       7.721  10.796  28.750  0.00  0.00    +0.154 A 
ATOM      3  N2  UNL     1       7.362   9.509  28.508  0.00  0.00    -0.258 NA
ATOM      4  C8  UNL     1       7.488   8.952  27.278  0.00  0.00    +0.139 A 
ATOM      5  C9  UNL     1       8.007   9.719  26.222  0.00  0.00    +0.091 A 
ATOM      6  N3  UNL     1       8.353  11.011  26.471  0.00  0.00    -0.229 NA
ENDROOT
BRANCH   5   7
ATOM      7  C10 UNL     1       8.163   9.174  24.848  0.00  0.00    +0.005 A 
ATOM      8  C11 UNL     1       8.624   7.863  24.625  0.00  0.00    +0.010 A 
ATOM      9  C12 UNL     1       8.771   7.374  23.324  0.00  0.00    +0.009 A 
ATOM     10  C13 UNL     1       8.479   8.190  22.221  0.00  0.00    +0.013 A 
ATOM     11  C15 UNL     1       8.015   9.496  22.437  0.00  0.00    +0.129 A 
ATOM     12  F1  UNL     1       7.702  10.299  21.388  0.00  0.00    -0.205 F 
ATOM     13  C16 UNL     1       7.867   9.986  23.738  0.00  0.00    +0.048 A 
BRANCH  10  14
ATOM     14  C14 UNL     1       8.611   7.644  20.823  0.00  0.00    +0.194 C 
BRANCH  14  15
ATOM     15  O1  UNL     1       9.703   8.237  20.177  0.00  0.00    -0.390 OA
ATOM     16  H17 UNL     1       9.919   9.063  20.685  0.00  0.00    +0.210 HD
ENDBRANCH  14  15
ENDBRANCH  10  14
ENDBRANCH   5   7
BRANCH   1  18
ATOM     17  C1  UNL     1       7.749  14.064  27.447  0.00  0.00    +0.130 C 
ATOM     18  N1  UNL     1       8.616  12.966  27.893  0.00  0.00    -0.317 N 
BRANCH  18  19
ATOM     19  C2  UNL     1       9.902  13.282  28.534  0.00  0.00    +0.109 C 
BRANCH  19  20
ATOM     20  C3  UNL     1      10.813  14.023  27.546  0.00  0.00    +0.006 C 
ATOM     21  C4  UNL     1      11.834  14.956  28.177  0.00  0.00    +0.005 C 
ATOM     22  C5  UNL     1      12.280  13.624  27.593  0.00  0.00    +0.005 C 
ENDBRANCH  19  20
ENDBRANCH  18  19
ENDBRANCH   1  18
TORSDOF 6
ENDMDL
MODEL 7
REMARK VINA RESULT:    -5.299     10.565     13.704
REMARK INTER + INTRA:          -7.431
REMARK INTER:                  -6.929
REMARK INTRA:                  -0.502
REMARK UNBOUND:                -0.428
REMARK  Name = /home/qwerty/github/datacon2025hack/step_04_hit_selection/docking/ligands/lig_413.pdb
REMARK  7 active torsions:
REMARK  status: ('A' for Active; 'I' for Inactive)
REMARK    1  A    between atoms: C1_1  and  N1_2
REMARK    2  A    between atoms: N1_2  and  C2_3
REMARK    3  A    between atoms: N1_2  and  C6_7
REMARK    4  A    between atoms: C2_3  and  C3_4
REMARK    5  A    between atoms: C9_11  and  C10_12
REMARK    6  A    between atoms: C13_15  and  C14_16
REMARK    7  A    between atoms: C14_16  and  O1_17
REMARK                            x       y       z     vdW  Elec       q    Type
REMARK                         _______ _______ _______ _____ _____    ______ ____
ROOT
ATOM      1  C6  UNL     1      22.798  15.516  22.066  0.00  0.00    +0.140 A 
ATOM      2  C7  UNL     1      24.114  15.878  21.727  0.00  0.00    +0.154 A 
ATOM      3  N2  UNL     1      25.046  16.008  22.705  0.00  0.00    -0.258 NA
ATOM      4  C8  UNL     1      24.746  15.788  24.010  0.00  0.00    +0.139 A 
ATOM      5  C9  UNL     1      23.440  15.413  24.365  0.00  0.00    +0.091 A 
ATOM      6  N3  UNL     1      22.510  15.296  23.379  0.00  0.00    -0.229 NA
ENDROOT
BRANCH   5   7
ATOM      7  C10 UNL     1      23.042  15.167  25.776  0.00  0.00    +0.005 A 
ATOM      8  C11 UNL     1      22.030  15.923  26.397  0.00  0.00    +0.010 A 
ATOM      9  C12 UNL     1      21.678  15.680  27.727  0.00  0.00    +0.009 A 
ATOM     10  C13 UNL     1      22.340  14.691  28.469  0.00  0.00    +0.013 A 
ATOM     11  C15 UNL     1      23.347  13.932  27.855  0.00  0.00    +0.129 A 
ATOM     12  F1  UNL     1      23.988  12.952  28.542  0.00  0.00    -0.205 F 
ATOM     13  C16 UNL     1      23.700  14.174  26.523  0.00  0.00    +0.048 A 
BRANCH  10  14
ATOM     14  C14 UNL     1      21.933  14.415  29.892  0.00  0.00    +0.194 C 
BRANCH  14  15
ATOM     15  O1  UNL     1      22.917  14.882  30.774  0.00  0.00    -0.390 OA
ATOM     16  H17 UNL     1      23.506  14.108  30.975  0.00  0.00    +0.210 HD
ENDBRANCH  14  15
ENDBRANCH  10  14
ENDBRANCH   5   7
BRANCH   1  18
ATOM     17  C1  UNL     1      21.998  15.729  19.665  0.00  0.00    +0.130 C 
ATOM     18  N1  UNL     1      21.756  15.375  21.069  0.00  0.00    -0.317 N 
BRANCH  18  19
ATOM     19  C2  UNL     1      20.428  14.880  21.465  0.00  0.00    +0.109 C 
BRANCH  19  20
ATOM     20  C3  UNL     1      19.980  13.762  20.514  0.00  0.00    +0.006 C 
ATOM     21  C4  UNL     1      20.670  12.422  20.715  0.00  0.00    +0.005 C 
ATOM     22  C5  UNL     1      19.231  12.614  21.172  0.00  0.00    +0.005 C 
ENDBRANCH  19  20
ENDBRANCH  18  19
ENDBRANCH   1  18
TORSDOF 6
ENDMDL
MODEL 8
REMARK VINA RESULT:    -5.283     17.764     18.514
REMARK INTER + INTRA:          -7.410
REMARK INTER:                  -6.984
REMARK INTRA:                  -0.427
REMARK UNBOUND:                -0.428
REMARK  Name = /home/qwerty/github/datacon2025hack/step_04_hit_selection/docking/ligands/lig_413.pdb
REMARK  7 active torsions:
REMARK  status: ('A' for Active; 'I' for Inactive)
REMARK    1  A    between atoms: C1_1  and  N1_2
REMARK    2  A    between atoms: N1_2  and  C2_3
REMARK    3  A    between atoms: N1_2  and  C6_7
REMARK    4  A    between atoms: C2_3  and  C3_4
REMARK    5  A    between atoms: C9_11  and  C10_12
REMARK    6  A    between atoms: C13_15  and  C14_16
REMARK    7  A    between atoms: C14_16  and  O1_17
REMARK                            x       y       z     vdW  Elec       q    Type
REMARK                         _______ _______ _______ _____ _____    ______ ____
ROOT
ATOM      1  C6  UNL     1      12.033   3.619  20.746  0.00  0.00    +0.140 A 
ATOM      2  C7  UNL     1      11.239   2.597  21.296  0.00  0.00    +0.154 A 
ATOM      3  N2  UNL     1      10.025   2.902  21.821  0.00  0.00    -0.258 NA
ATOM      4  C8  UNL     1       9.547   4.172  21.824  0.00  0.00    +0.139 A 
ATOM      5  C9  UNL     1      10.322   5.202  21.268  0.00  0.00    +0.091 A 
ATOM      6  N3  UNL     1      11.542   4.889  20.754  0.00  0.00    -0.229 NA
ENDROOT
BRANCH   5   7
ATOM      7  C10 UNL     1       9.863   6.616  21.248  0.00  0.00    +0.005 A 
ATOM      8  C11 UNL     1       8.789   7.053  22.046  0.00  0.00    +0.010 A 
ATOM      9  C12 UNL     1       8.369   8.385  22.005  0.00  0.00    +0.009 A 
ATOM     10  C13 UNL     1       9.000   9.303  21.152  0.00  0.00    +0.013 A 
ATOM     11  C15 UNL     1      10.074   8.875  20.357  0.00  0.00    +0.129 A 
ATOM     12  F1  UNL     1      10.719   9.748  19.541  0.00  0.00    -0.205 F 
ATOM     13  C16 UNL     1      10.495   7.542  20.398  0.00  0.00    +0.048 A 
BRANCH  10  14
ATOM     14  C14 UNL     1       8.562  10.743  21.137  0.00  0.00    +0.194 C 
BRANCH  14  15
ATOM     15  O1  UNL     1       7.163  10.821  21.177  0.00  0.00    -0.390 OA
ATOM     16  H17 UNL     1       6.835   9.907  21.386  0.00  0.00    +0.210 HD
ENDBRANCH  14  15
ENDBRANCH  10  14
ENDBRANCH   5   7
BRANCH   1  18
ATOM     17  C1  UNL     1      14.093   4.413  19.489  0.00  0.00    +0.130 C 
ATOM     18  N1  UNL     1      13.343   3.359  20.184  0.00  0.00    -0.317 N 
BRANCH  18  19
ATOM     19  C2  UNL     1      13.932   2.016  20.297  0.00  0.00    +0.109 C 
BRANCH  19  20
ATOM     20  C3  UNL     1      15.439   2.079  20.012  0.00  0.00    +0.006 C 
ATOM     21  C4  UNL     1      16.338   1.809  21.208  0.00  0.00    +0.005 C 
ATOM     22  C5  UNL     1      16.176   0.753  20.125  0.00  0.00    +0.005 C 
ENDBRANCH  19  20
ENDBRANCH  18  19
ENDBRANCH   1  18
TORSDOF 6
ENDMDL
MODEL 9
REMARK VINA RESULT:    -4.483     17.252     18.196
REMARK INTER + INTRA:          -6.353
REMARK INTER:                  -5.895
REMARK INTRA:                  -0.458
REMARK UNBOUND:                -0.428
REMARK  Name = /home/qwerty/github/datacon2025hack/step_04_hit_selection/docking/ligands/lig_413.pdb
REMARK  7 active torsions:
REMARK  status: ('A' for Active; 'I' for Inactive)
REMARK    1  A    between atoms: C1_1  and  N1_2
REMARK    2  A    between atoms: N1_2  and  C2_3
REMARK    3  A    between atoms: N1_2  and  C6_7
REMARK    4  A    between atoms: C2_3  and  C3_4
REMARK    5  A    between atoms: C9_11  and  C10_12
REMARK    6  A    between atoms: C13_15  and  C14_16
REMARK    7  A    between atoms: C14_16  and  O1_17
REMARK                            x       y       z     vdW  Elec       q    Type
REMARK                         _______ _______ _______ _____ _____    ______ ____
ROOT
ATOM      1  C6  UNL     1      15.119   0.276  22.127  0.00  0.00    +0.140 A 
ATOM      2  C7  UNL     1      16.063   0.631  21.146  0.00  0.00    +0.154 A 
ATOM      3  N2  UNL     1      15.752   1.585  20.232  0.00  0.00    -0.258 NA
ATOM      4  C8  UNL     1      14.551   2.219  20.242  0.00  0.00    +0.139 A 
ATOM      5  C9  UNL     1      13.603   1.886  21.222  0.00  0.00    +0.091 A 
ATOM      6  N3  UNL     1      13.919   0.921  22.128  0.00  0.00    -0.229 NA
ENDROOT
BRANCH   5   7
ATOM      7  C10 UNL     1      12.266   2.533  21.285  0.00  0.00    +0.005 A 
ATOM      8  C11 UNL     1      11.227   2.001  22.071  0.00  0.00    +0.010 A 
ATOM      9  C12 UNL     1       9.975   2.622  22.108  0.00  0.00    +0.009 A 
ATOM     10  C13 UNL     1       9.731   3.775  21.347  0.00  0.00    +0.013 A 
ATOM     11  C15 UNL     1      10.764   4.312  20.565  0.00  0.00    +0.129 A 
ATOM     12  F1  UNL     1      10.562   5.441  19.838  0.00  0.00    -0.205 F 
ATOM     13  C16 UNL     1      12.017   3.692  20.527  0.00  0.00    +0.048 A 
BRANCH  10  14
ATOM     14  C14 UNL     1       8.389   4.454  21.417  0.00  0.00    +0.194 C 
BRANCH  14  15
ATOM     15  O1  UNL     1       7.477   3.648  22.111  0.00  0.00    -0.390 OA
ATOM     16  H17 UNL     1       7.746   2.707  21.943  0.00  0.00    +0.210 HD
ENDBRANCH  14  15
ENDBRANCH  10  14
ENDBRANCH   5   7
BRANCH   1  18
ATOM     17  C1  UNL     1      16.556  -1.625  23.005  0.00  0.00    +0.130 C 
ATOM     18  N1  UNL     1      15.387  -0.744  23.120  0.00  0.00    -0.317 N 
BRANCH  18  19
ATOM     19  C2  UNL     1      14.472  -0.912  24.260  0.00  0.00    +0.109 C 
BRANCH  19  20
ATOM     20  C3  UNL     1      15.102  -1.843  25.305  0.00  0.00    +0.006 C 
ATOM     21  C4  UNL     1      14.359  -1.931  26.629  0.00  0.00    +0.005 C 
ATOM     22  C5  UNL     1      14.289  -3.085  25.639  0.00  0.00    +0.005 C 
ENDBRANCH  19  20
ENDBRANCH  18  19
ENDBRANCH   1  18
TORSDOF 6
ENDMDL
