REMARK  Name = /home/qwerty/github/datacon2025hack/step_04_hit_selection/docking/ligands/lig_745.pdb
REMARK  3 active torsions:
REMARK  status: ('A' for Active; 'I' for Inactive)
REMARK    1  A    between atoms: C1_2  and  C12_17
REMARK    2  A    between atoms: N1_3  and  C2_4
REMARK    3  A    between atoms: N2_8  and  C5_9
REMARK                            x       y       z     vdW  Elec       q    Type
REMARK                         _______ _______ _______ _____ _____    ______ ____
ROOT
ATOM      1  C2  UNL     1      -0.929  -0.801  -1.262  0.00  0.00    +0.100 C 
ATOM      2  C3  UNL     1      -1.461  -2.248  -1.212  0.00  0.00    +0.120 C 
ATOM      3  C4  UNL     1      -2.809  -2.082  -0.632  0.00  0.00    +0.222 C 
ATOM      4  O2  UNL     1      -3.621  -3.034  -0.484  0.00  0.00    -0.275 OA
ATOM      5  N2  UNL     1      -3.059  -0.762  -0.176  0.00  0.00    -0.270 N 
ATOM      6  C11 UNL     1      -1.852   0.032  -0.346  0.00  0.00    +0.136 C 
ENDROOT
BRANCH   5   7
ATOM      7  C5  UNL     1      -4.282  -0.279   0.417  0.00  0.00    +0.038 A 
ATOM      8  C6  UNL     1      -5.530  -0.770  -0.008  0.00  0.00    +0.023 A 
ATOM      9  C7  UNL     1      -6.712  -0.288   0.562  0.00  0.00    +0.003 A 
ATOM     10  C8  UNL     1      -6.663   0.692   1.555  0.00  0.00    +0.020 A 
ATOM     11  C9  UNL     1      -5.430   1.199   1.977  0.00  0.00    +0.043 A 
ATOM     12 CL1  UNL     1      -5.369   2.436   3.219  0.00  0.00    -0.083 Cl
ATOM     13  C10 UNL     1      -4.245   0.719   1.407  0.00  0.00    +0.043 A 
ENDBRANCH   5   7
BRANCH   1  16
ATOM     14  O1  UNL     1       0.678   1.530  -1.479  0.00  0.00    -0.268 OA
ATOM     15  C1  UNL     1       1.223   0.510  -0.975  0.00  0.00    +0.264 C 
ATOM     16  N1  UNL     1       0.473  -0.708  -0.836  0.00  0.00    -0.305 N 
ATOM     17  H1  UNL     1       0.949  -1.554  -0.453  0.00  0.00    +0.149 HD
BRANCH  15  18
ATOM     18  C12 UNL     1       2.627   0.600  -0.535  0.00  0.00    +0.147 A 
ATOM     19  C13 UNL     1       3.410  -0.443  -0.022  0.00  0.00    +0.057 A 
ATOM     20  C14 UNL     1       4.627   0.165   0.180  0.00  0.00    +0.040 A 
ATOM     21  N3  UNL     1       4.557   1.423  -0.177  0.00  0.00    -0.268 N 
ATOM     22  N4  UNL     1       3.369   1.730  -0.659  0.00  0.00    -0.166 NA
ATOM     23  C15 UNL     1       5.838   2.062  -0.335  0.00  0.00    +0.144 C 
ATOM     24  C16 UNL     1       6.834   0.961   0.117  0.00  0.00    +0.029 C 
ATOM     25  C17 UNL     1       6.001  -0.324   0.387  0.00  0.00    +0.057 C 
ENDBRANCH  15  18
ENDBRANCH   1  16
TORSDOF 3
