REMARK  Name = /home/qwerty/github/datacon2025hack/step_04_hit_selection/docking/ligands/lig_693.pdb
REMARK  8 active torsions:
REMARK  status: ('A' for Active; 'I' for Inactive)
REMARK    1  A    between atoms: C1_1  and  C2_2
REMARK    2  A    between atoms: C3_4  and  C4_5
REMARK    3  A    between atoms: C5_6  and  C6_7
REMARK    4  A    between atoms: C10_13  and  C11_14
REMARK    5  A    between atoms: C11_14  and  N3_15
REMARK    6  A    between atoms: N3_15  and  C12_16
REMARK    7  A    between atoms: C13_17  and  C14_19
REMARK    8  A    between atoms: C16_21  and  C17_22
REMARK                            x       y       z     vdW  Elec       q    Type
REMARK                         _______ _______ _______ _____ _____    ______ ____
ROOT
ATOM      1  C6  UNL     1      -2.569  -0.393   0.905  0.00  0.00    +0.284 C 
ATOM      2  O1  UNL     1      -1.677  -0.905   1.634  0.00  0.00    -0.267 OA
ATOM      3  N2  UNL     1      -2.172   0.418  -0.222  0.00  0.00    -0.290 N 
ATOM      4  C7  UNL     1      -3.089   1.196  -1.043  0.00  0.00    +0.108 C 
ATOM      5  C8  UNL     1      -2.219   1.960  -2.033  0.00  0.00    +0.021 C 
ATOM      6  C9  UNL     1      -0.807   1.910  -1.462  0.00  0.00    +0.025 C 
ATOM      7  C10 UNL     1      -0.775   0.681  -0.549  0.00  0.00    +0.094 C 
ENDROOT
BRANCH   1  13
ATOM      8  C1  UNL     1      -7.478  -0.343   0.630  0.00  0.00    +0.109 C 
ATOM      9  C2  UNL     1      -6.103  -0.642   1.121  0.00  0.00    +0.194 A 
ATOM     10  N1  UNL     1      -5.852  -1.339   2.249  0.00  0.00    -0.218 NA
ATOM     11  C3  UNL     1      -4.506  -1.340   2.316  0.00  0.00    +0.089 A 
ATOM     12  C4  UNL     1      -3.739  -2.008   3.412  0.00  0.00    +0.070 C 
ATOM     13  C5  UNL     1      -3.992  -0.643   1.233  0.00  0.00    +0.212 A 
ATOM     14  O3  UNL     1      -5.011  -0.225   0.523  0.00  0.00    -0.435 OA
ENDBRANCH   1  13
BRANCH   7  15
ATOM     15  C11 UNL     1      -0.159  -0.551  -1.246  0.00  0.00    +0.130 C 
BRANCH  15  16
ATOM     16  N3  UNL     1       1.289  -0.383  -1.448  0.00  0.00    -0.303 N 
ATOM     17  C12 UNL     1       1.817  -0.160  -2.799  0.00  0.00    +0.132 C 
ATOM     18  C13 UNL     1       2.193  -0.501  -0.325  0.00  0.00    +0.219 C 
ATOM     19  O2  UNL     1       1.738  -0.736   0.827  0.00  0.00    -0.275 OA
BRANCH  18  20
ATOM     20  C14 UNL     1       3.675  -0.296  -0.493  0.00  0.00    +0.085 C 
ATOM     21  C15 UNL     1       4.403  -1.491  -1.104  0.00  0.00    +0.023 C 
ATOM     22  C16 UNL     1       4.563  -1.185   0.378  0.00  0.00    +0.050 C 
BRANCH  22  23
ATOM     23  C17 UNL     1       5.900  -0.613   0.775  0.00  0.00    +0.039 A 
ATOM     24  C18 UNL     1       6.680   0.309   0.100  0.00  0.00    +0.133 A 
ATOM     25  N4  UNL     1       7.804   0.541   0.806  0.00  0.00    -0.244 NA
ATOM     26  C19 UNL     1       7.683  -0.244   1.896  0.00  0.00    +0.196 A 
ATOM     27  N5  UNL     1       6.540  -0.955   1.904  0.00  0.00    -0.348 N 
ATOM     28  H25 UNL     1       6.224  -1.631   2.634  0.00  0.00    +0.166 HD
ENDBRANCH  22  23
ENDBRANCH  18  20
ENDBRANCH  15  16
ENDBRANCH   7  15
TORSDOF 5
