REMARK  Name = /home/qwerty/github/datacon2025hack/step_04_hit_selection/docking/ligands/lig_650.pdb
REMARK  7 active torsions:
REMARK  status: ('A' for Active; 'I' for Inactive)
REMARK    1  A    between atoms: C1_1  and  C2_2
REMARK    2  A    between atoms: C2_2  and  C3_3
REMARK    3  A    between atoms: C2_2  and  C4_4
REMARK    4  A    between atoms: C7_9  and  N2_10
REMARK    5  A    between atoms: C8_11  and  C9_13
REMARK    6  A    between atoms: C9_13  and  C10_14
REMARK    7  A    between atoms: C15_20  and  C16_21
REMARK                            x       y       z     vdW  Elec       q    Type
REMARK                         _______ _______ _______ _____ _____    ______ ____
ROOT
ATOM      1  C4  UNL     1      -3.482  -0.566   0.914  0.00  0.00    +0.218 C 
ATOM      2  O1  UNL     1      -3.607  -1.729   1.389  0.00  0.00    -0.275 OA
ATOM      3  N1  UNL     1      -2.161  -0.028   0.697  0.00  0.00    -0.298 N 
ATOM      4  C5  UNL     1      -1.880   0.857  -0.444  0.00  0.00    +0.110 C 
ATOM      5  C6  UNL     1      -0.634   0.394  -1.225  0.00  0.00    +0.041 C 
ATOM      6  C7  UNL     1       0.422  -0.322  -0.348  0.00  0.00    +0.076 C 
ATOM      7  C14 UNL     1       0.293   0.075   1.126  0.00  0.00    +0.044 C 
ATOM      8  C15 UNL     1      -1.089  -0.348   1.661  0.00  0.00    +0.075 C 
ATOM      9  C16 UNL     1      -1.368   0.325   3.009  0.00  0.00    +0.028 C 
ENDROOT
BRANCH   6  10
ATOM     10  N2  UNL     1       1.774  -0.016  -0.824  0.00  0.00    -0.312 N 
ATOM     11  C8  UNL     1       2.831  -0.993  -0.841  0.00  0.00    +0.222 C 
ATOM     12  O2  UNL     1       2.577  -2.192  -0.537  0.00  0.00    -0.275 OA
ATOM     13  H13 UNL     1       2.014   0.986  -0.996  0.00  0.00    +0.149 HD
BRANCH  11  14
ATOM     14  C9  UNL     1       4.255  -0.596  -1.213  0.00  0.00    +0.075 C 
ATOM     15  C11 UNL     1       4.335   0.245  -2.496  0.00  0.00    +0.019 C 
ATOM     16  C12 UNL     1       4.868   1.423  -1.689  0.00  0.00    +0.002 C 
ATOM     17  C13 UNL     1       4.785   0.600  -0.409  0.00  0.00    +0.019 C 
BRANCH  14  18
ATOM     18  C10 UNL     1       5.245  -1.782  -1.229  0.00  0.00    +0.229 C 
ATOM     19  F1  UNL     1       5.346  -2.340   0.034  0.00  0.00    -0.248 F 
ENDBRANCH  14  18
ENDBRANCH  11  14
ENDBRANCH   6  10
BRANCH   1  21
ATOM     20  C1  UNL     1      -5.600   0.343   1.881  0.00  0.00    +0.017 C 
ATOM     21  C2  UNL     1      -4.723   0.249   0.629  0.00  0.00    +0.069 C 
ATOM     22  C3  UNL     1      -5.504  -0.357  -0.540  0.00  0.00    +0.017 C 
ENDBRANCH   1  21
TORSDOF 4
