MODEL 1
REMARK VINA RESULT:    -6.338      0.000      0.000
REMARK INTER + INTRA:          -7.839
REMARK INTER:                  -7.449
REMARK INTRA:                  -0.390
REMARK UNBOUND:                -0.390
REMARK  Name = /home/qwerty/github/datacon2025hack/step_04_hit_selection/docking/ligands/lig_29.pdb
REMARK  7 active torsions:
REMARK  status: ('A' for Active; 'I' for Inactive)
REMARK    1  A    between atoms: C4_4  and  C5_5
REMARK    2  A    between atoms: C4_4  and  C6_6
REMARK    3  A    between atoms: C9_11  and  N2_12
REMARK    4  A    between atoms: C10_13  and  C11_15
REMARK    5  A    between atoms: C13_17  and  C14_18
REMARK    6  A    between atoms: N3_19  and  C15_20
REMARK    7  A    between atoms: C16_22  and  C17_23
REMARK                            x       y       z     vdW  Elec       q    Type
REMARK                         _______ _______ _______ _____ _____    ______ ____
ROOT
ATOM      1  C6  UNL     1      21.520   1.359  29.369  0.00  0.00    +0.222 C 
ATOM      2  O1  UNL     1      22.482   0.650  29.775  0.00  0.00    -0.275 OA
ATOM      3  N1  UNL     1      21.534   1.840  28.010  0.00  0.00    -0.301 N 
ATOM      4  C7  UNL     1      22.809   2.226  27.397  0.00  0.00    +0.109 C 
ATOM      5  C8  UNL     1      22.650   3.544  26.629  0.00  0.00    +0.041 C 
ATOM      6  C9  UNL     1      21.375   3.606  25.745  0.00  0.00    +0.079 C 
ATOM      7  C16 UNL     1      20.577   2.275  25.745  0.00  0.00    +0.024 C 
ATOM      8  C17 UNL     1      19.248   2.415  24.986  0.00  0.00    +0.011 C 
ATOM      9  C18 UNL     1      20.311   1.813  27.192  0.00  0.00    +0.112 C 
ENDROOT
BRANCH   1  13
ATOM     10  C1  UNL     1      18.512  -0.336  32.441  0.00  0.00    +0.007 C 
ATOM     11  C2  UNL     1      19.239   0.449  31.651  0.00  0.00    -0.075 C 
ATOM     12  C3  UNL     1      19.153   0.989  30.234  0.00  0.00    +0.046 C 
ATOM     13  C4  UNL     1      20.430   1.787  30.342  0.00  0.00    +0.052 C 
ATOM     14  C5  UNL     1      20.217   3.313  30.342  0.00  0.00    +0.021 C 
ATOM     15  C19 UNL     1      20.543   1.221  31.742  0.00  0.00    +0.046 C 
ENDBRANCH   1  13
BRANCH   6  16
ATOM     16  N2  UNL     1      21.741   3.991  24.376  0.00  0.00    -0.307 N 
ATOM     17  C10 UNL     1      21.523   5.321  23.877  0.00  0.00    +0.264 C 
ATOM     18  O2  UNL     1      20.994   6.192  24.620  0.00  0.00    -0.268 OA
ATOM     19  H13 UNL     1      22.224   3.291  23.771  0.00  0.00    +0.149 HD
BRANCH  17  20
ATOM     20  C11 UNL     1      21.911   5.695  22.506  0.00  0.00    +0.147 A 
ATOM     21  C12 UNL     1      21.341   5.246  21.324  0.00  0.00    +0.057 A 
ATOM     22  C13 UNL     1      22.059   5.889  20.336  0.00  0.00    +0.037 A 
ATOM     23  C14 UNL     1      21.813   5.784  18.864  0.00  0.00    +0.065 C 
ATOM     24  N3  UNL     1      22.985   6.679  20.916  0.00  0.00    -0.271 N 
ATOM     25  C15 UNL     1      23.943   7.543  20.234  0.00  0.00    +0.172 C 
ATOM     26  N4  UNL     1      22.906   6.566  22.231  0.00  0.00    -0.167 NA
ENDBRANCH  17  20
ENDBRANCH   6  16
TORSDOF 3
ENDMDL
MODEL 2
REMARK VINA RESULT:    -6.211      4.135     11.051
REMARK INTER + INTRA:          -7.690
REMARK INTER:                  -7.295
REMARK INTRA:                  -0.396
REMARK UNBOUND:                -0.390
REMARK  Name = /home/qwerty/github/datacon2025hack/step_04_hit_selection/docking/ligands/lig_29.pdb
REMARK  7 active torsions:
REMARK  status: ('A' for Active; 'I' for Inactive)
REMARK    1  A    between atoms: C4_4  and  C5_5
REMARK    2  A    between atoms: C4_4  and  C6_6
REMARK    3  A    between atoms: C9_11  and  N2_12
REMARK    4  A    between atoms: C10_13  and  C11_15
REMARK    5  A    between atoms: C13_17  and  C14_18
REMARK    6  A    between atoms: N3_19  and  C15_20
REMARK    7  A    between atoms: C16_22  and  C17_23
REMARK                            x       y       z     vdW  Elec       q    Type
REMARK                         _______ _______ _______ _____ _____    ______ ____
ROOT
ATOM      1  C6  UNL     1      22.166   2.088  28.550  0.00  0.00    +0.222 C 
ATOM      2  O1  UNL     1      23.229   1.454  28.306  0.00  0.00    -0.275 OA
ATOM      3  N1  UNL     1      21.554   1.949  29.847  0.00  0.00    -0.301 N 
ATOM      4  C7  UNL     1      21.597   0.649  30.526  0.00  0.00    +0.109 C 
ATOM      5  C8  UNL     1      20.227   0.325  31.136  0.00  0.00    +0.041 C 
ATOM      6  C9  UNL     1      19.579   1.516  31.893  0.00  0.00    +0.079 C 
ATOM      7  C16 UNL     1      20.504   2.760  31.962  0.00  0.00    +0.024 C 
ATOM      8  C17 UNL     1      19.781   3.965  32.584  0.00  0.00    +0.011 C 
ATOM      9  C18 UNL     1      21.016   3.123  30.554  0.00  0.00    +0.112 C 
ENDROOT
BRANCH   1  13
ATOM     10  C1  UNL     1      23.037   5.262  25.304  0.00  0.00    +0.007 C 
ATOM     11  C2  UNL     1      22.470   4.370  26.112  0.00  0.00    -0.075 C 
ATOM     12  C3  UNL     1      21.801   4.369  27.476  0.00  0.00    +0.046 C 
ATOM     13  C4  UNL     1      21.492   2.892  27.446  0.00  0.00    +0.052 C 
ATOM     14  C5  UNL     1      19.991   2.569  27.326  0.00  0.00    +0.021 C 
ATOM     15  C19 UNL     1      22.194   2.877  26.103  0.00  0.00    +0.046 C 
ENDBRANCH   1  13
BRANCH   6  16
ATOM     16  N2  UNL     1      19.185   1.088  33.242  0.00  0.00    -0.307 N 
ATOM     17  C10 UNL     1      17.813   1.086  33.667  0.00  0.00    +0.264 C 
ATOM     18  O2  UNL     1      16.909   1.469  32.876  0.00  0.00    -0.268 OA
ATOM     19  H13 UNL     1      19.920   0.723  33.887  0.00  0.00    +0.149 HD
BRANCH  17  20
ATOM     20  C11 UNL     1      17.432   0.638  35.018  0.00  0.00    +0.147 A 
ATOM     21  C12 UNL     1      17.808   1.209  36.224  0.00  0.00    +0.057 A 
ATOM     22  C13 UNL     1      17.194   0.422  37.178  0.00  0.00    +0.037 A 
ATOM     23  C14 UNL     1      17.242   0.639  38.657  0.00  0.00    +0.065 C 
ATOM     24  N3  UNL     1      16.489  -0.544  36.556  0.00  0.00    -0.271 N 
ATOM     25  C15 UNL     1      15.680  -1.579  37.191  0.00  0.00    +0.172 C 
ATOM     26  N4  UNL     1      16.630  -0.425  35.246  0.00  0.00    -0.167 NA
ENDBRANCH  17  20
ENDBRANCH   6  16
TORSDOF 3
ENDMDL
MODEL 3
REMARK VINA RESULT:    -6.030      8.066     11.477
REMARK INTER + INTRA:          -7.478
REMARK INTER:                  -7.092
REMARK INTRA:                  -0.385
REMARK UNBOUND:                -0.390
REMARK  Name = /home/qwerty/github/datacon2025hack/step_04_hit_selection/docking/ligands/lig_29.pdb
REMARK  7 active torsions:
REMARK  status: ('A' for Active; 'I' for Inactive)
REMARK    1  A    between atoms: C4_4  and  C5_5
REMARK    2  A    between atoms: C4_4  and  C6_6
REMARK    3  A    between atoms: C9_11  and  N2_12
REMARK    4  A    between atoms: C10_13  and  C11_15
REMARK    5  A    between atoms: C13_17  and  C14_18
REMARK    6  A    between atoms: N3_19  and  C15_20
REMARK    7  A    between atoms: C16_22  and  C17_23
REMARK                            x       y       z     vdW  Elec       q    Type
REMARK                         _______ _______ _______ _____ _____    ______ ____
ROOT
ATOM      1  C6  UNL     1      19.635  10.512  19.246  0.00  0.00    +0.222 C 
ATOM      2  O1  UNL     1      20.674  10.596  18.536  0.00  0.00    -0.275 OA
ATOM      3  N1  UNL     1      19.133   9.206  19.595  0.00  0.00    -0.301 N 
ATOM      4  C7  UNL     1      19.233   8.114  18.621  0.00  0.00    +0.109 C 
ATOM      5  C8  UNL     1      17.919   7.324  18.575  0.00  0.00    +0.041 C 
ATOM      6  C9  UNL     1      17.336   6.993  19.975  0.00  0.00    +0.079 C 
ATOM      7  C16 UNL     1      18.262   7.445  21.135  0.00  0.00    +0.024 C 
ATOM      8  C17 UNL     1      17.593   7.239  22.503  0.00  0.00    +0.011 C 
ATOM      9  C18 UNL     1      18.655   8.925  20.958  0.00  0.00    +0.112 C 
ENDROOT
BRANCH   1  13
ATOM     10  C1  UNL     1      20.200  14.667  21.190  0.00  0.00    +0.007 C 
ATOM     11  C2  UNL     1      19.714  13.578  20.601  0.00  0.00    -0.075 C 
ATOM     12  C3  UNL     1      19.117  12.250  21.036  0.00  0.00    +0.046 C 
ATOM     13  C4  UNL     1      18.870  11.773  19.624  0.00  0.00    +0.052 C 
ATOM     14  C5  UNL     1      17.380  11.686  19.245  0.00  0.00    +0.021 C 
ATOM     15  C19 UNL     1      19.502  13.078  19.184  0.00  0.00    +0.046 C 
ENDBRANCH   1  13
BRANCH   6  16
ATOM     16  N2  UNL     1      17.056   5.554  20.066  0.00  0.00    -0.307 N 
ATOM     17  C10 UNL     1      15.731   5.052  20.303  0.00  0.00    +0.264 C 
ATOM     18  O2  UNL     1      14.771   5.856  20.450  0.00  0.00    -0.268 OA
ATOM     19  H13 UNL     1      17.835   4.880  19.897  0.00  0.00    +0.149 HD
BRANCH  17  20
ATOM     20  C11 UNL     1      15.464   3.604  20.375  0.00  0.00    +0.147 A 
ATOM     21  C12 UNL     1      16.258   2.583  19.878  0.00  0.00    +0.057 A 
ATOM     22  C13 UNL     1      15.568   1.431  20.200  0.00  0.00    +0.037 A 
ATOM     23  C14 UNL     1      16.022   0.032  19.924  0.00  0.00    +0.065 C 
ATOM     24  N3  UNL     1      14.443   1.768  20.860  0.00  0.00    -0.271 N 
ATOM     25  C15 UNL     1      13.438   0.854  21.393  0.00  0.00    +0.172 C 
ATOM     26  N4  UNL     1      14.368   3.084  20.969  0.00  0.00    -0.167 NA
ENDBRANCH  17  20
ENDBRANCH   6  16
TORSDOF 3
ENDMDL
MODEL 4
REMARK VINA RESULT:    -6.022     12.671     13.981
REMARK INTER + INTRA:          -7.468
REMARK INTER:                  -7.122
REMARK INTRA:                  -0.346
REMARK UNBOUND:                -0.390
REMARK  Name = /home/qwerty/github/datacon2025hack/step_04_hit_selection/docking/ligands/lig_29.pdb
REMARK  7 active torsions:
REMARK  status: ('A' for Active; 'I' for Inactive)
REMARK    1  A    between atoms: C4_4  and  C5_5
REMARK    2  A    between atoms: C4_4  and  C6_6
REMARK    3  A    between atoms: C9_11  and  N2_12
REMARK    4  A    between atoms: C10_13  and  C11_15
REMARK    5  A    between atoms: C13_17  and  C14_18
REMARK    6  A    between atoms: N3_19  and  C15_20
REMARK    7  A    between atoms: C16_22  and  C17_23
REMARK                            x       y       z     vdW  Elec       q    Type
REMARK                         _______ _______ _______ _____ _____    ______ ____
ROOT
ATOM      1  C6  UNL     1       9.249  11.387  29.218  0.00  0.00    +0.222 C 
ATOM      2  O1  UNL     1       9.359  10.855  30.356  0.00  0.00    -0.275 OA
ATOM      3  N1  UNL     1       9.257  10.542  28.050  0.00  0.00    -0.301 N 
ATOM      4  C7  UNL     1      10.116   9.354  28.029  0.00  0.00    +0.109 C 
ATOM      5  C8  UNL     1      10.836   9.245  26.679  0.00  0.00    +0.041 C 
ATOM      6  C9  UNL     1       9.915   9.493  25.453  0.00  0.00    +0.079 C 
ATOM      7  C16 UNL     1       8.429   9.701  25.850  0.00  0.00    +0.024 C 
ATOM      8  C17 UNL     1       7.572  10.092  24.636  0.00  0.00    +0.011 C 
ATOM      9  C18 UNL     1       8.315  10.780  26.945  0.00  0.00    +0.112 C 
ENDROOT
BRANCH   1  13
ATOM     10  C1  UNL     1      11.935  14.996  28.157  0.00  0.00    +0.007 C 
ATOM     11  C2  UNL     1      10.926  14.201  28.503  0.00  0.00    -0.075 C 
ATOM     12  C3  UNL     1      10.368  13.605  29.784  0.00  0.00    +0.046 C 
ATOM     13  C4  UNL     1       9.224  12.904  29.089  0.00  0.00    +0.052 C 
ATOM     14  C5  UNL     1       7.839  13.493  29.415  0.00  0.00    +0.021 C 
ATOM     15  C19 UNL     1       9.800  13.462  27.804  0.00  0.00    +0.046 C 
ENDBRANCH   1  13
BRANCH   6  16
ATOM     16  N2  UNL     1      10.047   8.383  24.502  0.00  0.00    -0.307 N 
ATOM     17  C10 UNL     1      10.669   8.552  23.218  0.00  0.00    +0.264 C 
ATOM     18  O2  UNL     1      11.110   9.684  22.878  0.00  0.00    -0.268 OA
ATOM     19  H13 UNL     1       9.730   7.432  24.794  0.00  0.00    +0.149 HD
BRANCH  17  20
ATOM     20  C11 UNL     1      10.809   7.423  22.281  0.00  0.00    +0.147 A 
ATOM     21  C12 UNL     1      11.931   7.088  21.539  0.00  0.00    +0.057 A 
ATOM     22  C13 UNL     1      11.546   5.966  20.831  0.00  0.00    +0.037 A 
ATOM     23  C14 UNL     1      12.413   5.175  19.904  0.00  0.00    +0.065 C 
ATOM     24  N3  UNL     1      10.275   5.662  21.158  0.00  0.00    -0.271 N 
ATOM     25  C15 UNL     1       9.489   4.543  20.649  0.00  0.00    +0.172 C 
ATOM     26  N4  UNL     1       9.816   6.542  22.033  0.00  0.00    -0.167 NA
ENDBRANCH  17  20
ENDBRANCH   6  16
TORSDOF 3
ENDMDL
MODEL 5
REMARK VINA RESULT:    -5.983      5.718      9.575
REMARK INTER + INTRA:          -7.422
REMARK INTER:                  -7.052
REMARK INTRA:                  -0.370
REMARK UNBOUND:                -0.390
REMARK  Name = /home/qwerty/github/datacon2025hack/step_04_hit_selection/docking/ligands/lig_29.pdb
REMARK  7 active torsions:
REMARK  status: ('A' for Active; 'I' for Inactive)
REMARK    1  A    between atoms: C4_4  and  C5_5
REMARK    2  A    between atoms: C4_4  and  C6_6
REMARK    3  A    between atoms: C9_11  and  N2_12
REMARK    4  A    between atoms: C10_13  and  C11_15
REMARK    5  A    between atoms: C13_17  and  C14_18
REMARK    6  A    between atoms: N3_19  and  C15_20
REMARK    7  A    between atoms: C16_22  and  C17_23
REMARK                            x       y       z     vdW  Elec       q    Type
REMARK                         _______ _______ _______ _____ _____    ______ ____
ROOT
ATOM      1  C6  UNL     1      21.543   1.359  30.706  0.00  0.00    +0.222 C 
ATOM      2  O1  UNL     1      20.858   0.355  31.043  0.00  0.00    -0.275 OA
ATOM      3  N1  UNL     1      21.503   2.540  31.532  0.00  0.00    -0.301 N 
ATOM      4  C7  UNL     1      20.245   2.917  32.184  0.00  0.00    +0.109 C 
ATOM      5  C8  UNL     1      20.007   4.426  32.043  0.00  0.00    +0.041 C 
ATOM      6  C9  UNL     1      21.263   5.290  32.339  0.00  0.00    +0.079 C 
ATOM      7  C16 UNL     1      22.474   4.447  32.816  0.00  0.00    +0.024 C 
ATOM      8  C17 UNL     1      23.739   5.309  32.956  0.00  0.00    +0.011 C 
ATOM      9  C18 UNL     1      22.735   3.285  31.838  0.00  0.00    +0.112 C 
ENDROOT
BRANCH   1  13
ATOM     10  C1  UNL     1      20.950   1.908  26.155  0.00  0.00    +0.007 C 
ATOM     11  C2  UNL     1      21.446   1.703  27.372  0.00  0.00    -0.075 C 
ATOM     12  C3  UNL     1      21.658   0.521  28.302  0.00  0.00    +0.046 C 
ATOM     13  C4  UNL     1      22.305   1.349  29.387  0.00  0.00    +0.052 C 
ATOM     14  C5  UNL     1      23.805   1.062  29.584  0.00  0.00    +0.021 C 
ATOM     15  C19 UNL     1      22.059   2.538  28.480  0.00  0.00    +0.046 C 
ENDBRANCH   1  13
BRANCH   6  16
ATOM     16  N2  UNL     1      20.929   6.325  33.326  0.00  0.00    -0.307 N 
ATOM     17  C10 UNL     1      21.083   7.724  33.041  0.00  0.00    +0.264 C 
ATOM     18  O2  UNL     1      21.526   8.093  31.920  0.00  0.00    -0.268 OA
ATOM     19  H13 UNL     1      20.516   6.031  34.239  0.00  0.00    +0.149 HD
BRANCH  17  20
ATOM     20  C11 UNL     1      20.729   8.751  34.038  0.00  0.00    +0.147 A 
ATOM     21  C12 UNL     1      21.039  10.101  33.992  0.00  0.00    +0.057 A 
ATOM     22  C13 UNL     1      20.487  10.615  35.149  0.00  0.00    +0.037 A 
ATOM     23  C14 UNL     1      20.500  12.052  35.563  0.00  0.00    +0.065 C 
ATOM     24  N3  UNL     1      19.877   9.617  35.818  0.00  0.00    -0.271 N 
ATOM     25  C15 UNL     1      19.155   9.730  37.082  0.00  0.00    +0.172 C 
ATOM     26  N4  UNL     1      20.021   8.481  35.156  0.00  0.00    -0.167 NA
ENDBRANCH  17  20
ENDBRANCH   6  16
TORSDOF 3
ENDMDL
MODEL 6
REMARK VINA RESULT:    -5.952      4.457      5.982
REMARK INTER + INTRA:          -7.386
REMARK INTER:                  -7.560
REMARK INTRA:                   0.174
REMARK UNBOUND:                -0.390
REMARK  Name = /home/qwerty/github/datacon2025hack/step_04_hit_selection/docking/ligands/lig_29.pdb
REMARK  7 active torsions:
REMARK  status: ('A' for Active; 'I' for Inactive)
REMARK    1  A    between atoms: C4_4  and  C5_5
REMARK    2  A    between atoms: C4_4  and  C6_6
REMARK    3  A    between atoms: C9_11  and  N2_12
REMARK    4  A    between atoms: C10_13  and  C11_15
REMARK    5  A    between atoms: C13_17  and  C14_18
REMARK    6  A    between atoms: N3_19  and  C15_20
REMARK    7  A    between atoms: C16_22  and  C17_23
REMARK                            x       y       z     vdW  Elec       q    Type
REMARK                         _______ _______ _______ _____ _____    ______ ____
ROOT
ATOM      1  C6  UNL     1      19.428   1.856  30.077  0.00  0.00    +0.222 C 
ATOM      2  O1  UNL     1      18.629   2.465  30.841  0.00  0.00    -0.275 OA
ATOM      3  N1  UNL     1      19.134   1.795  28.668  0.00  0.00    -0.301 N 
ATOM      4  C7  UNL     1      17.739   1.671  28.229  0.00  0.00    +0.109 C 
ATOM      5  C8  UNL     1      17.627   0.628  27.110  0.00  0.00    +0.041 C 
ATOM      6  C9  UNL     1      18.720   0.761  26.015  0.00  0.00    +0.079 C 
ATOM      7  C16 UNL     1      19.642   1.990  26.231  0.00  0.00    +0.024 C 
ATOM      8  C17 UNL     1      20.800   2.009  25.221  0.00  0.00    +0.011 C 
ATOM      9  C18 UNL     1      20.196   1.996  27.670  0.00  0.00    +0.112 C 
ENDROOT
BRANCH   1  13
ATOM     10  C1  UNL     1      23.876   0.884  29.279  0.00  0.00    +0.007 C 
ATOM     11  C2  UNL     1      22.651   0.977  29.789  0.00  0.00    -0.075 C 
ATOM     12  C3  UNL     1      21.339   0.219  29.680  0.00  0.00    +0.046 C 
ATOM     13  C4  UNL     1      20.616   1.107  30.665  0.00  0.00    +0.052 C 
ATOM     14  C5  UNL     1      20.266   0.412  31.994  0.00  0.00    +0.021 C 
ATOM     15  C19 UNL     1      21.909   1.892  30.747  0.00  0.00    +0.046 C 
ENDBRANCH   1  13
BRANCH   6  16
ATOM     16  N2  UNL     1      18.089   0.812  24.690  0.00  0.00    -0.307 N 
ATOM     17  C10 UNL     1      17.737  -0.380  23.970  0.00  0.00    +0.264 C 
ATOM     18  O2  UNL     1      17.979  -1.512  24.472  0.00  0.00    -0.268 OA
ATOM     19  H13 UNL     1      17.840   1.743  24.289  0.00  0.00    +0.149 HD
BRANCH  17  20
ATOM     20  C11 UNL     1      17.089  -0.312  22.649  0.00  0.00    +0.147 A 
ATOM     21  C12 UNL     1      17.344  -1.119  21.551  0.00  0.00    +0.057 A 
ATOM     22  C13 UNL     1      16.484  -0.650  20.578  0.00  0.00    +0.037 A 
ATOM     23  C14 UNL     1      16.328  -1.212  19.201  0.00  0.00    +0.065 C 
ATOM     24  N3  UNL     1      15.761   0.365  21.091  0.00  0.00    -0.271 N 
ATOM     25  C15 UNL     1      14.727   1.132  20.404  0.00  0.00    +0.172 C 
ATOM     26  N4  UNL     1      16.122   0.581  22.345  0.00  0.00    -0.167 NA
ENDBRANCH  17  20
ENDBRANCH   6  16
TORSDOF 3
ENDMDL
MODEL 7
REMARK VINA RESULT:    -5.876     11.567     14.961
REMARK INTER + INTRA:          -7.297
REMARK INTER:                  -6.967
REMARK INTRA:                  -0.330
REMARK UNBOUND:                -0.390
REMARK  Name = /home/qwerty/github/datacon2025hack/step_04_hit_selection/docking/ligands/lig_29.pdb
REMARK  7 active torsions:
REMARK  status: ('A' for Active; 'I' for Inactive)
REMARK    1  A    between atoms: C4_4  and  C5_5
REMARK    2  A    between atoms: C4_4  and  C6_6
REMARK    3  A    between atoms: C9_11  and  N2_12
REMARK    4  A    between atoms: C10_13  and  C11_15
REMARK    5  A    between atoms: C13_17  and  C14_18
REMARK    6  A    between atoms: N3_19  and  C15_20
REMARK    7  A    between atoms: C16_22  and  C17_23
REMARK                            x       y       z     vdW  Elec       q    Type
REMARK                         _______ _______ _______ _____ _____    ______ ____
ROOT
ATOM      1  C6  UNL     1      14.299  13.225  36.588  0.00  0.00    +0.222 C 
ATOM      2  O1  UNL     1      14.369  14.336  37.182  0.00  0.00    -0.275 OA
ATOM      3  N1  UNL     1      15.338  12.251  36.807  0.00  0.00    -0.301 N 
ATOM      4  C7  UNL     1      16.722  12.703  36.982  0.00  0.00    +0.109 C 
ATOM      5  C8  UNL     1      17.675  11.818  36.169  0.00  0.00    +0.041 C 
ATOM      6  C9  UNL     1      17.389  10.298  36.303  0.00  0.00    +0.079 C 
ATOM      7  C16 UNL     1      16.256   9.986  37.317  0.00  0.00    +0.024 C 
ATOM      8  C17 UNL     1      15.896   8.492  37.316  0.00  0.00    +0.011 C 
ATOM      9  C18 UNL     1      15.006  10.830  36.997  0.00  0.00    +0.112 C 
ENDROOT
BRANCH   1  13
ATOM     10  C1  UNL     1       9.855  14.175  35.739  0.00  0.00    +0.007 C 
ATOM     11  C2  UNL     1      11.109  13.734  35.687  0.00  0.00    -0.075 C 
ATOM     12  C3  UNL     1      11.885  12.523  36.176  0.00  0.00    +0.046 C 
ATOM     13  C4  UNL     1      13.192  12.978  35.572  0.00  0.00    +0.052 C 
ATOM     14  C5  UNL     1      13.670  12.113  34.390  0.00  0.00    +0.021 C 
ATOM     15  C19 UNL     1      12.434  14.208  35.116  0.00  0.00    +0.046 C 
ENDBRANCH   1  13
BRANCH   6  16
ATOM     16  N2  UNL     1      18.623   9.593  36.672  0.00  0.00    -0.307 N 
ATOM     17  C10 UNL     1      19.286   8.698  35.765  0.00  0.00    +0.264 C 
ATOM     18  O2  UNL     1      18.802   8.491  34.619  0.00  0.00    -0.268 OA
ATOM     19  H13 UNL     1      19.058   9.796  37.599  0.00  0.00    +0.149 HD
BRANCH  17  20
ATOM     20  C11 UNL     1      20.534   8.010  36.145  0.00  0.00    +0.147 A 
ATOM     21  C12 UNL     1      21.494   7.491  35.290  0.00  0.00    +0.057 A 
ATOM     22  C13 UNL     1      22.447   6.960  36.136  0.00  0.00    +0.037 A 
ATOM     23  C14 UNL     1      23.728   6.311  35.715  0.00  0.00    +0.065 C 
ATOM     24  N3  UNL     1      22.065   7.174  37.410  0.00  0.00    -0.271 N 
ATOM     25  C15 UNL     1      22.792   6.786  38.614  0.00  0.00    +0.172 C 
ATOM     26  N4  UNL     1      20.904   7.807  37.427  0.00  0.00    -0.167 NA
ENDBRANCH  17  20
ENDBRANCH   6  16
TORSDOF 3
ENDMDL
MODEL 8
REMARK VINA RESULT:    -5.833      9.762     12.565
REMARK INTER + INTRA:          -7.245
REMARK INTER:                  -6.867
REMARK INTRA:                  -0.378
REMARK UNBOUND:                -0.390
REMARK  Name = /home/qwerty/github/datacon2025hack/step_04_hit_selection/docking/ligands/lig_29.pdb
REMARK  7 active torsions:
REMARK  status: ('A' for Active; 'I' for Inactive)
REMARK    1  A    between atoms: C4_4  and  C5_5
REMARK    2  A    between atoms: C4_4  and  C6_6
REMARK    3  A    between atoms: C9_11  and  N2_12
REMARK    4  A    between atoms: C10_13  and  C11_15
REMARK    5  A    between atoms: C13_17  and  C14_18
REMARK    6  A    between atoms: N3_19  and  C15_20
REMARK    7  A    between atoms: C16_22  and  C17_23
REMARK                            x       y       z     vdW  Elec       q    Type
REMARK                         _______ _______ _______ _____ _____    ______ ____
ROOT
ATOM      1  C6  UNL     1       9.169   6.722  20.982  0.00  0.00    +0.222 C 
ATOM      2  O1  UNL     1       8.126   6.512  20.305  0.00  0.00    -0.275 OA
ATOM      3  N1  UNL     1      10.310   5.861  20.790  0.00  0.00    -0.301 N 
ATOM      4  C7  UNL     1      10.096   4.435  20.521  0.00  0.00    +0.109 C 
ATOM      5  C8  UNL     1      11.067   3.589  21.354  0.00  0.00    +0.041 C 
ATOM      6  C9  UNL     1      12.528   4.116  21.346  0.00  0.00    +0.079 C 
ATOM      7  C16 UNL     1      12.721   5.337  20.408  0.00  0.00    +0.024 C 
ATOM      8  C17 UNL     1      14.135   5.926  20.535  0.00  0.00    +0.011 C 
ATOM      9  C18 UNL     1      11.669   6.421  20.720  0.00  0.00    +0.112 C 
ENDROOT
BRANCH   1  13
ATOM     10  C1  UNL     1       7.990  11.127  21.735  0.00  0.00    +0.007 C 
ATOM     11  C2  UNL     1       8.427   9.875  21.845  0.00  0.00    -0.075 C 
ATOM     12  C3  UNL     1       9.728   9.126  21.614  0.00  0.00    +0.046 C 
ATOM     13  C4  UNL     1       9.170   7.796  22.061  0.00  0.00    +0.052 C 
ATOM     14  C5  UNL     1       9.758   7.285  23.390  0.00  0.00    +0.021 C 
ATOM     15  C19 UNL     1       7.858   8.529  22.256  0.00  0.00    +0.046 C 
ENDBRANCH   1  13
BRANCH   6  16
ATOM     16  N2  UNL     1      13.443   3.029  20.976  0.00  0.00    -0.307 N 
ATOM     17  C10 UNL     1      14.121   2.237  21.965  0.00  0.00    +0.264 C 
ATOM     18  O2  UNL     1      13.944   2.476  23.191  0.00  0.00    -0.268 OA
ATOM     19  H13 UNL     1      13.557   2.792  19.966  0.00  0.00    +0.149 HD
BRANCH  17  20
ATOM     20  C11 UNL     1      15.024   1.139  21.578  0.00  0.00    +0.147 A 
ATOM     21  C12 UNL     1      15.370   0.757  20.291  0.00  0.00    +0.057 A 
ATOM     22  C13 UNL     1      16.229  -0.309  20.474  0.00  0.00    +0.037 A 
ATOM     23  C14 UNL     1      16.930  -1.065  19.390  0.00  0.00    +0.065 C 
ATOM     24  N3  UNL     1      16.382  -0.521  21.795  0.00  0.00    -0.271 N 
ATOM     25  C15 UNL     1      17.216  -1.541  22.423  0.00  0.00    +0.172 C 
ATOM     26  N4  UNL     1      15.652   0.348  22.475  0.00  0.00    -0.167 NA
ENDBRANCH  17  20
ENDBRANCH   6  16
TORSDOF 3
ENDMDL
MODEL 9
REMARK VINA RESULT:    -5.774     13.704     16.132
REMARK INTER + INTRA:          -7.177
REMARK INTER:                  -6.798
REMARK INTRA:                  -0.379
REMARK UNBOUND:                -0.390
REMARK  Name = /home/qwerty/github/datacon2025hack/step_04_hit_selection/docking/ligands/lig_29.pdb
REMARK  7 active torsions:
REMARK  status: ('A' for Active; 'I' for Inactive)
REMARK    1  A    between atoms: C4_4  and  C5_5
REMARK    2  A    between atoms: C4_4  and  C6_6
REMARK    3  A    between atoms: C9_11  and  N2_12
REMARK    4  A    between atoms: C10_13  and  C11_15
REMARK    5  A    between atoms: C13_17  and  C14_18
REMARK    6  A    between atoms: N3_19  and  C15_20
REMARK    7  A    between atoms: C16_22  and  C17_23
REMARK                            x       y       z     vdW  Elec       q    Type
REMARK                         _______ _______ _______ _____ _____    ______ ____
ROOT
ATOM      1  C6  UNL     1      10.201  13.593  28.999  0.00  0.00    +0.222 C 
ATOM      2  O1  UNL     1      10.645  14.104  27.934  0.00  0.00    -0.275 OA
ATOM      3  N1  UNL     1      11.082  13.473  30.134  0.00  0.00    -0.301 N 
ATOM      4  C7  UNL     1      12.498  13.163  29.915  0.00  0.00    +0.109 C 
ATOM      5  C8  UNL     1      12.968  12.098  30.914  0.00  0.00    +0.041 C 
ATOM      6  C9  UNL     1      12.500  12.355  32.373  0.00  0.00    +0.079 C 
ATOM      7  C16 UNL     1      11.739  13.697  32.533  0.00  0.00    +0.024 C 
ATOM      8  C17 UNL     1      11.162  13.852  33.949  0.00  0.00    +0.011 C 
ATOM      9  C18 UNL     1      10.607  13.796  31.489  0.00  0.00    +0.112 C 
ENDROOT
BRANCH   1  13
ATOM     10  C1  UNL     1       7.767   9.865  27.757  0.00  0.00    +0.007 C 
ATOM     11  C2  UNL     1       8.165  11.042  28.233  0.00  0.00    -0.075 C 
ATOM     12  C3  UNL     1       8.318  12.460  27.711  0.00  0.00    +0.046 C 
ATOM     13  C4  UNL     1       8.794  13.013  29.033  0.00  0.00    +0.052 C 
ATOM     14  C5  UNL     1       7.790  13.964  29.711  0.00  0.00    +0.021 C 
ATOM     15  C19 UNL     1       8.682  11.593  29.549  0.00  0.00    +0.046 C 
ENDBRANCH   1  13
BRANCH   6  16
ATOM     16  N2  UNL     1      13.656  12.304  33.278  0.00  0.00    -0.307 N 
ATOM     17  C10 UNL     1      13.738  11.354  34.352  0.00  0.00    +0.264 C 
ATOM     18  O2  UNL     1      12.794  10.539  34.544  0.00  0.00    -0.268 OA
ATOM     19  H13 UNL     1      14.463  12.941  33.096  0.00  0.00    +0.149 HD
BRANCH  17  20
ATOM     20  C11 UNL     1      14.912  11.305  35.242  0.00  0.00    +0.147 A 
ATOM     21  C12 UNL     1      15.058  10.541  36.390  0.00  0.00    +0.057 A 
ATOM     22  C13 UNL     1      16.322  10.856  36.847  0.00  0.00    +0.037 A 
ATOM     23  C14 UNL     1      16.994  10.264  38.045  0.00  0.00    +0.065 C 
ATOM     24  N3  UNL     1      16.881  11.743  36.001  0.00  0.00    -0.271 N 
ATOM     25  C15 UNL     1      18.215  12.326  36.105  0.00  0.00    +0.172 C 
ATOM     26  N4  UNL     1      16.033  12.026  35.026  0.00  0.00    -0.167 NA
ENDBRANCH  17  20
ENDBRANCH   6  16
TORSDOF 3
ENDMDL
