REMARK  Name = /home/qwerty/github/datacon2025hack/step_04_hit_selection/docking/ligands/lig_721.pdb
REMARK  6 active torsions:
REMARK  status: ('A' for Active; 'I' for Inactive)
REMARK    1  A    between atoms: C1_1  and  C2_2
REMARK    2  A    between atoms: C3_4  and  C4_5
REMARK    3  A    between atoms: C5_6  and  C6_7
REMARK    4  A    between atoms: C11_15  and  C12_17
REMARK    5  A    between atoms: N4_20  and  C15_21
REMARK    6  A    between atoms: C16_22  and  C17_23
REMARK                            x       y       z     vdW  Elec       q    Type
REMARK                         _______ _______ _______ _____ _____    ______ ____
ROOT
ATOM      1  C6  UNL     1      -1.268   0.294  -0.151  0.00  0.00    +0.265 C 
ATOM      2  O1  UNL     1      -0.354   1.132   0.073  0.00  0.00    -0.268 OA
ATOM      3  N2  UNL     1      -0.960  -1.108  -0.144  0.00  0.00    -0.294 N 
ATOM      4  C7  UNL     1      -1.701  -1.999   0.759  0.00  0.00    +0.108 C 
ATOM      5  C8  UNL     1      -1.136  -3.431   0.753  0.00  0.00    +0.026 C 
ATOM      6  C9  UNL     1       0.408  -3.494   0.760  0.00  0.00    +0.030 C 
ATOM      7  C10 UNL     1       1.078  -2.737   1.871  0.00  0.00    +0.114 C 
ATOM      8  N3  UNL     1       1.707  -1.714   1.010  0.00  0.00    -0.292 N 
ATOM      9  C11 UNL     1       2.452  -0.513   1.223  0.00  0.00    +0.249 C 
ATOM     10  O2  UNL     1       2.594  -0.083   2.398  0.00  0.00    -0.270 OA
ATOM     11  C18 UNL     1       1.102  -2.477  -0.105  0.00  0.00    +0.098 C 
ATOM     12  C19 UNL     1       0.153  -1.614  -0.954  0.00  0.00    +0.131 C 
ENDROOT
BRANCH   1  18
ATOM     13  C1  UNL     1      -5.358   3.055   0.086  0.00  0.00    +0.086 C 
ATOM     14  C2  UNL     1      -4.420   1.951  -0.270  0.00  0.00    +0.105 A 
ATOM     15  N1  UNL     1      -4.714   0.995  -1.178  0.00  0.00    -0.237 NA
ATOM     16  C3  UNL     1      -3.589   0.254  -1.247  0.00  0.00    +0.069 A 
ATOM     17  C4  UNL     1      -3.427  -0.902  -2.184  0.00  0.00    +0.068 C 
ATOM     18  C5  UNL     1      -2.642   0.771  -0.379  0.00  0.00    +0.124 A 
ATOM     19  N5  UNL     1      -3.165   1.857   0.213  0.00  0.00    -0.338 N 
ATOM     20  H25 UNL     1      -2.702   2.491   0.903  0.00  0.00    +0.167 HD
ENDBRANCH   1  18
BRANCH   9  21
ATOM     21  C12 UNL     1       3.037   0.236   0.095  0.00  0.00    +0.057 A 
ATOM     22  C13 UNL     1       3.476  -0.303  -1.103  0.00  0.00    +0.032 A 
ATOM     23  C14 UNL     1       3.983   0.745  -1.844  0.00  0.00    +0.086 A 
ATOM     24  N4  UNL     1       3.879   1.895  -1.150  0.00  0.00    -0.353 N 
ATOM     25  C15 UNL     1       4.314   3.209  -1.616  0.00  0.00    +0.148 C 
ATOM     26  C16 UNL     1       3.292   1.600   0.032  0.00  0.00    +0.027 A 
ATOM     27  C17 UNL     1       3.009   2.598   1.118  0.00  0.00    +0.064 C 
ENDBRANCH   9  21
TORSDOF 2
