REMARK  Name = /home/qwerty/github/datacon2025hack/step_04_hit_selection/docking/ligands/lig_331.pdb
REMARK  6 active torsions:
REMARK  status: ('A' for Active; 'I' for Inactive)
REMARK    1  A    between atoms: C1_1  and  O1_2
REMARK    2  A    between atoms: O1_2  and  C2_3
REMARK    3  A    between atoms: C2_3  and  C3_5
REMARK    4  A    between atoms: C8_11  and  C9_12
REMARK    5  A    between atoms: C12_16  and  C13_17
REMARK    6  A    between atoms: C17_23  and  C18_24
REMARK                            x       y       z     vdW  Elec       q    Type
REMARK                         _______ _______ _______ _____ _____    ______ ____
ROOT
ATOM      1  C9  UNL     1       1.404  -2.597  -1.283  0.00  0.00    +0.092 A 
ATOM      2  C10 UNL     1       0.652  -3.746  -1.569  0.00  0.00    +0.139 A 
ATOM      3  N2  UNL     1      -0.703  -3.667  -1.615  0.00  0.00    -0.259 NA
ATOM      4  C11 UNL     1      -1.354  -2.498  -1.383  0.00  0.00    +0.139 A 
ATOM      5  C12 UNL     1      -0.616  -1.342  -1.084  0.00  0.00    +0.091 A 
ATOM      6  N6  UNL     1       0.741  -1.432  -1.053  0.00  0.00    -0.244 NA
ENDROOT
BRANCH   1  13
ATOM      7  C3  UNL     1       4.635   0.419   0.138  0.00  0.00    +0.060 A 
ATOM      8  C4  UNL     1       5.945  -0.087  -0.062  0.00  0.00    +0.017 A 
ATOM      9  C5  UNL     1       6.147  -1.361  -0.617  0.00  0.00    +0.027 A 
ATOM     10  C6  UNL     1       5.026  -2.109  -0.967  0.00  0.00    +0.047 A 
ATOM     11  N1  UNL     1       5.015  -3.339  -1.503  0.00  0.00    -0.360 N 
ATOM     12  C7  UNL     1       3.714  -3.663  -1.672  0.00  0.00    +0.093 A 
ATOM     13  C8  UNL     1       2.886  -2.626  -1.238  0.00  0.00    +0.027 A 
ATOM     14  C25 UNL     1       3.752  -1.634  -0.787  0.00  0.00    +0.010 A 
ATOM     15  C26 UNL     1       3.520  -0.372  -0.229  0.00  0.00    +0.025 A 
ATOM     16  H6  UNL     1       5.841  -3.929  -1.747  0.00  0.00    +0.165 HD
BRANCH   7  17
ATOM     17  C2  UNL     1       4.439   1.762   0.727  0.00  0.00    +0.339 C 
ATOM     18  O2  UNL     1       3.273   2.215   0.899  0.00  0.00    -0.245 OA
BRANCH  17  20
ATOM     19  C1  UNL     1       5.430   3.830   1.661  0.00  0.00    +0.280 C 
ATOM     20  O1  UNL     1       5.549   2.532   1.091  0.00  0.00    -0.464 OA
ENDBRANCH  17  20
ENDBRANCH   7  17
ENDBRANCH   1  13
BRANCH   5  21
ATOM     21  C13 UNL     1      -1.265  -0.032  -0.821  0.00  0.00    +0.021 A 
ATOM     22  C14 UNL     1      -0.542   1.173  -1.040  0.00  0.00    +0.123 A 
ATOM     23  N3  UNL     1      -1.108   2.388  -0.777  0.00  0.00    -0.237 NA
ATOM     24  C15 UNL     1      -2.378   2.441  -0.312  0.00  0.00    +0.139 A 
ATOM     25  N4  UNL     1      -3.045   3.554   0.030  0.00  0.00    -0.345 N 
ATOM     26  C16 UNL     1      -4.248   3.133   0.483  0.00  0.00    +0.093 A 
ATOM     27  C17 UNL     1      -4.340   1.742   0.415  0.00  0.00    +0.010 A 
ATOM     28  C23 UNL     1      -3.123   1.317  -0.093  0.00  0.00    +0.027 A 
ATOM     29  C24 UNL     1      -2.585   0.051  -0.316  0.00  0.00    +0.023 A 
ATOM     30  H11 UNL     1      -2.703   4.539  -0.028  0.00  0.00    +0.167 HD
BRANCH  27  31
ATOM     31  C18 UNL     1      -5.507   0.925   0.812  0.00  0.00    +0.002 A 
ATOM     32  C19 UNL     1      -5.886  -0.206   0.073  0.00  0.00    +0.011 A 
ATOM     33  C20 UNL     1      -6.998  -0.955   0.461  0.00  0.00    +0.020 A 
ATOM     34  C21 UNL     1      -7.731  -0.562   1.581  0.00  0.00    +0.111 A 
ATOM     35  N5  UNL     1      -7.364   0.545   2.280  0.00  0.00    -0.263 NA
ATOM     36  C22 UNL     1      -6.285   1.291   1.922  0.00  0.00    +0.119 A 
ENDBRANCH  27  31
ENDBRANCH   5  21
TORSDOF 5
