REMARK  Name = /home/qwerty/github/datacon2025hack/step_04_hit_selection/docking/ligands/lig_225.pdb
REMARK  4 active torsions:
REMARK  status: ('A' for Active; 'I' for Inactive)
REMARK    1  A    between atoms: C1_2  and  C8_12
REMARK    2  A    between atoms: N1_3  and  C2_4
REMARK    3  A    between atoms: C7_10  and  O2_11
REMARK    4  A    between atoms: C11_15  and  C12_16
REMARK                            x       y       z     vdW  Elec       q    Type
REMARK                         _______ _______ _______ _____ _____    ______ ____
ROOT
ATOM      1  O1  UNL     1       1.200   1.127   0.918  0.00  0.00    -0.266 OA
ATOM      2  C1  UNL     1       1.158   0.199   0.066  0.00  0.00    +0.284 C 
ATOM      3  N1  UNL     1       2.376  -0.330  -0.482  0.00  0.00    -0.276 N 
ATOM      4  H1  UNL     1       2.335  -0.858  -1.382  0.00  0.00    +0.155 HD
ENDROOT
BRANCH   3   5
ATOM      5  C2  UNL     1       3.668   0.091  -0.021  0.00  0.00    +0.077 A 
ATOM      6  C3  UNL     1       4.568   0.651  -0.940  0.00  0.00    +0.047 A 
ATOM      7  C4  UNL     1       5.822   1.103  -0.519  0.00  0.00    +0.043 A 
ATOM      8 CL1  UNL     1       6.931   1.820  -1.674  0.00  0.00    -0.083 Cl
ATOM      9  C5  UNL     1       6.189   0.991   0.825  0.00  0.00    +0.023 A 
ATOM     10  C6  UNL     1       5.311   0.411   1.744  0.00  0.00    +0.049 A 
ATOM     11  C7  UNL     1       4.059  -0.059   1.329  0.00  0.00    +0.138 A 
BRANCH  11  12
ATOM     12  O2  UNL     1       3.244  -0.694   2.268  0.00  0.00    -0.505 OA
ATOM     13  H5  UNL     1       2.376  -1.151   2.018  0.00  0.00    +0.292 HD
ENDBRANCH  11  12
ENDBRANCH   3   5
BRANCH   2  14
ATOM     14  C8  UNL     1      -0.154  -0.315  -0.361  0.00  0.00    +0.190 A 
ATOM     15  C9  UNL     1      -0.390  -1.377  -1.215  0.00  0.00    +0.055 A 
ATOM     16  C10 UNL     1      -1.760  -1.487  -1.308  0.00  0.00    +0.050 A 
ATOM     17  C11 UNL     1      -2.280  -0.484  -0.504  0.00  0.00    +0.136 A 
ATOM     18  O3  UNL     1      -1.295   0.192   0.044  0.00  0.00    -0.450 OA
BRANCH  17  19
ATOM     19  C12 UNL     1      -3.711  -0.181  -0.265  0.00  0.00    +0.017 A 
ATOM     20  C13 UNL     1      -4.062   0.878   0.591  0.00  0.00    +0.014 A 
ATOM     21  C14 UNL     1      -5.406   1.181   0.831  0.00  0.00    +0.039 A 
ATOM     22  C15 UNL     1      -6.413   0.431   0.220  0.00  0.00    +0.123 A 
ATOM     23  F1  UNL     1      -7.716   0.726   0.453  0.00  0.00    -0.205 F 
ATOM     24  C16 UNL     1      -6.077  -0.624  -0.633  0.00  0.00    +0.039 A 
ATOM     25  C17 UNL     1      -4.735  -0.931  -0.876  0.00  0.00    +0.014 A 
ENDBRANCH  17  19
ENDBRANCH   2  14
TORSDOF 4
