REMARK  Name = /home/qwerty/github/datacon2025hack/step_04_hit_selection/docking/ligands/lig_705.pdb
REMARK  6 active torsions:
REMARK  status: ('A' for Active; 'I' for Inactive)
REMARK    1  A    between atoms: C1_1  and  C2_2
REMARK    2  A    between atoms: C2_2  and  C3_3
REMARK    3  A    between atoms: C2_2  and  C4_4
REMARK    4  A    between atoms: N1_6  and  C5_7
REMARK    5  A    between atoms: C8_10  and  N2_11
REMARK    6  A    between atoms: N3_14  and  C10_15
REMARK                            x       y       z     vdW  Elec       q    Type
REMARK                         _______ _______ _______ _____ _____    ______ ____
ROOT
ATOM      1  N2  UNL     1      -1.051   0.781   1.134  0.00  0.00    -0.269 N 
ATOM      2  C9  UNL     1      -2.234   0.422   0.403  0.00  0.00    +0.308 C 
ATOM      3  O2  UNL     1      -2.151   0.074  -0.807  0.00  0.00    -0.252 OA
ATOM      4  N3  UNL     1      -3.518   0.542   1.034  0.00  0.00    -0.269 N 
ATOM      5  H11 UNL     1      -1.172   1.337   2.010  0.00  0.00    +0.156 HD
ATOM      6  H12 UNL     1      -3.576   1.106   1.912  0.00  0.00    +0.156 HD
ENDROOT
BRANCH   4   7
ATOM      7  C10 UNL     1      -4.741   0.028   0.480  0.00  0.00    +0.038 A 
ATOM      8  C11 UNL     1      -4.763  -1.178  -0.273  0.00  0.00    +0.027 A 
ATOM      9  C12 UNL     1      -5.974  -1.678  -0.787  0.00  0.00    +0.051 A 
ATOM     10  C13 UNL     1      -7.137  -0.964  -0.520  0.00  0.00    +0.166 A 
ATOM     11  C14 UNL     1      -7.127   0.176   0.213  0.00  0.00    +0.168 A 
ATOM     12  C15 UNL     1      -5.952   0.705   0.740  0.00  0.00    +0.073 A 
ATOM     13  O3  UNL     1      -8.415   0.663   0.324  0.00  0.00    -0.453 OA
ATOM     14  C16 UNL     1      -9.288  -0.227  -0.385  0.00  0.00    +0.466 C 
ATOM     15  O4  UNL     1      -8.432  -1.252  -0.908  0.00  0.00    -0.453 OA
ENDBRANCH   4   7
BRANCH   1  19
ATOM     16  C5  UNL     1       2.944   0.004  -0.119  0.00  0.00    +0.034 A 
ATOM     17  C6  UNL     1       2.630   1.165   0.609  0.00  0.00    +0.025 A 
ATOM     18  C7  UNL     1       1.316   1.409   1.017  0.00  0.00    +0.025 A 
ATOM     19  C8  UNL     1       0.288   0.516   0.682  0.00  0.00    +0.035 A 
ATOM     20  C17 UNL     1       0.602  -0.645  -0.046  0.00  0.00    +0.025 A 
ATOM     21  C18 UNL     1       1.917  -0.889  -0.453  0.00  0.00    +0.025 A 
BRANCH  16  24
ATOM     22  C4  UNL     1       5.466   0.115   0.154  0.00  0.00    +0.220 C 
ATOM     23  O1  UNL     1       5.390   0.448   1.368  0.00  0.00    -0.275 OA
ATOM     24  N1  UNL     1       4.284  -0.260  -0.571  0.00  0.00    -0.285 N 
ATOM     25  H8  UNL     1       4.404  -0.831  -1.438  0.00  0.00    +0.155 HD
BRANCH  22  27
ATOM     26  C1  UNL     1       7.617   1.315  -0.295  0.00  0.00    +0.017 C 
ATOM     27  C2  UNL     1       6.816   0.027  -0.512  0.00  0.00    +0.069 C 
ATOM     28  C3  UNL     1       7.584  -1.191   0.008  0.00  0.00    +0.017 C 
ENDBRANCH  22  27
ENDBRANCH  16  24
ENDBRANCH   1  19
TORSDOF 4
