REMARK  Name = /home/qwerty/github/datacon2025hack/step_04_hit_selection/docking/ligands/lig_621.pdb
REMARK  5 active torsions:
REMARK  status: ('A' for Active; 'I' for Inactive)
REMARK    1  A    between atoms: C1_1  and  C2_2
REMARK    2  A    between atoms: C5_6  and  C6_7
REMARK    3  A    between atoms: N1_9  and  C7_10
REMARK    4  A    between atoms: C10_14  and  C11_16
REMARK    5  A    between atoms: C15_20  and  O3_21
REMARK                            x       y       z     vdW  Elec       q    Type
REMARK                         _______ _______ _______ _____ _____    ______ ____
ROOT
ATOM      1  C6  UNL     1       1.972   0.628  -0.790  0.00  0.00    +0.250 C 
ATOM      2  O1  UNL     1       1.604   0.861  -1.974  0.00  0.00    -0.270 OA
ATOM      3  N1  UNL     1       1.012   0.670   0.278  0.00  0.00    -0.306 N 
ATOM      4  H5  UNL     1       1.363   0.702   1.262  0.00  0.00    +0.149 HD
ENDROOT
BRANCH   1  10
ATOM      5  C1  UNL     1       7.561  -0.491   0.285  0.00  0.00    +0.044 C 
ATOM      6  C2  UNL     1       6.115  -0.228  -0.015  0.00  0.00    -0.045 A 
ATOM      7  C3  UNL     1       5.112  -0.885   0.710  0.00  0.00    +0.042 A 
ATOM      8  C4  UNL     1       3.763  -0.615   0.459  0.00  0.00    +0.139 A 
ATOM      9  F1  UNL     1       2.821  -1.316   1.140  0.00  0.00    -0.205 F 
ATOM     10  C5  UNL     1       3.397   0.335  -0.514  0.00  0.00    +0.107 A 
ATOM     11  C16 UNL     1       4.409   0.997  -1.237  0.00  0.00    +0.139 A 
ATOM     12  F2  UNL     1       4.097   1.931  -2.172  0.00  0.00    -0.205 F 
ATOM     13  C17 UNL     1       5.756   0.723  -0.980  0.00  0.00    +0.042 A 
ENDBRANCH   1  10
BRANCH   3  14
ATOM     14  C7  UNL     1      -0.431   0.758   0.028  0.00  0.00    +0.105 C 
ATOM     15  C8  UNL     1      -0.955  -0.599  -0.470  0.00  0.00    +0.044 C 
ATOM     16  C9  UNL     1      -2.469  -0.559  -0.702  0.00  0.00    +0.110 C 
ATOM     17  N2  UNL     1      -3.163  -0.060   0.495  0.00  0.00    -0.299 N 
ATOM     18  C10 UNL     1      -4.441  -0.603   0.895  0.00  0.00    +0.219 C 
ATOM     19  O2  UNL     1      -4.891  -0.367   2.049  0.00  0.00    -0.275 OA
ATOM     20  C14 UNL     1      -2.699   1.208   1.077  0.00  0.00    +0.141 C 
ATOM     21  C15 UNL     1      -1.181   1.167   1.316  0.00  0.00    +0.152 C 
BRANCH  18  22
ATOM     22  C11 UNL     1      -5.240  -1.490  -0.020  0.00  0.00    +0.075 C 
ATOM     23  C12 UNL     1      -6.704  -1.102  -0.171  0.00  0.00    +0.013 C 
ATOM     24  C13 UNL     1      -5.725  -0.813  -1.293  0.00  0.00    +0.013 C 
ENDBRANCH  18  22
BRANCH  21  25
ATOM     25  O3  UNL     1      -0.725   2.408   1.793  0.00  0.00    -0.388 OA
ATOM     26  H19 UNL     1      -0.889   3.083   1.083  0.00  0.00    +0.210 HD
ENDBRANCH  21  25
ENDBRANCH   3  14
TORSDOF 4
