MODEL 1
REMARK VINA RESULT:    -7.260      0.000      0.000
REMARK INTER + INTRA:          -9.260
REMARK INTER:                  -8.533
REMARK INTRA:                  -0.727
REMARK UNBOUND:                -0.727
REMARK  Name = /home/qwerty/github/datacon2025hack/step_04_hit_selection/docking/ligands/lig_296.pdb
REMARK  4 active torsions:
REMARK  status: ('A' for Active; 'I' for Inactive)
REMARK    1  A    between atoms: C1_1  and  C2_2
REMARK    2  A    between atoms: C8_9  and  C9_11
REMARK    3  A    between atoms: C15_19  and  C16_20
REMARK    4  A    between atoms: C21_26  and  C22_27
REMARK                            x       y       z     vdW  Elec       q    Type
REMARK                         _______ _______ _______ _____ _____    ______ ____
ROOT
ATOM      1  C1  UNL     1      21.908   5.009  34.487  0.00  0.00    +0.044 C 
ATOM      2  C2  UNL     1      21.609   3.915  33.505  0.00  0.00    -0.049 A 
ATOM      3  C3  UNL     1      22.508   3.644  32.449  0.00  0.00    +0.004 A 
ATOM      4  C4  UNL     1      22.265   2.583  31.563  0.00  0.00    +0.006 A 
ATOM      5  C5  UNL     1      21.117   1.811  31.745  0.00  0.00    -0.017 A 
ATOM      6  C6  UNL     1      20.237   2.073  32.761  0.00  0.00    +0.041 A 
ATOM      7  C7  UNL     1      20.472   3.100  33.680  0.00  0.00    +0.027 A 
ATOM      8  N1  UNL     1      19.184   1.123  32.783  0.00  0.00    -0.263 N 
ATOM      9  C8  UNL     1      18.026   1.133  33.627  0.00  0.00    +0.306 C 
ATOM     10  O1  UNL     1      17.716   0.085  34.251  0.00  0.00    -0.265 OA
ATOM     11  C20 UNL     1      19.438   0.106  31.763  0.00  0.00    +0.127 C 
ATOM     12  C21 UNL     1      20.684   0.605  30.973  0.00  0.00    +0.069 C 
ENDROOT
BRANCH   9  13
ATOM     13  C9  UNL     1      17.177   2.335  33.738  0.00  0.00    +0.302 C 
ATOM     14  O2  UNL     1      16.324   2.587  32.846  0.00  0.00    -0.265 OA
ATOM     15  N2  UNL     1      17.295   3.222  34.852  0.00  0.00    -0.287 N 
ATOM     16  C10 UNL     1      16.985   4.650  35.104  0.00  0.00    +0.117 C 
ATOM     17  C11 UNL     1      17.532   4.668  36.494  0.00  0.00    +0.008 C 
ATOM     18  C12 UNL     1      16.703   5.252  37.630  0.00  0.00    +0.010 C 
ATOM     19  C13 UNL     1      17.858   6.218  37.915  0.00  0.00    +0.001 C 
ATOM     20  C14 UNL     1      18.697   5.599  36.794  0.00  0.00    +0.010 C 
ATOM     21  C15 UNL     1      17.790   3.206  36.253  0.00  0.00    +0.113 C 
BRANCH  21  22
ATOM     22  C16 UNL     1      17.006   2.204  37.146  0.00  0.00    +0.139 C 
ATOM     23  C17 UNL     1      15.655   1.749  36.586  0.00  0.00    +0.036 C 
ATOM     24  C18 UNL     1      15.562   0.332  37.056  0.00  0.00    +0.031 C 
ATOM     25  C19 UNL     1      17.011  -0.079  37.170  0.00  0.00    +0.160 C 
ATOM     26  O3  UNL     1      17.803   1.065  37.390  0.00  0.00    -0.375 OA
ENDBRANCH  21  22
ENDBRANCH   9  13
BRANCH  12  27
ATOM     27  C22 UNL     1      20.352   0.963  29.539  0.00  0.00    -0.036 A 
ATOM     28  C23 UNL     1      21.315   0.791  28.530  0.00  0.00    +0.004 A 
ATOM     29  C24 UNL     1      21.016   1.118  27.203  0.00  0.00    +0.003 A 
ATOM     30  C25 UNL     1      19.753   1.616  26.872  0.00  0.00    +0.038 A 
ATOM     31  C26 UNL     1      18.786   1.790  27.865  0.00  0.00    +0.124 A 
ATOM     32  F1  UNL     1      17.562   2.273  27.541  0.00  0.00    -0.205 F 
ATOM     33  C27 UNL     1      19.081   1.466  29.193  0.00  0.00    +0.042 A 
ENDBRANCH  12  27
TORSDOF 3
ENDMDL
MODEL 2
REMARK VINA RESULT:    -7.142      2.585      7.401
REMARK INTER + INTRA:          -9.121
REMARK INTER:                  -8.902
REMARK INTRA:                  -0.219
REMARK UNBOUND:                -0.727
REMARK  Name = /home/qwerty/github/datacon2025hack/step_04_hit_selection/docking/ligands/lig_296.pdb
REMARK  4 active torsions:
REMARK  status: ('A' for Active; 'I' for Inactive)
REMARK    1  A    between atoms: C1_1  and  C2_2
REMARK    2  A    between atoms: C8_9  and  C9_11
REMARK    3  A    between atoms: C15_19  and  C16_20
REMARK    4  A    between atoms: C21_26  and  C22_27
REMARK                            x       y       z     vdW  Elec       q    Type
REMARK                         _______ _______ _______ _____ _____    ______ ____
ROOT
ATOM      1  C1  UNL     1      22.985   7.197  36.437  0.00  0.00    +0.044 C 
ATOM      2  C2  UNL     1      21.591   6.649  36.349  0.00  0.00    -0.049 A 
ATOM      3  C3  UNL     1      20.706   6.783  37.441  0.00  0.00    +0.004 A 
ATOM      4  C4  UNL     1      19.382   6.326  37.344  0.00  0.00    +0.006 A 
ATOM      5  C5  UNL     1      18.967   5.732  36.152  0.00  0.00    -0.017 A 
ATOM      6  C6  UNL     1      19.822   5.590  35.092  0.00  0.00    +0.041 A 
ATOM      7  C7  UNL     1      21.135   6.069  35.148  0.00  0.00    +0.027 A 
ATOM      8  N1  UNL     1      19.162   5.017  33.975  0.00  0.00    -0.263 N 
ATOM      9  C8  UNL     1      19.751   4.620  32.731  0.00  0.00    +0.306 C 
ATOM     10  O1  UNL     1      19.220   4.998  31.655  0.00  0.00    -0.265 OA
ATOM     11  C20 UNL     1      17.744   4.854  34.292  0.00  0.00    +0.127 C 
ATOM     12  C21 UNL     1      17.604   5.229  35.797  0.00  0.00    +0.069 C 
ENDROOT
BRANCH   9  13
ATOM     13  C9  UNL     1      20.938   3.744  32.697  0.00  0.00    +0.302 C 
ATOM     14  O2  UNL     1      21.793   3.806  33.620  0.00  0.00    -0.265 OA
ATOM     15  N2  UNL     1      21.136   2.810  31.634  0.00  0.00    -0.287 N 
ATOM     16  C10 UNL     1      22.306   2.128  31.030  0.00  0.00    +0.117 C 
ATOM     17  C11 UNL     1      21.529   1.444  29.953  0.00  0.00    +0.008 C 
ATOM     18  C12 UNL     1      21.711  -0.048  29.712  0.00  0.00    +0.010 C 
ATOM     19  C13 UNL     1      22.088   0.278  28.264  0.00  0.00    +0.001 C 
ATOM     20  C14 UNL     1      21.866   1.773  28.507  0.00  0.00    +0.010 C 
ATOM     21  C15 UNL     1      20.338   2.093  30.605  0.00  0.00    +0.113 C 
BRANCH  21  22
ATOM     22  C16 UNL     1      19.283   1.139  31.234  0.00  0.00    +0.139 C 
ATOM     23  C17 UNL     1      19.657   0.564  32.604  0.00  0.00    +0.036 C 
ATOM     24  C18 UNL     1      18.336   0.478  33.299  0.00  0.00    +0.031 C 
ATOM     25  C19 UNL     1      17.539   1.579  32.639  0.00  0.00    +0.160 C 
ATOM     26  O3  UNL     1      18.047   1.811  31.346  0.00  0.00    -0.375 OA
ENDBRANCH  21  22
ENDBRANCH   9  13
BRANCH  12  27
ATOM     27  C22 UNL     1      17.217   4.042  36.654  0.00  0.00    -0.036 A 
ATOM     28  C23 UNL     1      16.444   4.232  37.813  0.00  0.00    +0.004 A 
ATOM     29  C24 UNL     1      16.082   3.141  38.609  0.00  0.00    +0.003 A 
ATOM     30  C25 UNL     1      16.484   1.851  38.254  0.00  0.00    +0.038 A 
ATOM     31  C26 UNL     1      17.252   1.648  37.104  0.00  0.00    +0.124 A 
ATOM     32  F1  UNL     1      17.640   0.395  36.762  0.00  0.00    -0.205 F 
ATOM     33  C27 UNL     1      17.617   2.736  36.306  0.00  0.00    +0.042 A 
ENDBRANCH  12  27
TORSDOF 3
ENDMDL
MODEL 3
REMARK VINA RESULT:    -7.071      6.634     10.718
REMARK INTER + INTRA:          -9.038
REMARK INTER:                  -8.822
REMARK INTRA:                  -0.215
REMARK UNBOUND:                -0.727
REMARK  Name = /home/qwerty/github/datacon2025hack/step_04_hit_selection/docking/ligands/lig_296.pdb
REMARK  4 active torsions:
REMARK  status: ('A' for Active; 'I' for Inactive)
REMARK    1  A    between atoms: C1_1  and  C2_2
REMARK    2  A    between atoms: C8_9  and  C9_11
REMARK    3  A    between atoms: C15_19  and  C16_20
REMARK    4  A    between atoms: C21_26  and  C22_27
REMARK                            x       y       z     vdW  Elec       q    Type
REMARK                         _______ _______ _______ _____ _____    ______ ____
ROOT
ATOM      1  C1  UNL     1      16.178  -0.947  21.728  0.00  0.00    +0.044 C 
ATOM      2  C2  UNL     1      16.515   0.514  21.755  0.00  0.00    -0.049 A 
ATOM      3  C3  UNL     1      16.253   1.325  20.628  0.00  0.00    +0.004 A 
ATOM      4  C4  UNL     1      16.510   2.704  20.668  0.00  0.00    +0.006 A 
ATOM      5  C5  UNL     1      17.038   3.251  21.839  0.00  0.00    -0.017 A 
ATOM      6  C6  UNL     1      17.303   2.470  22.932  0.00  0.00    +0.041 A 
ATOM      7  C7  UNL     1      17.022   1.100  22.933  0.00  0.00    +0.027 A 
ATOM      8  N1  UNL     1      17.773   3.252  24.018  0.00  0.00    -0.263 N 
ATOM      9  C8  UNL     1      18.253   2.780  25.282  0.00  0.00    +0.306 C 
ATOM     10  O1  UNL     1      17.801   3.294  26.338  0.00  0.00    -0.265 OA
ATOM     11  C20 UNL     1      17.727   4.665  23.641  0.00  0.00    +0.127 C 
ATOM     12  C21 UNL     1      17.335   4.686  22.135  0.00  0.00    +0.069 C 
ENDROOT
BRANCH   9  13
ATOM     13  C9  UNL     1      19.294   1.736  25.359  0.00  0.00    +0.302 C 
ATOM     14  O2  UNL     1      19.368   0.854  24.463  0.00  0.00    -0.265 OA
ATOM     15  N2  UNL     1      20.235   1.711  26.434  0.00  0.00    -0.287 N 
ATOM     16  C10 UNL     1      21.076   0.673  27.078  0.00  0.00    +0.117 C 
ATOM     17  C11 UNL     1      21.626   1.575  28.134  0.00  0.00    +0.008 C 
ATOM     18  C12 UNL     1      23.126   1.621  28.390  0.00  0.00    +0.010 C 
ATOM     19  C13 UNL     1      22.843   1.245  29.848  0.00  0.00    +0.001 C 
ATOM     20  C14 UNL     1      21.334   1.236  29.589  0.00  0.00    +0.010 C 
ATOM     21  C15 UNL     1      20.816   2.636  27.441  0.00  0.00    +0.113 C 
BRANCH  21  22
ATOM     22  C16 UNL     1      21.611   3.800  26.785  0.00  0.00    +0.139 C 
ATOM     23  C17 UNL     1      22.224   3.484  25.417  0.00  0.00    +0.036 C 
ATOM     24  C18 UNL     1      22.122   4.790  24.698  0.00  0.00    +0.031 C 
ATOM     25  C19 UNL     1      20.926   5.441  25.353  0.00  0.00    +0.160 C 
ATOM     26  O3  UNL     1      20.774   4.929  26.656  0.00  0.00    -0.375 OA
ENDBRANCH  21  22
ENDBRANCH   9  13
BRANCH  12  27
ATOM     27  C22 UNL     1      18.453   5.207  21.255  0.00  0.00    -0.036 A 
ATOM     28  C23 UNL     1      18.151   5.920  20.082  0.00  0.00    +0.004 A 
ATOM     29  C24 UNL     1      19.177   6.405  19.265  0.00  0.00    +0.003 A 
ATOM     30  C25 UNL     1      20.512   6.186  19.613  0.00  0.00    +0.038 A 
ATOM     31  C26 UNL     1      20.826   5.480  20.777  0.00  0.00    +0.124 A 
ATOM     32  F1  UNL     1      22.122   5.270  21.113  0.00  0.00    -0.205 F 
ATOM     33  C27 UNL     1      19.803   4.992  21.596  0.00  0.00    +0.042 A 
ENDBRANCH  12  27
TORSDOF 3
ENDMDL
MODEL 4
REMARK VINA RESULT:    -7.069      6.538     11.862
REMARK INTER + INTRA:          -9.035
REMARK INTER:                  -8.385
REMARK INTRA:                  -0.650
REMARK UNBOUND:                -0.727
REMARK  Name = /home/qwerty/github/datacon2025hack/step_04_hit_selection/docking/ligands/lig_296.pdb
REMARK  4 active torsions:
REMARK  status: ('A' for Active; 'I' for Inactive)
REMARK    1  A    between atoms: C1_1  and  C2_2
REMARK    2  A    between atoms: C8_9  and  C9_11
REMARK    3  A    between atoms: C15_19  and  C16_20
REMARK    4  A    between atoms: C21_26  and  C22_27
REMARK                            x       y       z     vdW  Elec       q    Type
REMARK                         _______ _______ _______ _____ _____    ______ ____
ROOT
ATOM      1  C1  UNL     1      17.925   0.907  23.395  0.00  0.00    +0.044 C 
ATOM      2  C2  UNL     1      19.020   1.336  24.326  0.00  0.00    -0.049 A 
ATOM      3  C3  UNL     1      19.404   0.504  25.401  0.00  0.00    +0.004 A 
ATOM      4  C4  UNL     1      20.468   0.871  26.240  0.00  0.00    +0.006 A 
ATOM      5  C5  UNL     1      21.128   2.076  25.992  0.00  0.00    -0.017 A 
ATOM      6  C6  UNL     1      20.756   2.891  24.957  0.00  0.00    +0.041 A 
ATOM      7  C7  UNL     1      19.724   2.533  24.084  0.00  0.00    +0.027 A 
ATOM      8  N1  UNL     1      21.606   4.023  24.865  0.00  0.00    -0.263 N 
ATOM      9  C8  UNL     1      21.465   5.143  23.984  0.00  0.00    +0.306 C 
ATOM     10  O1  UNL     1      22.460   5.522  23.312  0.00  0.00    -0.265 OA
ATOM     11  C20 UNL     1      22.675   3.896  25.856  0.00  0.00    +0.127 C 
ATOM     12  C21 UNL     1      22.315   2.642  26.704  0.00  0.00    +0.069 C 
ENDROOT
BRANCH   9  13
ATOM     13  C9  UNL     1      20.189   5.879  23.887  0.00  0.00    +0.302 C 
ATOM     14  O2  UNL     1      19.896   6.746  24.753  0.00  0.00    -0.265 OA
ATOM     15  N2  UNL     1      19.275   5.634  22.816  0.00  0.00    -0.287 N 
ATOM     16  C10 UNL     1      17.817   5.807  22.611  0.00  0.00    +0.117 C 
ATOM     17  C11 UNL     1      17.795   5.200  21.247  0.00  0.00    +0.008 C 
ATOM     18  C12 UNL     1      17.097   5.923  20.103  0.00  0.00    +0.010 C 
ATOM     19  C13 UNL     1      16.228   4.677  19.906  0.00  0.00    +0.001 C 
ATOM     20  C14 UNL     1      16.961   3.946  21.034  0.00  0.00    +0.010 C 
ATOM     21  C15 UNL     1      19.282   5.080  21.438  0.00  0.00    +0.113 C 
BRANCH  21  22
ATOM     22  C16 UNL     1      20.177   5.909  20.472  0.00  0.00    +0.139 C 
ATOM     23  C17 UNL     1      20.514   7.325  20.948  0.00  0.00    +0.036 C 
ATOM     24  C18 UNL     1      21.900   7.529  20.426  0.00  0.00    +0.031 C 
ATOM     25  C19 UNL     1      22.447   6.122  20.371  0.00  0.00    +0.160 C 
ATOM     26  O3  UNL     1      21.381   5.213  20.231  0.00  0.00    -0.375 OA
ENDBRANCH  21  22
ENDBRANCH   9  13
BRANCH  12  27
ATOM     27  C22 UNL     1      21.976   2.993  28.139  0.00  0.00    -0.036 A 
ATOM     28  C23 UNL     1      21.504   4.279  28.455  0.00  0.00    +0.004 A 
ATOM     29  C24 UNL     1      21.188   4.611  29.776  0.00  0.00    +0.003 A 
ATOM     30  C25 UNL     1      21.337   3.663  30.792  0.00  0.00    +0.038 A 
ATOM     31  C26 UNL     1      21.805   2.381  30.491  0.00  0.00    +0.124 A 
ATOM     32  F1  UNL     1      21.948   1.463  31.477  0.00  0.00    -0.205 F 
ATOM     33  C27 UNL     1      22.123   2.045  29.171  0.00  0.00    +0.042 A 
ENDBRANCH  12  27
TORSDOF 3
ENDMDL
MODEL 5
REMARK VINA RESULT:    -6.976     12.196     15.549
REMARK INTER + INTRA:          -8.926
REMARK INTER:                  -8.165
REMARK INTRA:                  -0.761
REMARK UNBOUND:                -0.727
REMARK  Name = /home/qwerty/github/datacon2025hack/step_04_hit_selection/docking/ligands/lig_296.pdb
REMARK  4 active torsions:
REMARK  status: ('A' for Active; 'I' for Inactive)
REMARK    1  A    between atoms: C1_1  and  C2_2
REMARK    2  A    between atoms: C8_9  and  C9_11
REMARK    3  A    between atoms: C15_19  and  C16_20
REMARK    4  A    between atoms: C21_26  and  C22_27
REMARK                            x       y       z     vdW  Elec       q    Type
REMARK                         _______ _______ _______ _____ _____    ______ ____
ROOT
ATOM      1  C1  UNL     1      24.414   7.389  20.489  0.00  0.00    +0.044 C 
ATOM      2  C2  UNL     1      24.129   8.861  20.541  0.00  0.00    -0.049 A 
ATOM      3  C3  UNL     1      25.170   9.793  20.329  0.00  0.00    +0.004 A 
ATOM      4  C4  UNL     1      24.900  11.170  20.316  0.00  0.00    +0.006 A 
ATOM      5  C5  UNL     1      23.587  11.595  20.525  0.00  0.00    -0.017 A 
ATOM      6  C6  UNL     1      22.575  10.697  20.739  0.00  0.00    +0.041 A 
ATOM      7  C7  UNL     1      22.808   9.319  20.721  0.00  0.00    +0.027 A 
ATOM      8  N1  UNL     1      21.325  11.356  20.863  0.00  0.00    -0.263 N 
ATOM      9  C8  UNL     1      20.064  10.765  21.198  0.00  0.00    +0.306 C 
ATOM     10  O1  UNL     1      19.059  11.022  20.485  0.00  0.00    -0.265 OA
ATOM     11  C20 UNL     1      21.514  12.786  20.621  0.00  0.00    +0.127 C 
ATOM     12  C21 UNL     1      23.052  12.991  20.496  0.00  0.00    +0.069 C 
ENDROOT
BRANCH   9  13
ATOM     13  C9  UNL     1      19.920   9.900  22.386  0.00  0.00    +0.302 C 
ATOM     14  O2  UNL     1      19.744  10.415  23.521  0.00  0.00    -0.265 OA
ATOM     15  N2  UNL     1      19.968   8.476  22.271  0.00  0.00    -0.287 N 
ATOM     16  C10 UNL     1      20.293   7.353  23.183  0.00  0.00    +0.117 C 
ATOM     17  C11 UNL     1      20.152   6.287  22.147  0.00  0.00    +0.008 C 
ATOM     18  C12 UNL     1      19.310   5.051  22.436  0.00  0.00    +0.010 C 
ATOM     19  C13 UNL     1      20.546   4.196  22.140  0.00  0.00    +0.001 C 
ATOM     20  C14 UNL     1      21.373   5.443  21.816  0.00  0.00    +0.010 C 
ATOM     21  C15 UNL     1      19.766   7.424  21.242  0.00  0.00    +0.113 C 
BRANCH  21  22
ATOM     22  C16 UNL     1      18.313   7.411  20.688  0.00  0.00    +0.139 C 
ATOM     23  C17 UNL     1      17.286   8.176  21.528  0.00  0.00    +0.036 C 
ATOM     24  C18 UNL     1      16.359   8.731  20.494  0.00  0.00    +0.031 C 
ATOM     25  C19 UNL     1      17.249   8.860  19.281  0.00  0.00    +0.160 C 
ATOM     26  O3  UNL     1      18.304   7.931  19.376  0.00  0.00    -0.375 OA
ENDBRANCH  21  22
ENDBRANCH   9  13
BRANCH  12  27
ATOM     27  C22 UNL     1      23.619  13.818  21.632  0.00  0.00    -0.036 A 
ATOM     28  C23 UNL     1      24.307  15.012  21.357  0.00  0.00    +0.004 A 
ATOM     29  C24 UNL     1      24.832  15.782  22.400  0.00  0.00    +0.003 A 
ATOM     30  C25 UNL     1      24.671  15.369  23.726  0.00  0.00    +0.038 A 
ATOM     31  C26 UNL     1      23.988  14.185  24.012  0.00  0.00    +0.124 A 
ATOM     32  F1  UNL     1      23.832  13.786  25.298  0.00  0.00    -0.205 F 
ATOM     33  C27 UNL     1      23.463  13.411  22.972  0.00  0.00    +0.042 A 
ENDBRANCH  12  27
TORSDOF 3
ENDMDL
MODEL 6
REMARK VINA RESULT:    -6.948      3.716      5.978
REMARK INTER + INTRA:          -8.893
REMARK INTER:                  -8.489
REMARK INTRA:                  -0.404
REMARK UNBOUND:                -0.727
REMARK  Name = /home/qwerty/github/datacon2025hack/step_04_hit_selection/docking/ligands/lig_296.pdb
REMARK  4 active torsions:
REMARK  status: ('A' for Active; 'I' for Inactive)
REMARK    1  A    between atoms: C1_1  and  C2_2
REMARK    2  A    between atoms: C8_9  and  C9_11
REMARK    3  A    between atoms: C15_19  and  C16_20
REMARK    4  A    between atoms: C21_26  and  C22_27
REMARK                            x       y       z     vdW  Elec       q    Type
REMARK                         _______ _______ _______ _____ _____    ______ ____
ROOT
ATOM      1  C1  UNL     1      18.761   2.499  34.899  0.00  0.00    +0.044 C 
ATOM      2  C2  UNL     1      19.378   2.346  33.540  0.00  0.00    -0.049 A 
ATOM      3  C3  UNL     1      19.179   1.158  32.801  0.00  0.00    +0.004 A 
ATOM      4  C4  UNL     1      19.703   1.032  31.505  0.00  0.00    +0.006 A 
ATOM      5  C5  UNL     1      20.428   2.098  30.971  0.00  0.00    -0.017 A 
ATOM      6  C6  UNL     1      20.632   3.248  31.685  0.00  0.00    +0.041 A 
ATOM      7  C7  UNL     1      20.091   3.416  32.963  0.00  0.00    +0.027 A 
ATOM      8  N1  UNL     1      21.339   4.208  30.917  0.00  0.00    -0.263 N 
ATOM      9  C8  UNL     1      21.828   5.480  31.359  0.00  0.00    +0.306 C 
ATOM     10  O1  UNL     1      21.580   6.503  30.669  0.00  0.00    -0.265 OA
ATOM     11  C20 UNL     1      21.536   3.686  29.566  0.00  0.00    +0.127 C 
ATOM     12  C21 UNL     1      21.024   2.216  29.604  0.00  0.00    +0.069 C 
ENDROOT
BRANCH   9  13
ATOM     13  C9  UNL     1      22.648   5.598  32.580  0.00  0.00    +0.302 C 
ATOM     14  O2  UNL     1      23.837   5.183  32.582  0.00  0.00    -0.265 OA
ATOM     15  N2  UNL     1      22.120   6.189  33.769  0.00  0.00    -0.287 N 
ATOM     16  C10 UNL     1      22.424   6.100  35.218  0.00  0.00    +0.117 C 
ATOM     17  C11 UNL     1      21.302   6.988  35.650  0.00  0.00    +0.008 C 
ATOM     18  C12 UNL     1      21.568   8.134  36.616  0.00  0.00    +0.010 C 
ATOM     19  C13 UNL     1      20.518   7.529  37.552  0.00  0.00    +0.001 C 
ATOM     20  C14 UNL     1      20.232   6.400  36.558  0.00  0.00    +0.010 C 
ATOM     21  C15 UNL     1      21.036   7.120  34.176  0.00  0.00    +0.113 C 
BRANCH  21  22
ATOM     22  C16 UNL     1      21.213   8.538  33.561  0.00  0.00    +0.139 C 
ATOM     23  C17 UNL     1      22.599   8.829  32.979  0.00  0.00    +0.036 C 
ATOM     24  C18 UNL     1      22.290   9.711  31.812  0.00  0.00    +0.031 C 
ATOM     25  C19 UNL     1      20.896   9.278  31.425  0.00  0.00    +0.160 C 
ATOM     26  O3  UNL     1      20.246   8.738  32.552  0.00  0.00    -0.375 OA
ENDBRANCH  21  22
ENDBRANCH   9  13
BRANCH  12  27
ATOM     27  C22 UNL     1      22.140   1.211  29.404  0.00  0.00    -0.036 A 
ATOM     28  C23 UNL     1      23.479   1.605  29.568  0.00  0.00    +0.004 A 
ATOM     29  C24 UNL     1      24.515   0.683  29.386  0.00  0.00    +0.003 A 
ATOM     30  C25 UNL     1      24.224  -0.640  29.043  0.00  0.00    +0.038 A 
ATOM     31  C26 UNL     1      22.896  -1.044  28.878  0.00  0.00    +0.124 A 
ATOM     32  F1  UNL     1      22.616  -2.328  28.546  0.00  0.00    -0.205 F 
ATOM     33  C27 UNL     1      21.858  -0.126  29.057  0.00  0.00    +0.042 A 
ENDBRANCH  12  27
TORSDOF 3
ENDMDL
MODEL 7
REMARK VINA RESULT:    -6.880      7.146     10.934
REMARK INTER + INTRA:          -8.814
REMARK INTER:                  -8.535
REMARK INTRA:                  -0.278
REMARK UNBOUND:                -0.727
REMARK  Name = /home/qwerty/github/datacon2025hack/step_04_hit_selection/docking/ligands/lig_296.pdb
REMARK  4 active torsions:
REMARK  status: ('A' for Active; 'I' for Inactive)
REMARK    1  A    between atoms: C1_1  and  C2_2
REMARK    2  A    between atoms: C8_9  and  C9_11
REMARK    3  A    between atoms: C15_19  and  C16_20
REMARK    4  A    between atoms: C21_26  and  C22_27
REMARK                            x       y       z     vdW  Elec       q    Type
REMARK                         _______ _______ _______ _____ _____    ______ ____
ROOT
ATOM      1  C1  UNL     1      18.535   1.686  28.224  0.00  0.00    +0.044 C 
ATOM      2  C2  UNL     1      18.130   0.916  27.001  0.00  0.00    -0.049 A 
ATOM      3  C3  UNL     1      19.057   0.708  25.955  0.00  0.00    +0.004 A 
ATOM      4  C4  UNL     1      18.704  -0.062  24.835  0.00  0.00    +0.006 A 
ATOM      5  C5  UNL     1      17.421  -0.607  24.778  0.00  0.00    -0.017 A 
ATOM      6  C6  UNL     1      16.515  -0.402  25.784  0.00  0.00    +0.041 A 
ATOM      7  C7  UNL     1      16.851   0.329  26.927  0.00  0.00    +0.027 A 
ATOM      8  N1  UNL     1      15.306  -1.101  25.534  0.00  0.00    -0.263 N 
ATOM      9  C8  UNL     1      14.098  -1.043  26.302  0.00  0.00    +0.306 C 
ATOM     10  O1  UNL     1      13.542  -2.117  26.649  0.00  0.00    -0.265 OA
ATOM     11  C20 UNL     1      15.460  -1.899  24.319  0.00  0.00    +0.127 C 
ATOM     12  C21 UNL     1      16.844  -1.501  23.727  0.00  0.00    +0.069 C 
ENDROOT
BRANCH   9  13
ATOM     13  C9  UNL     1      13.479   0.251  26.650  0.00  0.00    +0.302 C 
ATOM     14  O2  UNL     1      13.863   0.877  27.673  0.00  0.00    -0.265 OA
ATOM     15  N2  UNL     1      12.451   0.820  25.836  0.00  0.00    -0.287 N 
ATOM     16  C10 UNL     1      11.346   1.785  26.052  0.00  0.00    +0.117 C 
ATOM     17  C11 UNL     1      10.787   1.667  24.672  0.00  0.00    +0.008 C 
ATOM     18  C12 UNL     1      10.479   2.921  23.865  0.00  0.00    +0.010 C 
ATOM     19  C13 UNL     1       9.034   2.428  23.736  0.00  0.00    +0.001 C 
ATOM     20  C14 UNL     1       9.363   1.153  24.517  0.00  0.00    +0.010 C 
ATOM     21  C15 UNL     1      11.943   0.733  24.443  0.00  0.00    +0.113 C 
BRANCH  21  22
ATOM     22  C16 UNL     1      13.004   1.182  23.398  0.00  0.00    +0.139 C 
ATOM     23  C17 UNL     1      12.535   1.165  21.940  0.00  0.00    +0.036 C 
ATOM     24  C18 UNL     1      13.258   2.330  21.345  0.00  0.00    +0.031 C 
ATOM     25  C19 UNL     1      13.450   3.246  22.531  0.00  0.00    +0.160 C 
ATOM     26  O3  UNL     1      13.456   2.482  23.714  0.00  0.00    -0.375 OA
ENDBRANCH  21  22
ENDBRANCH   9  13
BRANCH  12  27
ATOM     27  C22 UNL     1      16.718  -0.778  22.401  0.00  0.00    -0.036 A 
ATOM     28  C23 UNL     1      16.498   0.610  22.376  0.00  0.00    +0.004 A 
ATOM     29  C24 UNL     1      16.382   1.285  21.156  0.00  0.00    +0.003 A 
ATOM     30  C25 UNL     1      16.487   0.582  19.953  0.00  0.00    +0.038 A 
ATOM     31  C26 UNL     1      16.706  -0.798  19.965  0.00  0.00    +0.124 A 
ATOM     32  F1  UNL     1      16.808  -1.477  18.797  0.00  0.00    -0.205 F 
ATOM     33  C27 UNL     1      16.822  -1.477  21.182  0.00  0.00    +0.042 A 
ENDBRANCH  12  27
TORSDOF 3
ENDMDL
MODEL 8
REMARK VINA RESULT:    -6.824     12.128     14.538
REMARK INTER + INTRA:          -8.748
REMARK INTER:                  -8.194
REMARK INTRA:                  -0.554
REMARK UNBOUND:                -0.727
REMARK  Name = /home/qwerty/github/datacon2025hack/step_04_hit_selection/docking/ligands/lig_296.pdb
REMARK  4 active torsions:
REMARK  status: ('A' for Active; 'I' for Inactive)
REMARK    1  A    between atoms: C1_1  and  C2_2
REMARK    2  A    between atoms: C8_9  and  C9_11
REMARK    3  A    between atoms: C15_19  and  C16_20
REMARK    4  A    between atoms: C21_26  and  C22_27
REMARK                            x       y       z     vdW  Elec       q    Type
REMARK                         _______ _______ _______ _____ _____    ______ ____
ROOT
ATOM      1  C1  UNL     1      13.749  13.794  33.271  0.00  0.00    +0.044 C 
ATOM      2  C2  UNL     1      12.831  13.728  32.086  0.00  0.00    -0.049 A 
ATOM      3  C3  UNL     1      11.448  13.506  32.271  0.00  0.00    +0.004 A 
ATOM      4  C4  UNL     1      10.575  13.504  31.172  0.00  0.00    +0.006 A 
ATOM      5  C5  UNL     1      11.105  13.716  29.898  0.00  0.00    -0.017 A 
ATOM      6  C6  UNL     1      12.445  13.923  29.711  0.00  0.00    +0.041 A 
ATOM      7  C7  UNL     1      13.333  13.967  30.791  0.00  0.00    +0.027 A 
ATOM      8  N1  UNL     1      12.738  14.176  28.346  0.00  0.00    -0.263 N 
ATOM      9  C8  UNL     1      14.032  14.329  27.752  0.00  0.00    +0.306 C 
ATOM     10  O1  UNL     1      14.247  15.316  27.002  0.00  0.00    -0.265 OA
ATOM     11  C20 UNL     1      11.486  14.230  27.593  0.00  0.00    +0.127 C 
ATOM     12  C21 UNL     1      10.372  13.816  28.599  0.00  0.00    +0.069 C 
ENDROOT
BRANCH   9  13
ATOM     13  C9  UNL     1      15.095  13.328  27.974  0.00  0.00    +0.302 C 
ATOM     14  O2  UNL     1      15.143  12.294  27.257  0.00  0.00    -0.265 OA
ATOM     15  N2  UNL     1      16.085  13.515  28.987  0.00  0.00    -0.287 N 
ATOM     16  C10 UNL     1      16.973  12.626  29.773  0.00  0.00    +0.117 C 
ATOM     17  C11 UNL     1      17.555  13.716  30.612  0.00  0.00    +0.008 C 
ATOM     18  C12 UNL     1      19.064  13.824  30.781  0.00  0.00    +0.010 C 
ATOM     19  C13 UNL     1      18.857  13.727  32.295  0.00  0.00    +0.001 C 
ATOM     20  C14 UNL     1      17.338  13.656  32.117  0.00  0.00    +0.010 C 
ATOM     21  C15 UNL     1      16.695  14.620  29.772  0.00  0.00    +0.113 C 
BRANCH  21  22
ATOM     22  C16 UNL     1      17.437  15.646  28.870  0.00  0.00    +0.139 C 
ATOM     23  C17 UNL     1      17.809  15.139  27.473  0.00  0.00    +0.036 C 
ATOM     24  C18 UNL     1      17.665  16.364  26.627  0.00  0.00    +0.031 C 
ATOM     25  C19 UNL     1      16.623  17.165  27.372  0.00  0.00    +0.160 C 
ATOM     26  O3  UNL     1      16.651  16.811  28.735  0.00  0.00    -0.375 OA
ENDBRANCH  21  22
ENDBRANCH   9  13
BRANCH  12  27
ATOM     27  C22 UNL     1       9.725  12.496  28.232  0.00  0.00    -0.036 A 
ATOM     28  C23 UNL     1      10.302  11.681  27.242  0.00  0.00    +0.004 A 
ATOM     29  C24 UNL     1       9.711  10.461  26.899  0.00  0.00    +0.003 A 
ATOM     30  C25 UNL     1       8.544  10.042  27.541  0.00  0.00    +0.038 A 
ATOM     31  C26 UNL     1       7.961  10.842  28.527  0.00  0.00    +0.124 A 
ATOM     32  F1  UNL     1       6.828  10.433  29.149  0.00  0.00    -0.205 F 
ATOM     33  C27 UNL     1       8.547  12.064  28.873  0.00  0.00    +0.042 A 
ENDBRANCH  12  27
TORSDOF 3
ENDMDL
MODEL 9
REMARK VINA RESULT:    -6.791      3.467      6.032
REMARK INTER + INTRA:          -8.709
REMARK INTER:                  -7.958
REMARK INTRA:                  -0.750
REMARK UNBOUND:                -0.727
REMARK  Name = /home/qwerty/github/datacon2025hack/step_04_hit_selection/docking/ligands/lig_296.pdb
REMARK  4 active torsions:
REMARK  status: ('A' for Active; 'I' for Inactive)
REMARK    1  A    between atoms: C1_1  and  C2_2
REMARK    2  A    between atoms: C8_9  and  C9_11
REMARK    3  A    between atoms: C15_19  and  C16_20
REMARK    4  A    between atoms: C21_26  and  C22_27
REMARK                            x       y       z     vdW  Elec       q    Type
REMARK                         _______ _______ _______ _____ _____    ______ ____
ROOT
ATOM      1  C1  UNL     1      19.045   6.282  36.974  0.00  0.00    +0.044 C 
ATOM      2  C2  UNL     1      20.245   6.384  36.079  0.00  0.00    -0.049 A 
ATOM      3  C3  UNL     1      21.308   7.251  36.415  0.00  0.00    +0.004 A 
ATOM      4  C4  UNL     1      22.460   7.307  35.614  0.00  0.00    +0.006 A 
ATOM      5  C5  UNL     1      22.524   6.497  34.479  0.00  0.00    -0.017 A 
ATOM      6  C6  UNL     1      21.493   5.661  34.143  0.00  0.00    +0.041 A 
ATOM      7  C7  UNL     1      20.350   5.558  34.942  0.00  0.00    +0.027 A 
ATOM      8  N1  UNL     1      21.809   4.896  32.992  0.00  0.00    -0.263 N 
ATOM      9  C8  UNL     1      20.945   4.000  32.283  0.00  0.00    +0.306 C 
ATOM     10  O1  UNL     1      21.359   2.844  32.004  0.00  0.00    -0.265 OA
ATOM     11  C20 UNL     1      23.187   5.183  32.594  0.00  0.00    +0.127 C 
ATOM     12  C21 UNL     1      23.659   6.342  33.518  0.00  0.00    +0.069 C 
ENDROOT
BRANCH   9  13
ATOM     13  C9  UNL     1      19.603   4.427  31.842  0.00  0.00    +0.302 C 
ATOM     14  O2  UNL     1      19.474   5.111  30.793  0.00  0.00    -0.265 OA
ATOM     15  N2  UNL     1      18.434   4.068  32.582  0.00  0.00    -0.287 N 
ATOM     16  C10 UNL     1      17.066   4.619  32.729  0.00  0.00    +0.117 C 
ATOM     17  C11 UNL     1      16.627   3.631  33.759  0.00  0.00    +0.008 C 
ATOM     18  C12 UNL     1      15.306   2.893  33.592  0.00  0.00    +0.010 C 
ATOM     19  C13 UNL     1      14.877   3.447  34.955  0.00  0.00    +0.001 C 
ATOM     20  C14 UNL     1      16.223   4.155  35.129  0.00  0.00    +0.010 C 
ATOM     21  C15 UNL     1      17.996   3.041  33.563  0.00  0.00    +0.113 C 
BRANCH  21  22
ATOM     22  C16 UNL     1      18.057   1.601  32.978  0.00  0.00    +0.139 C 
ATOM     23  C17 UNL     1      18.158   1.520  31.452  0.00  0.00    +0.036 C 
ATOM     24  C18 UNL     1      19.016   0.313  31.240  0.00  0.00    +0.031 C 
ATOM     25  C19 UNL     1      19.849   0.270  32.499  0.00  0.00    +0.160 C 
ATOM     26  O3  UNL     1      19.150   0.909  33.542  0.00  0.00    -0.375 OA
ENDBRANCH  21  22
ENDBRANCH   9  13
BRANCH  12  27
ATOM     27  C22 UNL     1      23.908   7.626  32.753  0.00  0.00    -0.036 A 
ATOM     28  C23 UNL     1      25.103   8.340  32.946  0.00  0.00    +0.004 A 
ATOM     29  C24 UNL     1      25.340   9.525  32.241  0.00  0.00    +0.003 A 
ATOM     30  C25 UNL     1      24.389  10.006  31.338  0.00  0.00    +0.038 A 
ATOM     31  C26 UNL     1      23.198   9.305  31.136  0.00  0.00    +0.124 A 
ATOM     32  F1  UNL     1      22.277   9.773  30.258  0.00  0.00    -0.205 F 
ATOM     33  C27 UNL     1      22.955   8.120  31.839  0.00  0.00    +0.042 A 
ENDBRANCH  12  27
TORSDOF 3
ENDMDL
