REMARK  Name = /home/qwerty/github/datacon2025hack/step_04_hit_selection/docking/ligands/lig_195.pdb
REMARK  3 active torsions:
REMARK  status: ('A' for Active; 'I' for Inactive)
REMARK    1  A    between atoms: C1_1  and  N1_2
REMARK    2  A    between atoms: C4_5  and  C5_6
REMARK    3  A    between atoms: N3_15  and  C12_16
REMARK                            x       y       z     vdW  Elec       q    Type
REMARK                         _______ _______ _______ _____ _____    ______ ____
ROOT
ATOM      1  C5  UNL     1       1.400  -0.337  -1.031  0.00  0.00    +0.219 C 
ATOM      2  O1  UNL     1       1.526  -0.498  -2.276  0.00  0.00    -0.275 OA
ATOM      3  N2  UNL     1       0.083  -0.257  -0.455  0.00  0.00    -0.301 N 
ATOM      4  C6  UNL     1      -1.025  -0.997  -1.057  0.00  0.00    +0.109 C 
ATOM      5  C7  UNL     1      -1.854  -1.631   0.051  0.00  0.00    +0.042 C 
ATOM      6  C8  UNL     1      -2.312  -0.607   1.110  0.00  0.00    +0.081 C 
ATOM      7  C9  UNL     1      -1.204   0.347   1.591  0.00  0.00    +0.028 C 
ATOM      8  C10 UNL     1      -2.001   1.535   2.142  0.00  0.00    +0.026 C 
ATOM      9  C11 UNL     1      -3.261   1.597   1.276  0.00  0.00    +0.107 C 
ATOM     10  N3  UNL     1      -3.386   0.276   0.673  0.00  0.00    -0.311 N 
ATOM     11  C16 UNL     1      -0.272   0.836   0.453  0.00  0.00    +0.113 C 
ENDROOT
BRANCH   1  16
ATOM     12  C1  UNL     1       6.658   0.783  -0.201  0.00  0.00    +0.104 C 
ATOM     13  N1  UNL     1       5.550   0.088  -0.873  0.00  0.00    -0.305 NA
ATOM     14  C2  UNL     1       5.029  -1.005  -0.016  0.00  0.00    +0.085 C 
ATOM     15  C3  UNL     1       3.599  -1.397  -0.403  0.00  0.00    +0.028 C 
ATOM     16  C4  UNL     1       2.634  -0.212  -0.167  0.00  0.00    +0.078 C 
ATOM     17  C17 UNL     1       3.325   1.157  -0.380  0.00  0.00    +0.028 C 
ATOM     18  C18 UNL     1       4.516   1.047  -1.344  0.00  0.00    +0.085 C 
ENDBRANCH   1  16
BRANCH  10  19
ATOM     19  C12 UNL     1      -4.616  -0.193   0.103  0.00  0.00    +0.140 A 
ATOM     20  C13 UNL     1      -5.791  -0.240   0.865  0.00  0.00    +0.157 A 
ATOM     21  N4  UNL     1      -6.941  -0.686   0.293  0.00  0.00    -0.223 NA
ATOM     22  C14 UNL     1      -6.973  -1.082  -1.007  0.00  0.00    +0.232 A 
ATOM     23  F1  UNL     1      -8.131  -1.523  -1.555  0.00  0.00    -0.182 F 
ATOM     24  C15 UNL     1      -5.804  -1.032  -1.769  0.00  0.00    +0.172 A 
ATOM     25  N5  UNL     1      -4.653  -0.589  -1.197  0.00  0.00    -0.234 NA
ENDBRANCH  10  19
TORSDOF 2
