MODEL 1
REMARK VINA RESULT:    -7.427      0.000      0.000
REMARK INTER + INTRA:          -9.883
REMARK INTER:                  -9.164
REMARK INTRA:                  -0.720
REMARK UNBOUND:                -0.720
REMARK  Name = /home/qwerty/github/datacon2025hack/step_04_hit_selection/docking/ligands/lig_532.pdb
REMARK  5 active torsions:
REMARK  status: ('A' for Active; 'I' for Inactive)
REMARK    1  A    between atoms: C1_1  and  C2_2
REMARK    2  A    between atoms: C10_10  and  N1_11
REMARK    3  A    between atoms: C11_12  and  C12_14
REMARK    4  A    between atoms: N2_16  and  C13_17
REMARK    5  A    between atoms: C16_20  and  C17_21
REMARK                            x       y       z     vdW  Elec       q    Type
REMARK                         _______ _______ _______ _____ _____    ______ ____
ROOT
ATOM      1  C12 UNL     1      21.494   4.995  24.121  0.00  0.00    +0.303 C 
ATOM      2  O2  UNL     1      20.955   5.636  25.063  0.00  0.00    -0.265 OA
ATOM      3  N2  UNL     1      22.115   3.723  24.376  0.00  0.00    -0.278 N 
ATOM      4  H13 UNL     1      22.820   3.375  23.687  0.00  0.00    +0.155 HD
ENDROOT
BRANCH   3   5
ATOM      5  C13 UNL     1      21.932   2.967  25.586  0.00  0.00    +0.037 A 
ATOM      6  C14 UNL     1      22.893   3.056  26.602  0.00  0.00    +0.024 A 
ATOM      7  C15 UNL     1      22.750   2.317  27.780  0.00  0.00    +0.018 A 
ATOM      8  C16 UNL     1      21.643   1.473  27.959  0.00  0.00    +0.072 A 
ATOM      9  C22 UNL     1      20.701   1.347  26.923  0.00  0.00    +0.137 A 
ATOM     10  F1  UNL     1      19.672   0.469  27.024  0.00  0.00    -0.205 F 
ATOM     11  C23 UNL     1      20.847   2.088  25.744  0.00  0.00    +0.062 A 
BRANCH   8  12
ATOM     12  C17 UNL     1      21.504   0.702  29.213  0.00  0.00    +0.250 C 
ATOM     13  O3  UNL     1      22.066  -0.425  29.298  0.00  0.00    -0.270 OA
ATOM     14  N3  UNL     1      20.771   1.217  30.341  0.00  0.00    -0.293 N 
ATOM     15  C18 UNL     1      20.681   2.658  30.599  0.00  0.00    +0.136 C 
ATOM     16  C19 UNL     1      20.766   2.913  32.107  0.00  0.00    +0.179 C 
ATOM     17  O4  UNL     1      19.815   2.128  32.805  0.00  0.00    -0.377 OA
ATOM     18  C20 UNL     1      20.128   0.755  32.658  0.00  0.00    +0.179 C 
ATOM     19  C21 UNL     1      19.993   0.317  31.198  0.00  0.00    +0.136 C 
ENDBRANCH   8  12
ENDBRANCH   3   5
BRANCH   1  21
ATOM     20  N1  UNL     1      22.635   6.376  22.336  0.00  0.00    -0.301 N 
ATOM     21  C11 UNL     1      21.521   5.579  22.766  0.00  0.00    +0.300 C 
ATOM     22  O1  UNL     1      20.552   5.377  21.984  0.00  0.00    -0.265 OA
ATOM     23  H12 UNL     1      23.432   6.531  22.994  0.00  0.00    +0.150 HD
BRANCH  20  33
ATOM     24  C1  UNL     1      21.917  12.672  20.980  0.00  0.00    +0.044 C 
ATOM     25  C2  UNL     1      22.057  11.179  20.964  0.00  0.00    -0.050 A 
ATOM     26  C3  UNL     1      20.980  10.361  21.368  0.00  0.00    +0.004 A 
ATOM     27  C4  UNL     1      21.120   8.965  21.392  0.00  0.00    +0.006 A 
ATOM     28  C5  UNL     1      22.346   8.404  21.024  0.00  0.00    -0.024 A 
ATOM     29  C6  UNL     1      23.399   9.196  20.641  0.00  0.00    -0.042 A 
ATOM     30  C7  UNL     1      23.285  10.588  20.611  0.00  0.00    +0.007 A 
ATOM     31  C8  UNL     1      24.600   8.400  20.298  0.00  0.00    +0.037 C 
ATOM     32  C9  UNL     1      24.134   6.938  20.433  0.00  0.00    +0.032 C 
ATOM     33  C10 UNL     1      22.691   6.959  20.991  0.00  0.00    +0.104 C 
ENDBRANCH  20  33
ENDBRANCH   1  21
TORSDOF 4
ENDMDL
MODEL 2
REMARK VINA RESULT:    -7.297      5.039     13.640
REMARK INTER + INTRA:          -9.724
REMARK INTER:                  -8.979
REMARK INTRA:                  -0.745
REMARK UNBOUND:                -0.720
REMARK  Name = /home/qwerty/github/datacon2025hack/step_04_hit_selection/docking/ligands/lig_532.pdb
REMARK  5 active torsions:
REMARK  status: ('A' for Active; 'I' for Inactive)
REMARK    1  A    between atoms: C1_1  and  C2_2
REMARK    2  A    between atoms: C10_10  and  N1_11
REMARK    3  A    between atoms: C11_12  and  C12_14
REMARK    4  A    between atoms: N2_16  and  C13_17
REMARK    5  A    between atoms: C16_20  and  C17_21
REMARK                            x       y       z     vdW  Elec       q    Type
REMARK                         _______ _______ _______ _____ _____    ______ ____
ROOT
ATOM      1  C12 UNL     1      18.095   1.188  33.718  0.00  0.00    +0.303 C 
ATOM      2  O2  UNL     1      17.391   1.610  32.761  0.00  0.00    -0.265 OA
ATOM      3  N2  UNL     1      19.451   0.769  33.488  0.00  0.00    -0.278 N 
ATOM      4  H13 UNL     1      19.894   0.134  34.191  0.00  0.00    +0.155 HD
ENDROOT
BRANCH   3   5
ATOM      5  C13 UNL     1      20.188   1.053  32.286  0.00  0.00    +0.037 A 
ATOM      6  C14 UNL     1      20.349   0.046  31.325  0.00  0.00    +0.024 A 
ATOM      7  C15 UNL     1      21.077   0.290  30.157  0.00  0.00    +0.018 A 
ATOM      8  C16 UNL     1      21.659   1.547  29.932  0.00  0.00    +0.072 A 
ATOM      9  C22 UNL     1      21.538   2.546  30.915  0.00  0.00    +0.137 A 
ATOM     10  F1  UNL     1      22.168   3.738  30.773  0.00  0.00    -0.205 F 
ATOM     11  C23 UNL     1      20.808   2.298  32.084  0.00  0.00    +0.062 A 
BRANCH   8  12
ATOM     12  C17 UNL     1      22.422   1.790  28.689  0.00  0.00    +0.250 C 
ATOM     13  O3  UNL     1      23.628   1.425  28.636  0.00  0.00    -0.270 OA
ATOM     14  N3  UNL     1      21.814   2.404  27.537  0.00  0.00    -0.293 N 
ATOM     15  C18 UNL     1      20.384   2.247  27.251  0.00  0.00    +0.136 C 
ATOM     16  C19 UNL     1      20.178   2.091  25.742  0.00  0.00    +0.179 C 
ATOM     17  O4  UNL     1      20.807   3.147  25.037  0.00  0.00    -0.377 OA
ATOM     18  C20 UNL     1      22.209   3.073  25.214  0.00  0.00    +0.179 C 
ATOM     19  C21 UNL     1      22.588   3.307  26.678  0.00  0.00    +0.136 C 
ENDBRANCH   8  12
ENDBRANCH   3   5
BRANCH   1  21
ATOM     20  N1  UNL     1      16.879  -0.134  35.499  0.00  0.00    -0.301 N 
ATOM     21  C11 UNL     1      17.502   1.085  35.065  0.00  0.00    +0.300 C 
ATOM     22  O1  UNL     1      17.540   2.081  35.838  0.00  0.00    -0.265 OA
ATOM     23  H12 UNL     1      16.858  -0.952  34.849  0.00  0.00    +0.150 HD
BRANCH  20  33
ATOM     24  C1  UNL     1      10.526  -0.196  36.780  0.00  0.00    +0.044 C 
ATOM     25  C2  UNL     1      12.025  -0.153  36.814  0.00  0.00    -0.050 A 
ATOM     26  C3  UNL     1      12.710   1.018  36.421  0.00  0.00    +0.004 A 
ATOM     27  C4  UNL     1      14.113   1.049  36.414  0.00  0.00    +0.006 A 
ATOM     28  C5  UNL     1      14.815  -0.099  36.786  0.00  0.00    -0.024 A 
ATOM     29  C6  UNL     1      14.154  -1.243  37.159  0.00  0.00    -0.042 A 
ATOM     30  C7  UNL     1      12.758  -1.300  37.172  0.00  0.00    +0.007 A 
ATOM     31  C8  UNL     1      15.086  -2.339  37.510  0.00  0.00    +0.037 C 
ATOM     32  C9  UNL     1      16.482  -1.696  37.393  0.00  0.00    +0.032 C 
ATOM     33  C10 UNL     1      16.291  -0.265  36.837  0.00  0.00    +0.104 C 
ENDBRANCH  20  33
ENDBRANCH   1  21
TORSDOF 4
ENDMDL
MODEL 3
REMARK VINA RESULT:    -7.215     10.394     14.245
REMARK INTER + INTRA:          -9.621
REMARK INTER:                  -9.070
REMARK INTRA:                  -0.551
REMARK UNBOUND:                -0.720
REMARK  Name = /home/qwerty/github/datacon2025hack/step_04_hit_selection/docking/ligands/lig_532.pdb
REMARK  5 active torsions:
REMARK  status: ('A' for Active; 'I' for Inactive)
REMARK    1  A    between atoms: C1_1  and  C2_2
REMARK    2  A    between atoms: C10_10  and  N1_11
REMARK    3  A    between atoms: C11_12  and  C12_14
REMARK    4  A    between atoms: N2_16  and  C13_17
REMARK    5  A    between atoms: C16_20  and  C17_21
REMARK                            x       y       z     vdW  Elec       q    Type
REMARK                         _______ _______ _______ _____ _____    ______ ____
ROOT
ATOM      1  C12 UNL     1      16.763  10.161  36.954  0.00  0.00    +0.303 C 
ATOM      2  O2  UNL     1      16.527   9.138  36.256  0.00  0.00    -0.265 OA
ATOM      3  N2  UNL     1      18.060  10.347  37.547  0.00  0.00    -0.278 N 
ATOM      4  H13 UNL     1      18.137  10.997  38.362  0.00  0.00    +0.155 HD
ENDROOT
BRANCH   3   5
ATOM      5  C13 UNL     1      19.227   9.591  37.181  0.00  0.00    +0.037 A 
ATOM      6  C14 UNL     1      20.132  10.131  36.257  0.00  0.00    +0.024 A 
ATOM      7  C15 UNL     1      21.265   9.410  35.868  0.00  0.00    +0.018 A 
ATOM      8  C16 UNL     1      21.510   8.134  36.398  0.00  0.00    +0.072 A 
ATOM      9  C22 UNL     1      20.581   7.570  37.291  0.00  0.00    +0.137 A 
ATOM     10  F1  UNL     1      20.738   6.302  37.746  0.00  0.00    -0.205 F 
ATOM     11  C23 UNL     1      19.448   8.295  37.677  0.00  0.00    +0.062 A 
BRANCH   8  12
ATOM     12  C17 UNL     1      22.716   7.386  35.980  0.00  0.00    +0.250 C 
ATOM     13  O3  UNL     1      23.566   7.065  36.855  0.00  0.00    -0.270 OA
ATOM     14  N3  UNL     1      22.924   6.994  34.609  0.00  0.00    -0.293 N 
ATOM     15  C18 UNL     1      21.796   6.714  33.715  0.00  0.00    +0.136 C 
ATOM     16  C19 UNL     1      22.140   5.522  32.817  0.00  0.00    +0.179 C 
ATOM     17  O4  UNL     1      23.377   5.728  32.159  0.00  0.00    -0.377 OA
ATOM     18  C20 UNL     1      24.425   5.770  33.110  0.00  0.00    +0.179 C 
ATOM     19  C21 UNL     1      24.273   6.980  34.035  0.00  0.00    +0.136 C 
ENDBRANCH   8  12
ENDBRANCH   3   5
BRANCH   1  21
ATOM     20  N1  UNL     1      14.323  10.823  36.876  0.00  0.00    -0.301 N 
ATOM     21  C11 UNL     1      15.687  11.141  37.194  0.00  0.00    +0.300 C 
ATOM     22  O1  UNL     1      15.972  12.270  37.680  0.00  0.00    -0.265 OA
ATOM     23  H12 UNL     1      14.101   9.882  36.477  0.00  0.00    +0.150 HD
BRANCH  20  33
ATOM     24  C1  UNL     1      11.703  14.681  32.375  0.00  0.00    +0.044 C 
ATOM     25  C2  UNL     1      12.135  13.977  33.627  0.00  0.00    -0.050 A 
ATOM     26  C3  UNL     1      13.428  14.189  34.151  0.00  0.00    +0.004 A 
ATOM     27  C4  UNL     1      13.849  13.503  35.300  0.00  0.00    +0.006 A 
ATOM     28  C5  UNL     1      12.973  12.598  35.904  0.00  0.00    -0.024 A 
ATOM     29  C6  UNL     1      11.718  12.380  35.393  0.00  0.00    -0.042 A 
ATOM     30  C7  UNL     1      11.277  13.049  34.249  0.00  0.00    +0.007 A 
ATOM     31  C8  UNL     1      10.959  11.382  36.181  0.00  0.00    +0.037 C 
ATOM     32  C9  UNL     1      11.893  11.044  37.358  0.00  0.00    +0.032 C 
ATOM     33  C10 UNL     1      13.234  11.777  37.115  0.00  0.00    +0.104 C 
ENDBRANCH  20  33
ENDBRANCH   1  21
TORSDOF 4
ENDMDL
MODEL 4
REMARK VINA RESULT:    -7.196      1.972      2.106
REMARK INTER + INTRA:          -9.599
REMARK INTER:                  -8.803
REMARK INTRA:                  -0.796
REMARK UNBOUND:                -0.720
REMARK  Name = /home/qwerty/github/datacon2025hack/step_04_hit_selection/docking/ligands/lig_532.pdb
REMARK  5 active torsions:
REMARK  status: ('A' for Active; 'I' for Inactive)
REMARK    1  A    between atoms: C1_1  and  C2_2
REMARK    2  A    between atoms: C10_10  and  N1_11
REMARK    3  A    between atoms: C11_12  and  C12_14
REMARK    4  A    between atoms: N2_16  and  C13_17
REMARK    5  A    between atoms: C16_20  and  C17_21
REMARK                            x       y       z     vdW  Elec       q    Type
REMARK                         _______ _______ _______ _____ _____    ______ ____
ROOT
ATOM      1  C12 UNL     1      20.091   4.946  23.080  0.00  0.00    +0.303 C 
ATOM      2  O2  UNL     1      19.388   5.411  24.017  0.00  0.00    -0.265 OA
ATOM      3  N2  UNL     1      21.181   4.054  23.369  0.00  0.00    -0.278 N 
ATOM      4  H13 UNL     1      21.932   3.947  22.649  0.00  0.00    +0.155 HD
ENDROOT
BRANCH   3   5
ATOM      5  C13 UNL     1      21.376   3.407  24.638  0.00  0.00    +0.037 A 
ATOM      6  C14 UNL     1      22.312   3.932  25.540  0.00  0.00    +0.024 A 
ATOM      7  C15 UNL     1      22.535   3.312  26.773  0.00  0.00    +0.018 A 
ATOM      8  C16 UNL     1      21.826   2.153  27.123  0.00  0.00    +0.072 A 
ATOM      9  C22 UNL     1      20.920   1.598  26.203  0.00  0.00    +0.137 A 
ATOM     10  F1  UNL     1      20.290   0.426  26.471  0.00  0.00    -0.205 F 
ATOM     11  C23 UNL     1      20.698   2.220  24.969  0.00  0.00    +0.062 A 
BRANCH   8  12
ATOM     12  C17 UNL     1      22.071   1.512  28.433  0.00  0.00    +0.250 C 
ATOM     13  O3  UNL     1      23.211   1.025  28.668  0.00  0.00    -0.270 OA
ATOM     14  N3  UNL     1      21.052   1.457  29.450  0.00  0.00    -0.293 N 
ATOM     15  C18 UNL     1      20.025   2.498  29.560  0.00  0.00    +0.136 C 
ATOM     16  C19 UNL     1      19.748   2.789  31.038  0.00  0.00    +0.179 C 
ATOM     17  O4  UNL     1      19.453   1.594  31.739  0.00  0.00    -0.377 OA
ATOM     18  C20 UNL     1      20.591   0.751  31.749  0.00  0.00    +0.179 C 
ATOM     19  C21 UNL     1      20.943   0.291  30.333  0.00  0.00    +0.136 C 
ENDBRANCH   8  12
ENDBRANCH   3   5
BRANCH   1  21
ATOM     20  N1  UNL     1      20.738   6.202  20.982  0.00  0.00    -0.301 N 
ATOM     21  C11 UNL     1      19.816   5.360  21.691  0.00  0.00    +0.300 C 
ATOM     22  O1  UNL     1      18.757   4.973  21.125  0.00  0.00    -0.265 OA
ATOM     23  H12 UNL     1      21.613   6.513  21.462  0.00  0.00    +0.150 HD
BRANCH  20  33
ATOM     24  C1  UNL     1      19.037  12.180  19.146  0.00  0.00    +0.044 C 
ATOM     25  C2  UNL     1      19.353  10.718  19.257  0.00  0.00    -0.050 A 
ATOM     26  C3  UNL     1      18.469   9.850  19.933  0.00  0.00    +0.004 A 
ATOM     27  C4  UNL     1      18.780   8.489  20.073  0.00  0.00    +0.006 A 
ATOM     28  C5  UNL     1      19.984   8.016  19.546  0.00  0.00    -0.024 A 
ATOM     29  C6  UNL     1      20.852   8.857  18.897  0.00  0.00    -0.042 A 
ATOM     30  C7  UNL     1      20.567  10.216  18.747  0.00  0.00    +0.007 A 
ATOM     31  C8  UNL     1      22.065   8.152  18.423  0.00  0.00    +0.037 C 
ATOM     32  C9  UNL     1      21.810   6.678  18.789  0.00  0.00    +0.032 C 
ATOM     33  C10 UNL     1      20.492   6.620  19.597  0.00  0.00    +0.104 C 
ENDBRANCH  20  33
ENDBRANCH   1  21
TORSDOF 4
ENDMDL
MODEL 5
REMARK VINA RESULT:    -7.190      9.371     10.857
REMARK INTER + INTRA:          -9.592
REMARK INTER:                  -9.198
REMARK INTRA:                  -0.394
REMARK UNBOUND:                -0.720
REMARK  Name = /home/qwerty/github/datacon2025hack/step_04_hit_selection/docking/ligands/lig_532.pdb
REMARK  5 active torsions:
REMARK  status: ('A' for Active; 'I' for Inactive)
REMARK    1  A    between atoms: C1_1  and  C2_2
REMARK    2  A    between atoms: C10_10  and  N1_11
REMARK    3  A    between atoms: C11_12  and  C12_14
REMARK    4  A    between atoms: N2_16  and  C13_17
REMARK    5  A    between atoms: C16_20  and  C17_21
REMARK                            x       y       z     vdW  Elec       q    Type
REMARK                         _______ _______ _______ _____ _____    ______ ____
ROOT
ATOM      1  C12 UNL     1      12.548   4.977  20.553  0.00  0.00    +0.303 C 
ATOM      2  O2  UNL     1      13.479   5.342  21.321  0.00  0.00    -0.265 OA
ATOM      3  N2  UNL     1      12.574   3.670  19.956  0.00  0.00    -0.278 N 
ATOM      4  H13 UNL     1      11.999   3.511  19.097  0.00  0.00    +0.155 HD
ENDROOT
BRANCH   3   5
ATOM      5  C13 UNL     1      13.445   2.608  20.384  0.00  0.00    +0.037 A 
ATOM      6  C14 UNL     1      12.994   1.697  21.349  0.00  0.00    +0.024 A 
ATOM      7  C15 UNL     1      13.827   0.667  21.796  0.00  0.00    +0.018 A 
ATOM      8  C16 UNL     1      15.127   0.533  21.286  0.00  0.00    +0.072 A 
ATOM      9  C22 UNL     1      15.598   1.472  20.351  0.00  0.00    +0.137 A 
ATOM     10  F1  UNL     1      16.881   1.429  19.910  0.00  0.00    -0.205 F 
ATOM     11  C23 UNL     1      14.762   2.502  19.905  0.00  0.00    +0.062 A 
BRANCH   8  12
ATOM     12  C17 UNL     1      15.994  -0.564  21.766  0.00  0.00    +0.250 C 
ATOM     13  O3  UNL     1      16.496  -1.356  20.923  0.00  0.00    -0.270 OA
ATOM     14  N3  UNL     1      16.299  -0.729  23.165  0.00  0.00    -0.293 N 
ATOM     15  C18 UNL     1      16.351   0.419  24.076  0.00  0.00    +0.136 C 
ATOM     16  C19 UNL     1      17.502   0.231  25.069  0.00  0.00    +0.179 C 
ATOM     17  O4  UNL     1      17.412  -1.028  25.712  0.00  0.00    -0.377 OA
ATOM     18  C20 UNL     1      17.588  -2.064  24.763  0.00  0.00    +0.179 C 
ATOM     19  C21 UNL     1      16.447  -2.069  23.742  0.00  0.00    +0.136 C 
ENDBRANCH   8  12
ENDBRANCH   3   5
BRANCH   1  21
ATOM     20  N1  UNL     1      11.675   7.338  20.294  0.00  0.00    -0.301 N 
ATOM     21  C11 UNL     1      11.457   5.919  20.235  0.00  0.00    +0.300 C 
ATOM     22  O1  UNL     1      10.323   5.470  19.914  0.00  0.00    -0.265 OA
ATOM     23  H12 UNL     1      12.621   7.695  20.558  0.00  0.00    +0.150 HD
BRANCH  20  33
ATOM     24  C1  UNL     1       7.741  10.115  24.631  0.00  0.00    +0.044 C 
ATOM     25  C2  UNL     1       8.439   9.602  23.407  0.00  0.00    -0.050 A 
ATOM     26  C3  UNL     1       8.337   8.239  23.052  0.00  0.00    +0.004 A 
ATOM     27  C4  UNL     1       9.020   7.747  21.929  0.00  0.00    +0.006 A 
ATOM     28  C5  UNL     1       9.811   8.624  21.183  0.00  0.00    -0.024 A 
ATOM     29  C6  UNL     1       9.921   9.947  21.530  0.00  0.00    -0.042 A 
ATOM     30  C7  UNL     1       9.254  10.460  22.644  0.00  0.00    +0.007 A 
ATOM     31  C8  UNL     1      10.809  10.694  20.610  0.00  0.00    +0.037 C 
ATOM     32  C9  UNL     1      11.196   9.658  19.538  0.00  0.00    +0.032 C 
ATOM     33  C10 UNL     1      10.609   8.294  19.974  0.00  0.00    +0.104 C 
ENDBRANCH  20  33
ENDBRANCH   1  21
TORSDOF 4
ENDMDL
MODEL 6
REMARK VINA RESULT:    -7.066      5.169     12.161
REMARK INTER + INTRA:          -9.438
REMARK INTER:                  -8.788
REMARK INTRA:                  -0.650
REMARK UNBOUND:                -0.720
REMARK  Name = /home/qwerty/github/datacon2025hack/step_04_hit_selection/docking/ligands/lig_532.pdb
REMARK  5 active torsions:
REMARK  status: ('A' for Active; 'I' for Inactive)
REMARK    1  A    between atoms: C1_1  and  C2_2
REMARK    2  A    between atoms: C10_10  and  N1_11
REMARK    3  A    between atoms: C11_12  and  C12_14
REMARK    4  A    between atoms: N2_16  and  C13_17
REMARK    5  A    between atoms: C16_20  and  C17_21
REMARK                            x       y       z     vdW  Elec       q    Type
REMARK                         _______ _______ _______ _____ _____    ______ ____
ROOT
ATOM      1  C12 UNL     1      18.860   2.245  34.360  0.00  0.00    +0.303 C 
ATOM      2  O2  UNL     1      18.022   1.971  33.459  0.00  0.00    -0.265 OA
ATOM      3  N2  UNL     1      20.269   2.145  34.090  0.00  0.00    -0.278 N 
ATOM      4  H13 UNL     1      20.919   2.052  34.904  0.00  0.00    +0.155 HD
ENDROOT
BRANCH   3   5
ATOM      5  C13 UNL     1      20.828   2.025  32.770  0.00  0.00    +0.037 A 
ATOM      6  C14 UNL     1      21.442   3.139  32.181  0.00  0.00    +0.024 A 
ATOM      7  C15 UNL     1      21.976   3.055  30.892  0.00  0.00    +0.018 A 
ATOM      8  C16 UNL     1      21.904   1.854  30.170  0.00  0.00    +0.072 A 
ATOM      9  C22 UNL     1      21.249   0.748  30.740  0.00  0.00    +0.137 A 
ATOM     10  F1  UNL     1      21.077  -0.397  30.033  0.00  0.00    -0.205 F 
ATOM     11  C23 UNL     1      20.714   0.835  32.031  0.00  0.00    +0.062 A 
BRANCH   8  12
ATOM     12  C17 UNL     1      22.478   1.781  28.809  0.00  0.00    +0.250 C 
ATOM     13  O3  UNL     1      23.547   1.134  28.634  0.00  0.00    -0.270 OA
ATOM     14  N3  UNL     1      21.832   2.404  27.682  0.00  0.00    -0.293 N 
ATOM     15  C18 UNL     1      20.376   2.565  27.629  0.00  0.00    +0.136 C 
ATOM     16  C19 UNL     1      19.886   2.314  26.200  0.00  0.00    +0.179 C 
ATOM     17  O4  UNL     1      20.601   3.112  25.274  0.00  0.00    -0.377 OA
ATOM     18  C20 UNL     1      21.962   2.722  25.257  0.00  0.00    +0.179 C 
ATOM     19  C21 UNL     1      22.628   3.005  26.606  0.00  0.00    +0.136 C 
ENDBRANCH   8  12
ENDBRANCH   3   5
BRANCH   1  21
ATOM     20  N1  UNL     1      17.838   3.930  35.946  0.00  0.00    -0.301 N 
ATOM     21  C11 UNL     1      18.385   2.624  35.704  0.00  0.00    +0.300 C 
ATOM     22  O1  UNL     1      18.465   1.792  36.649  0.00  0.00    -0.265 OA
ATOM     23  H12 UNL     1      17.775   4.608  35.152  0.00  0.00    +0.150 HD
BRANCH  20  33
ATOM     24  C1  UNL     1      17.830   9.989  38.245  0.00  0.00    +0.044 C 
ATOM     25  C2  UNL     1      17.757   8.507  38.027  0.00  0.00    -0.050 A 
ATOM     26  C3  UNL     1      18.942   7.754  37.873  0.00  0.00    +0.004 A 
ATOM     27  C4  UNL     1      18.877   6.374  37.630  0.00  0.00    +0.006 A 
ATOM     28  C5  UNL     1      17.624   5.765  37.529  0.00  0.00    -0.024 A 
ATOM     29  C6  UNL     1      16.470   6.494  37.667  0.00  0.00    -0.042 A 
ATOM     30  C7  UNL     1      16.507   7.870  37.906  0.00  0.00    +0.007 A 
ATOM     31  C8  UNL     1      15.258   5.656  37.519  0.00  0.00    +0.037 C 
ATOM     32  C9  UNL     1      15.808   4.227  37.350  0.00  0.00    +0.032 C 
ATOM     33  C10 UNL     1      17.350   4.327  37.271  0.00  0.00    +0.104 C 
ENDBRANCH  20  33
ENDBRANCH   1  21
TORSDOF 4
ENDMDL
MODEL 7
REMARK VINA RESULT:    -7.009      6.440      7.657
REMARK INTER + INTRA:          -9.367
REMARK INTER:                  -8.664
REMARK INTRA:                  -0.703
REMARK UNBOUND:                -0.720
REMARK  Name = /home/qwerty/github/datacon2025hack/step_04_hit_selection/docking/ligands/lig_532.pdb
REMARK  5 active torsions:
REMARK  status: ('A' for Active; 'I' for Inactive)
REMARK    1  A    between atoms: C1_1  and  C2_2
REMARK    2  A    between atoms: C10_10  and  N1_11
REMARK    3  A    between atoms: C11_12  and  C12_14
REMARK    4  A    between atoms: N2_16  and  C13_17
REMARK    5  A    between atoms: C16_20  and  C17_21
REMARK                            x       y       z     vdW  Elec       q    Type
REMARK                         _______ _______ _______ _____ _____    ______ ____
ROOT
ATOM      1  C12 UNL     1      17.816  -0.415  24.363  0.00  0.00    +0.303 C 
ATOM      2  O2  UNL     1      18.150  -1.483  24.945  0.00  0.00    -0.265 OA
ATOM      3  N2  UNL     1      18.050   0.855  24.994  0.00  0.00    -0.278 N 
ATOM      4  H13 UNL     1      17.490   1.675  24.668  0.00  0.00    +0.155 HD
ENDROOT
BRANCH   3   5
ATOM      5  C13 UNL     1      18.904   1.040  26.137  0.00  0.00    +0.037 A 
ATOM      6  C14 UNL     1      20.289   1.145  25.950  0.00  0.00    +0.024 A 
ATOM      7  C15 UNL     1      21.143   1.305  27.045  0.00  0.00    +0.018 A 
ATOM      8  C16 UNL     1      20.624   1.362  28.348  0.00  0.00    +0.072 A 
ATOM      9  C22 UNL     1      19.239   1.212  28.543  0.00  0.00    +0.137 A 
ATOM     10  F1  UNL     1      18.716   1.166  29.793  0.00  0.00    -0.205 F 
ATOM     11  C23 UNL     1      18.387   1.051  27.444  0.00  0.00    +0.062 A 
BRANCH   8  12
ATOM     12  C17 UNL     1      21.540   1.537  29.495  0.00  0.00    +0.250 C 
ATOM     13  O3  UNL     1      22.466   0.698  29.666  0.00  0.00    -0.270 OA
ATOM     14  N3  UNL     1      21.417   2.653  30.398  0.00  0.00    -0.293 N 
ATOM     15  C18 UNL     1      20.887   3.944  29.949  0.00  0.00    +0.136 C 
ATOM     16  C19 UNL     1      21.672   5.078  30.615  0.00  0.00    +0.179 C 
ATOM     17  O4  UNL     1      21.703   4.911  32.021  0.00  0.00    -0.377 OA
ATOM     18  C20 UNL     1      22.425   3.738  32.348  0.00  0.00    +0.179 C 
ATOM     19  C21 UNL     1      21.708   2.491  31.826  0.00  0.00    +0.136 C 
ENDBRANCH   8  12
ENDBRANCH   3   5
BRANCH   1  21
ATOM     20  N1  UNL     1      16.357   0.621  22.575  0.00  0.00    -0.301 N 
ATOM     21  C11 UNL     1      17.143  -0.483  23.052  0.00  0.00    +0.300 C 
ATOM     22  O1  UNL     1      17.258  -1.523  22.347  0.00  0.00    -0.265 OA
ATOM     23  H12 UNL     1      16.274   1.478  23.169  0.00  0.00    +0.150 HD
BRANCH  20  33
ATOM     24  C1  UNL     1      10.571   3.241  21.289  0.00  0.00    +0.044 C 
ATOM     25  C2  UNL     1      11.871   2.493  21.288  0.00  0.00    -0.050 A 
ATOM     26  C3  UNL     1      12.021   1.330  22.074  0.00  0.00    +0.004 A 
ATOM     27  C4  UNL     1      13.247   0.650  22.107  0.00  0.00    +0.006 A 
ATOM     28  C5  UNL     1      14.317   1.152  21.361  0.00  0.00    -0.024 A 
ATOM     29  C6  UNL     1      14.179   2.288  20.604  0.00  0.00    -0.042 A 
ATOM     30  C7  UNL     1      12.970   2.985  20.557  0.00  0.00    +0.007 A 
ATOM     31  C8  UNL     1      15.432   2.646  19.900  0.00  0.00    +0.037 C 
ATOM     32  C9  UNL     1      16.400   1.499  20.250  0.00  0.00    +0.032 C 
ATOM     33  C10 UNL     1      15.686   0.582  21.271  0.00  0.00    +0.104 C 
ENDBRANCH  20  33
ENDBRANCH   1  21
TORSDOF 4
ENDMDL
MODEL 8
REMARK VINA RESULT:    -6.895      7.604     12.278
REMARK INTER + INTRA:          -9.227
REMARK INTER:                  -8.503
REMARK INTRA:                  -0.724
REMARK UNBOUND:                -0.720
REMARK  Name = /home/qwerty/github/datacon2025hack/step_04_hit_selection/docking/ligands/lig_532.pdb
REMARK  5 active torsions:
REMARK  status: ('A' for Active; 'I' for Inactive)
REMARK    1  A    between atoms: C1_1  and  C2_2
REMARK    2  A    between atoms: C10_10  and  N1_11
REMARK    3  A    between atoms: C11_12  and  C12_14
REMARK    4  A    between atoms: N2_16  and  C13_17
REMARK    5  A    between atoms: C16_20  and  C17_21
REMARK                            x       y       z     vdW  Elec       q    Type
REMARK                         _______ _______ _______ _____ _____    ______ ____
ROOT
ATOM      1  C12 UNL     1      17.506   7.601  19.831  0.00  0.00    +0.303 C 
ATOM      2  O2  UNL     1      17.969   7.746  20.994  0.00  0.00    -0.265 OA
ATOM      3  N2  UNL     1      17.494   8.710  18.915  0.00  0.00    -0.278 N 
ATOM      4  H13 UNL     1      16.831   8.672  18.107  0.00  0.00    +0.155 HD
ENDROOT
BRANCH   3   5
ATOM      5  C13 UNL     1      18.234   9.927  19.116  0.00  0.00    +0.037 A 
ATOM      6  C14 UNL     1      17.550  11.093  19.485  0.00  0.00    +0.024 A 
ATOM      7  C15 UNL     1      18.242  12.294  19.667  0.00  0.00    +0.018 A 
ATOM      8  C16 UNL     1      19.632  12.348  19.482  0.00  0.00    +0.072 A 
ATOM      9  C22 UNL     1      20.315  11.190  19.067  0.00  0.00    +0.137 A 
ATOM     10  F1  UNL     1      21.641  11.232  18.786  0.00  0.00    -0.205 F 
ATOM     11  C23 UNL     1      19.619   9.990  18.885  0.00  0.00    +0.062 A 
BRANCH   8  12
ATOM     12  C17 UNL     1      20.349  13.625  19.683  0.00  0.00    +0.250 C 
ATOM     13  O3  UNL     1      20.344  14.478  18.754  0.00  0.00    -0.270 OA
ATOM     14  N3  UNL     1      21.025  13.926  20.919  0.00  0.00    -0.293 N 
ATOM     15  C18 UNL     1      20.558  13.379  22.198  0.00  0.00    +0.136 C 
ATOM     16  C19 UNL     1      20.704  14.441  23.291  0.00  0.00    +0.179 C 
ATOM     17  O4  UNL     1      22.022  14.959  23.318  0.00  0.00    -0.377 OA
ATOM     18  C20 UNL     1      22.289  15.651  22.112  0.00  0.00    +0.179 C 
ATOM     19  C21 UNL     1      22.274  14.693  20.918  0.00  0.00    +0.136 C 
ENDBRANCH   8  12
ENDBRANCH   3   5
BRANCH   1  21
ATOM     20  N1  UNL     1      15.634   5.900  19.891  0.00  0.00    -0.301 N 
ATOM     21  C11 UNL     1      16.935   6.300  19.432  0.00  0.00    +0.300 C 
ATOM     22  O1  UNL     1      17.602   5.532  18.685  0.00  0.00    -0.265 OA
ATOM     23  H12 UNL     1      15.092   6.549  20.506  0.00  0.00    +0.150 HD
BRANCH  20  33
ATOM     24  C1  UNL     1      15.313   0.649  23.675  0.00  0.00    +0.044 C 
ATOM     25  C2  UNL     1      15.292   1.653  22.561  0.00  0.00    -0.050 A 
ATOM     26  C3  UNL     1      16.502   2.108  21.994  0.00  0.00    +0.004 A 
ATOM     27  C4  UNL     1      16.489   3.076  20.978  0.00  0.00    +0.006 A 
ATOM     28  C5  UNL     1      15.262   3.589  20.552  0.00  0.00    -0.024 A 
ATOM     29  C6  UNL     1      14.083   3.158  21.107  0.00  0.00    -0.042 A 
ATOM     30  C7  UNL     1      14.070   2.197  22.121  0.00  0.00    +0.007 A 
ATOM     31  C8  UNL     1      12.906   3.832  20.514  0.00  0.00    +0.037 C 
ATOM     32  C9  UNL     1      13.501   4.720  19.405  0.00  0.00    +0.032 C 
ATOM     33  C10 UNL     1      15.041   4.616  19.501  0.00  0.00    +0.104 C 
ENDBRANCH  20  33
ENDBRANCH   1  21
TORSDOF 4
ENDMDL
MODEL 9
REMARK VINA RESULT:    -6.851      6.518     10.914
REMARK INTER + INTRA:          -9.173
REMARK INTER:                  -8.373
REMARK INTRA:                  -0.800
REMARK UNBOUND:                -0.720
REMARK  Name = /home/qwerty/github/datacon2025hack/step_04_hit_selection/docking/ligands/lig_532.pdb
REMARK  5 active torsions:
REMARK  status: ('A' for Active; 'I' for Inactive)
REMARK    1  A    between atoms: C1_1  and  C2_2
REMARK    2  A    between atoms: C10_10  and  N1_11
REMARK    3  A    between atoms: C11_12  and  C12_14
REMARK    4  A    between atoms: N2_16  and  C13_17
REMARK    5  A    between atoms: C16_20  and  C17_21
REMARK                            x       y       z     vdW  Elec       q    Type
REMARK                         _______ _______ _______ _____ _____    ______ ____
ROOT
ATOM      1  C12 UNL     1      22.577   5.414  33.509  0.00  0.00    +0.303 C 
ATOM      2  O2  UNL     1      23.702   5.161  32.998  0.00  0.00    -0.265 OA
ATOM      3  N2  UNL     1      21.371   5.053  32.814  0.00  0.00    -0.278 N 
ATOM      4  H13 UNL     1      20.487   5.548  33.077  0.00  0.00    +0.155 HD
ENDROOT
BRANCH   3   5
ATOM      5  C13 UNL     1      21.327   4.159  31.689  0.00  0.00    +0.037 A 
ATOM      6  C14 UNL     1      21.245   2.777  31.913  0.00  0.00    +0.024 A 
ATOM      7  C15 UNL     1      21.221   1.885  30.838  0.00  0.00    +0.018 A 
ATOM      8  C16 UNL     1      21.281   2.360  29.518  0.00  0.00    +0.072 A 
ATOM      9  C22 UNL     1      21.409   3.742  29.291  0.00  0.00    +0.137 A 
ATOM     10  F1  UNL     1      21.566   4.226  28.034  0.00  0.00    -0.205 F 
ATOM     11  C23 UNL     1      21.433   4.633  30.370  0.00  0.00    +0.062 A 
BRANCH   8  12
ATOM     12  C17 UNL     1      21.250   1.402  28.392  0.00  0.00    +0.250 C 
ATOM     13  O3  UNL     1      22.193   0.573  28.273  0.00  0.00    -0.270 OA
ATOM     14  N3  UNL     1      20.160   1.377  27.451  0.00  0.00    -0.293 N 
ATOM     15  C18 UNL     1      18.802   1.769  27.844  0.00  0.00    +0.136 C 
ATOM     16  C19 UNL     1      17.787   0.846  27.164  0.00  0.00    +0.179 C 
ATOM     17  O4  UNL     1      18.006   0.800  25.765  0.00  0.00    -0.377 OA
ATOM     18  C20 UNL     1      19.262   0.207  25.496  0.00  0.00    +0.179 C 
ATOM     19  C21 UNL     1      20.402   1.073  26.037  0.00  0.00    +0.136 C 
ENDBRANCH   8  12
ENDBRANCH   3   5
BRANCH   1  21
ATOM     20  N1  UNL     1      21.243   6.512  35.356  0.00  0.00    -0.301 N 
ATOM     21  C11 UNL     1      22.509   6.123  34.801  0.00  0.00    +0.300 C 
ATOM     22  O1  UNL     1      23.576   6.392  35.419  0.00  0.00    -0.265 OA
ATOM     23  H12 UNL     1      20.367   6.280  34.834  0.00  0.00    +0.150 HD
BRANCH  20  33
ATOM     24  C1  UNL     1      18.673  12.399  36.219  0.00  0.00    +0.044 C 
ATOM     25  C2  UNL     1      19.374  11.078  36.332  0.00  0.00    -0.050 A 
ATOM     26  C3  UNL     1      20.616  10.877  35.692  0.00  0.00    +0.004 A 
ATOM     27  C4  UNL     1      21.257   9.631  35.763  0.00  0.00    +0.006 A 
ATOM     28  C5  UNL     1      20.636   8.593  36.462  0.00  0.00    -0.024 A 
ATOM     29  C6  UNL     1      19.424   8.779  37.077  0.00  0.00    -0.042 A 
ATOM     30  C7  UNL     1      18.765  10.010  37.019  0.00  0.00    +0.007 A 
ATOM     31  C8  UNL     1      18.946   7.553  37.755  0.00  0.00    +0.037 C 
ATOM     32  C9  UNL     1      20.095   6.545  37.562  0.00  0.00    +0.032 C 
ATOM     33  C10 UNL     1      21.149   7.210  36.644  0.00  0.00    +0.104 C 
ENDBRANCH  20  33
ENDBRANCH   1  21
TORSDOF 4
ENDMDL
