MODEL 1
REMARK VINA RESULT:    -6.909      0.000      0.000
REMARK INTER + INTRA:          -8.771
REMARK INTER:                  -8.121
REMARK INTRA:                  -0.651
REMARK UNBOUND:                -0.651
REMARK  Name = /home/qwerty/github/datacon2025hack/step_04_hit_selection/docking/ligands/lig_576.pdb
REMARK  4 active torsions:
REMARK  status: ('A' for Active; 'I' for Inactive)
REMARK    1  A    between atoms: C1_1  and  C2_2
REMARK    2  A    between atoms: C4_5  and  C5_7
REMARK    3  A    between atoms: C12_17  and  N5_18
REMARK    4  A    between atoms: C13_19  and  C14_21
REMARK                            x       y       z     vdW  Elec       q    Type
REMARK                         _______ _______ _______ _____ _____    ______ ____
ROOT
ATOM      1  C1  UNL     1      19.552   3.649  32.375  0.00  0.00    +0.011 C 
ATOM      2  C2  UNL     1      20.967   3.684  32.962  0.00  0.00    +0.025 C 
ATOM      3  C3  UNL     1      21.159   4.826  33.961  0.00  0.00    +0.113 C 
ATOM      4  N1  UNL     1      22.511   5.320  33.741  0.00  0.00    -0.294 N 
ATOM      5  C4  UNL     1      23.135   6.406  34.458  0.00  0.00    +0.266 C 
ATOM      6  O1  UNL     1      24.306   6.747  34.142  0.00  0.00    -0.268 OA
ATOM      7  C11 UNL     1      23.149   4.690  32.594  0.00  0.00    +0.130 C 
ATOM      8  C12 UNL     1      22.046   3.898  31.892  0.00  0.00    +0.095 C 
ENDROOT
BRANCH   5   9
ATOM      9  C5  UNL     1      22.448   7.142  35.551  0.00  0.00    +0.138 A 
ATOM     10  N2  UNL     1      22.457   6.670  36.834  0.00  0.00    -0.232 NA
ATOM     11  C6  UNL     1      21.854   7.327  37.877  0.00  0.00    +0.198 A 
ATOM     12  N3  UNL     1      21.204   8.512  37.680  0.00  0.00    -0.330 N 
ATOM     13  C7  UNL     1      21.173   9.023  36.429  0.00  0.00    +0.141 A 
ATOM     14  N4  UNL     1      20.567  10.158  36.044  0.00  0.00    -0.237 NA
ATOM     15  C8  UNL     1      20.794  10.222  34.707  0.00  0.00    +0.114 A 
ATOM     16  C9  UNL     1      21.537   9.139  34.233  0.00  0.00    +0.033 A 
ATOM     17  C10 UNL     1      21.794   8.356  35.334  0.00  0.00    +0.049 A 
ATOM     18  H8  UNL     1      20.742   9.007  38.474  0.00  0.00    +0.168 HD
ENDBRANCH   5   9
BRANCH   8  19
ATOM     19  N5  UNL     1      22.546   2.620  31.377  0.00  0.00    -0.307 N 
ATOM     20  C13 UNL     1      22.358   2.213  30.012  0.00  0.00    +0.247 C 
ATOM     21  O2  UNL     1      21.785   2.985  29.197  0.00  0.00    -0.270 OA
ATOM     22  H14 UNL     1      22.916   1.927  32.066  0.00  0.00    +0.149 HD
BRANCH  20  23
ATOM     23  C14 UNL     1      22.825   0.895  29.540  0.00  0.00    +0.074 A 
ATOM     24  C15 UNL     1      22.064  -0.226  29.272  0.00  0.00    +0.054 A 
ATOM     25  C16 UNL     1      22.959  -1.195  28.869  0.00  0.00    +0.195 A 
ATOM     26  O3  UNL     1      24.180  -0.710  28.888  0.00  0.00    -0.470 OA
ATOM     27  C17 UNL     1      24.136   0.540  29.285  0.00  0.00    +0.207 A 
ENDBRANCH  20  23
ENDBRANCH   8  19
TORSDOF 3
ENDMDL
MODEL 2
REMARK VINA RESULT:    -6.452      8.086     12.784
REMARK INTER + INTRA:          -8.235
REMARK INTER:                  -7.575
REMARK INTRA:                  -0.660
REMARK UNBOUND:                -0.651
REMARK  Name = /home/qwerty/github/datacon2025hack/step_04_hit_selection/docking/ligands/lig_576.pdb
REMARK  4 active torsions:
REMARK  status: ('A' for Active; 'I' for Inactive)
REMARK    1  A    between atoms: C1_1  and  C2_2
REMARK    2  A    between atoms: C4_5  and  C5_7
REMARK    3  A    between atoms: C12_17  and  N5_18
REMARK    4  A    between atoms: C13_19  and  C14_21
REMARK                            x       y       z     vdW  Elec       q    Type
REMARK                         _______ _______ _______ _____ _____    ______ ____
ROOT
ATOM      1  C1  UNL     1      19.503   3.133  24.888  0.00  0.00    +0.011 C 
ATOM      2  C2  UNL     1      19.625   1.649  24.528  0.00  0.00    +0.025 C 
ATOM      3  C3  UNL     1      18.598   1.213  23.481  0.00  0.00    +0.113 C 
ATOM      4  N1  UNL     1      18.185  -0.129  23.868  0.00  0.00    -0.294 N 
ATOM      5  C4  UNL     1      17.219  -0.943  23.171  0.00  0.00    +0.266 C 
ATOM      6  O1  UNL     1      16.934  -2.079  23.637  0.00  0.00    -0.268 OA
ATOM      7  C11 UNL     1      18.749  -0.532  25.148  0.00  0.00    +0.130 C 
ATOM      8  C12 UNL     1      19.389   0.727  25.731  0.00  0.00    +0.095 C 
ENDROOT
BRANCH   5   9
ATOM      9  C5  UNL     1      16.540  -0.493  21.928  0.00  0.00    +0.138 A 
ATOM     10  N2  UNL     1      16.980  -0.898  20.699  0.00  0.00    -0.232 NA
ATOM     11  C6  UNL     1      16.373  -0.523  19.526  0.00  0.00    +0.198 A 
ATOM     12  N3  UNL     1      15.273   0.287  19.532  0.00  0.00    -0.330 N 
ATOM     13  C7  UNL     1      14.797   0.709  20.725  0.00  0.00    +0.141 A 
ATOM     14  N4  UNL     1      13.746   1.522  20.923  0.00  0.00    -0.237 NA
ATOM     15  C8  UNL     1      13.687   1.668  22.271  0.00  0.00    +0.114 A 
ATOM     16  C9  UNL     1      14.689   0.960  22.937  0.00  0.00    +0.033 A 
ATOM     17  C10 UNL     1      15.414   0.330  21.951  0.00  0.00    +0.049 A 
ATOM     18  H8  UNL     1      14.816   0.575  18.639  0.00  0.00    +0.168 HD
ENDBRANCH   5   9
BRANCH   8  19
ATOM     19  N5  UNL     1      20.646   0.420  26.421  0.00  0.00    -0.307 N 
ATOM     20  C13 UNL     1      20.913   0.853  27.765  0.00  0.00    +0.247 C 
ATOM     21  O2  UNL     1      20.032   1.482  28.412  0.00  0.00    -0.270 OA
ATOM     22  H14 UNL     1      21.423   0.006  25.859  0.00  0.00    +0.149 HD
BRANCH  20  23
ATOM     23  C14 UNL     1      22.211   0.576  28.410  0.00  0.00    +0.074 A 
ATOM     24  C15 UNL     1      23.209   1.477  28.726  0.00  0.00    +0.054 A 
ATOM     25  C16 UNL     1      24.215   0.731  29.304  0.00  0.00    +0.195 A 
ATOM     26  O3  UNL     1      23.866  -0.535  29.341  0.00  0.00    -0.470 OA
ATOM     27  C17 UNL     1      22.671  -0.663  28.813  0.00  0.00    +0.207 A 
ENDBRANCH  20  23
ENDBRANCH   8  19
TORSDOF 3
ENDMDL
MODEL 3
REMARK VINA RESULT:    -6.126     15.439     18.623
REMARK INTER + INTRA:          -7.851
REMARK INTER:                  -7.262
REMARK INTRA:                  -0.589
REMARK UNBOUND:                -0.651
REMARK  Name = /home/qwerty/github/datacon2025hack/step_04_hit_selection/docking/ligands/lig_576.pdb
REMARK  4 active torsions:
REMARK  status: ('A' for Active; 'I' for Inactive)
REMARK    1  A    between atoms: C1_1  and  C2_2
REMARK    2  A    between atoms: C4_5  and  C5_7
REMARK    3  A    between atoms: C12_17  and  N5_18
REMARK    4  A    between atoms: C13_19  and  C14_21
REMARK                            x       y       z     vdW  Elec       q    Type
REMARK                         _______ _______ _______ _____ _____    ______ ____
ROOT
ATOM      1  C1  UNL     1       9.378   7.704  26.940  0.00  0.00    +0.011 C 
ATOM      2  C2  UNL     1       8.616   8.419  25.821  0.00  0.00    +0.025 C 
ATOM      3  C3  UNL     1       8.729   7.694  24.478  0.00  0.00    +0.113 C 
ATOM      4  N1  UNL     1       8.827   8.742  23.472  0.00  0.00    -0.294 N 
ATOM      5  C4  UNL     1       8.956   8.529  22.050  0.00  0.00    +0.266 C 
ATOM      6  O1  UNL     1       9.062   9.533  21.294  0.00  0.00    -0.268 OA
ATOM      7  C11 UNL     1       8.933  10.068  24.063  0.00  0.00    +0.130 C 
ATOM      8  C12 UNL     1       9.142   9.836  25.559  0.00  0.00    +0.095 C 
ENDROOT
BRANCH   5   9
ATOM      9  C5  UNL     1       8.976   7.174  21.441  0.00  0.00    +0.138 A 
ATOM     10  N2  UNL     1       7.823   6.458  21.277  0.00  0.00    -0.232 NA
ATOM     11  C6  UNL     1       7.791   5.212  20.703  0.00  0.00    +0.198 A 
ATOM     12  N3  UNL     1       8.935   4.616  20.254  0.00  0.00    -0.330 N 
ATOM     13  C7  UNL     1      10.101   5.288  20.389  0.00  0.00    +0.141 A 
ATOM     14  N4  UNL     1      11.319   4.853  20.027  0.00  0.00    -0.237 NA
ATOM     15  C8  UNL     1      12.154   5.862  20.387  0.00  0.00    +0.114 A 
ATOM     16  C9  UNL     1      11.482   6.934  20.977  0.00  0.00    +0.033 A 
ATOM     17  C10 UNL     1      10.153   6.581  20.981  0.00  0.00    +0.049 A 
ATOM     18  H8  UNL     1       8.909   3.666  19.822  0.00  0.00    +0.168 HD
ENDBRANCH   5   9
BRANCH   8  19
ATOM     19  N5  UNL     1       8.421  10.829  26.362  0.00  0.00    -0.307 N 
ATOM     20  C13 UNL     1       9.099  11.796  27.181  0.00  0.00    +0.247 C 
ATOM     21  O2  UNL     1      10.359  11.843  27.190  0.00  0.00    -0.270 OA
ATOM     22  H14 UNL     1       7.386  10.725  26.453  0.00  0.00    +0.149 HD
BRANCH  20  23
ATOM     23  C14 UNL     1       8.342  12.745  28.020  0.00  0.00    +0.074 A 
ATOM     24  C15 UNL     1       8.054  12.638  29.367  0.00  0.00    +0.054 A 
ATOM     25  C16 UNL     1       7.324  13.766  29.681  0.00  0.00    +0.195 A 
ATOM     26  O3  UNL     1       7.172  14.511  28.610  0.00  0.00    -0.470 OA
ATOM     27  C17 UNL     1       7.770  13.928  27.597  0.00  0.00    +0.207 A 
ENDBRANCH  20  23
ENDBRANCH   8  19
TORSDOF 3
ENDMDL
MODEL 4
REMARK VINA RESULT:    -6.022      6.077      9.407
REMARK INTER + INTRA:          -7.729
REMARK INTER:                  -7.099
REMARK INTRA:                  -0.629
REMARK UNBOUND:                -0.651
REMARK  Name = /home/qwerty/github/datacon2025hack/step_04_hit_selection/docking/ligands/lig_576.pdb
REMARK  4 active torsions:
REMARK  status: ('A' for Active; 'I' for Inactive)
REMARK    1  A    between atoms: C1_1  and  C2_2
REMARK    2  A    between atoms: C4_5  and  C5_7
REMARK    3  A    between atoms: C12_17  and  N5_18
REMARK    4  A    between atoms: C13_19  and  C14_21
REMARK                            x       y       z     vdW  Elec       q    Type
REMARK                         _______ _______ _______ _____ _____    ______ ____
ROOT
ATOM      1  C1  UNL     1      16.563   9.088  37.914  0.00  0.00    +0.011 C 
ATOM      2  C2  UNL     1      17.486  10.211  37.431  0.00  0.00    +0.025 C 
ATOM      3  C3  UNL     1      16.713  11.441  36.950  0.00  0.00    +0.113 C 
ATOM      4  N1  UNL     1      17.449  11.944  35.799  0.00  0.00    -0.294 N 
ATOM      5  C4  UNL     1      17.087  13.098  35.011  0.00  0.00    +0.266 C 
ATOM      6  O1  UNL     1      17.803  13.403  34.019  0.00  0.00    -0.268 OA
ATOM      7  C11 UNL     1      18.542  11.063  35.414  0.00  0.00    +0.130 C 
ATOM      8  C12 UNL     1      18.355   9.790  36.239  0.00  0.00    +0.095 C 
ENDROOT
BRANCH   5   9
ATOM      9  C5  UNL     1      15.899  13.936  35.317  0.00  0.00    +0.138 A 
ATOM     10  N2  UNL     1      16.008  15.054  36.096  0.00  0.00    -0.232 NA
ATOM     11  C6  UNL     1      14.943  15.868  36.390  0.00  0.00    +0.198 A 
ATOM     12  N3  UNL     1      13.696  15.597  35.902  0.00  0.00    -0.330 N 
ATOM     13  C7  UNL     1      13.539  14.504  35.121  0.00  0.00    +0.141 A 
ATOM     14  N4  UNL     1      12.391  14.071  34.575  0.00  0.00    -0.237 NA
ATOM     15  C8  UNL     1      12.743  12.940  33.911  0.00  0.00    +0.114 A 
ATOM     16  C9  UNL     1      14.102  12.644  34.031  0.00  0.00    +0.033 A 
ATOM     17  C10 UNL     1      14.633  13.649  34.806  0.00  0.00    +0.049 A 
ATOM     18  H8  UNL     1      12.886  16.215  36.130  0.00  0.00    +0.168 HD
ENDBRANCH   5   9
BRANCH   8  19
ATOM     19  N5  UNL     1      19.641   9.245  36.684  0.00  0.00    -0.307 N 
ATOM     20  C13 UNL     1      20.284   8.146  36.017  0.00  0.00    +0.247 C 
ATOM     21  O2  UNL     1      19.766   7.645  34.983  0.00  0.00    -0.270 OA
ATOM     22  H14 UNL     1      20.019   9.571  37.601  0.00  0.00    +0.149 HD
BRANCH  20  23
ATOM     23  C14 UNL     1      21.551   7.585  36.525  0.00  0.00    +0.074 A 
ATOM     24  C15 UNL     1      21.798   7.046  37.773  0.00  0.00    +0.054 A 
ATOM     25  C16 UNL     1      23.125   6.669  37.760  0.00  0.00    +0.195 A 
ATOM     26  O3  UNL     1      23.657   6.954  36.593  0.00  0.00    -0.470 OA
ATOM     27  C17 UNL     1      22.742   7.504  35.830  0.00  0.00    +0.207 A 
ENDBRANCH  20  23
ENDBRANCH   8  19
TORSDOF 3
ENDMDL
MODEL 5
REMARK VINA RESULT:    -6.002     11.127     13.866
REMARK INTER + INTRA:          -7.705
REMARK INTER:                  -7.056
REMARK INTRA:                  -0.649
REMARK UNBOUND:                -0.651
REMARK  Name = /home/qwerty/github/datacon2025hack/step_04_hit_selection/docking/ligands/lig_576.pdb
REMARK  4 active torsions:
REMARK  status: ('A' for Active; 'I' for Inactive)
REMARK    1  A    between atoms: C1_1  and  C2_2
REMARK    2  A    between atoms: C4_5  and  C5_7
REMARK    3  A    between atoms: C12_17  and  N5_18
REMARK    4  A    between atoms: C13_19  and  C14_21
REMARK                            x       y       z     vdW  Elec       q    Type
REMARK                         _______ _______ _______ _____ _____    ______ ____
ROOT
ATOM      1  C1  UNL     1      13.738  12.147  30.810  0.00  0.00    +0.011 C 
ATOM      2  C2  UNL     1      13.031  13.178  31.695  0.00  0.00    +0.025 C 
ATOM      3  C3  UNL     1      13.678  13.309  33.076  0.00  0.00    +0.113 C 
ATOM      4  N1  UNL     1      12.578  13.498  34.010  0.00  0.00    -0.294 N 
ATOM      5  C4  UNL     1      12.709  13.664  35.438  0.00  0.00    +0.266 C 
ATOM      6  O1  UNL     1      11.664  13.790  36.133  0.00  0.00    -0.268 OA
ATOM      7  C11 UNL     1      11.278  13.356  33.370  0.00  0.00    +0.130 C 
ATOM      8  C12 UNL     1      11.566  12.815  31.970  0.00  0.00    +0.095 C 
ENDROOT
BRANCH   5   9
ATOM      9  C5  UNL     1      14.027  13.685  36.123  0.00  0.00    +0.138 A 
ATOM     10  N2  UNL     1      14.676  14.864  36.366  0.00  0.00    -0.232 NA
ATOM     11  C6  UNL     1      15.885  14.933  37.013  0.00  0.00    +0.198 A 
ATOM     12  N3  UNL     1      16.509  13.803  37.459  0.00  0.00    -0.330 N 
ATOM     13  C7  UNL     1      15.903  12.613  37.248  0.00  0.00    +0.141 A 
ATOM     14  N4  UNL     1      16.374  11.404  37.594  0.00  0.00    -0.237 NA
ATOM     15  C8  UNL     1      15.429  10.537  37.150  0.00  0.00    +0.114 A 
ATOM     16  C9  UNL     1      14.360  11.178  36.520  0.00  0.00    +0.033 A 
ATOM     17  C10 UNL     1      14.649  12.522  36.579  0.00  0.00    +0.049 A 
ATOM     18  H8  UNL     1      17.430  13.858  37.946  0.00  0.00    +0.168 HD
ENDBRANCH   5   9
BRANCH   8  19
ATOM     19  N5  UNL     1      10.673  13.411  30.970  0.00  0.00    -0.307 N 
ATOM     20  C13 UNL     1       9.785  12.621  30.163  0.00  0.00    +0.247 C 
ATOM     21  O2  UNL     1       9.718  11.373  30.333  0.00  0.00    -0.270 OA
ATOM     22  H14 UNL     1      10.803  14.421  30.740  0.00  0.00    +0.149 HD
BRANCH  20  23
ATOM     23  C14 UNL     1       8.941  13.247  29.127  0.00  0.00    +0.074 A 
ATOM     24  C15 UNL     1       9.249  13.455  27.796  0.00  0.00    +0.054 A 
ATOM     25  C16 UNL     1       8.144  14.074  27.251  0.00  0.00    +0.195 A 
ATOM     26  O3  UNL     1       7.224  14.237  28.174  0.00  0.00    -0.470 OA
ATOM     27  C17 UNL     1       7.668  13.753  29.310  0.00  0.00    +0.207 A 
ENDBRANCH  20  23
ENDBRANCH   8  19
TORSDOF 3
ENDMDL
MODEL 6
REMARK VINA RESULT:    -5.753      5.922      9.440
REMARK INTER + INTRA:          -7.412
REMARK INTER:                  -6.800
REMARK INTRA:                  -0.612
REMARK UNBOUND:                -0.651
REMARK  Name = /home/qwerty/github/datacon2025hack/step_04_hit_selection/docking/ligands/lig_576.pdb
REMARK  4 active torsions:
REMARK  status: ('A' for Active; 'I' for Inactive)
REMARK    1  A    between atoms: C1_1  and  C2_2
REMARK    2  A    between atoms: C4_5  and  C5_7
REMARK    3  A    between atoms: C12_17  and  N5_18
REMARK    4  A    between atoms: C13_19  and  C14_21
REMARK                            x       y       z     vdW  Elec       q    Type
REMARK                         _______ _______ _______ _____ _____    ______ ____
ROOT
ATOM      1  C1  UNL     1      16.904   3.158  30.143  0.00  0.00    +0.011 C 
ATOM      2  C2  UNL     1      18.350   2.809  30.506  0.00  0.00    +0.025 C 
ATOM      3  C3  UNL     1      19.257   2.714  29.278  0.00  0.00    +0.113 C 
ATOM      4  N1  UNL     1      20.169   1.611  29.545  0.00  0.00    -0.294 N 
ATOM      5  C4  UNL     1      21.208   1.147  28.657  0.00  0.00    +0.266 C 
ATOM      6  O1  UNL     1      21.907   0.157  29.006  0.00  0.00    -0.268 OA
ATOM      7  C11 UNL     1      19.832   0.900  30.770  0.00  0.00    +0.130 C 
ATOM      8  C12 UNL     1      18.473   1.448  31.204  0.00  0.00    +0.095 C 
ENDROOT
BRANCH   5   9
ATOM      9  C5  UNL     1      21.481   1.785  27.343  0.00  0.00    +0.138 A 
ATOM     10  N2  UNL     1      22.514   2.667  27.190  0.00  0.00    -0.232 NA
ATOM     11  C6  UNL     1      22.816   3.265  25.992  0.00  0.00    +0.198 A 
ATOM     12  N3  UNL     1      22.085   2.997  24.869  0.00  0.00    -0.330 N 
ATOM     13  C7  UNL     1      21.057   2.126  24.969  0.00  0.00    +0.141 A 
ATOM     14  N4  UNL     1      20.221   1.760  23.984  0.00  0.00    -0.237 NA
ATOM     15  C8  UNL     1      19.357   0.900  24.580  0.00  0.00    +0.114 A 
ATOM     16  C9  UNL     1      19.630   0.713  25.937  0.00  0.00    +0.033 A 
ATOM     17  C10 UNL     1      20.730   1.496  26.203  0.00  0.00    +0.049 A 
ATOM     18  H8  UNL     1      22.314   3.457  23.960  0.00  0.00    +0.168 HD
ENDBRANCH   5   9
BRANCH   8  19
ATOM     19  N5  UNL     1      18.390   1.587  32.661  0.00  0.00    -0.307 N 
ATOM     20  C13 UNL     1      17.880   0.542  33.507  0.00  0.00    +0.247 C 
ATOM     21  O2  UNL     1      17.528  -0.560  33.005  0.00  0.00    -0.270 OA
ATOM     22  H14 UNL     1      18.566   2.530  33.072  0.00  0.00    +0.149 HD
BRANCH  20  23
ATOM     23  C14 UNL     1      17.758   0.737  34.964  0.00  0.00    +0.074 A 
ATOM     24  C15 UNL     1      18.361   1.706  35.742  0.00  0.00    +0.054 A 
ATOM     25  C16 UNL     1      17.939   1.462  37.033  0.00  0.00    +0.195 A 
ATOM     26  O3  UNL     1      17.138   0.421  37.051  0.00  0.00    -0.470 OA
ATOM     27  C17 UNL     1      17.008  -0.038  35.828  0.00  0.00    +0.207 A 
ENDBRANCH  20  23
ENDBRANCH   8  19
TORSDOF 3
ENDMDL
MODEL 7
REMARK VINA RESULT:    -5.677     14.691     15.902
REMARK INTER + INTRA:          -7.323
REMARK INTER:                  -6.676
REMARK INTRA:                  -0.647
REMARK UNBOUND:                -0.651
REMARK  Name = /home/qwerty/github/datacon2025hack/step_04_hit_selection/docking/ligands/lig_576.pdb
REMARK  4 active torsions:
REMARK  status: ('A' for Active; 'I' for Inactive)
REMARK    1  A    between atoms: C1_1  and  C2_2
REMARK    2  A    between atoms: C4_5  and  C5_7
REMARK    3  A    between atoms: C12_17  and  N5_18
REMARK    4  A    between atoms: C13_19  and  C14_21
REMARK                            x       y       z     vdW  Elec       q    Type
REMARK                         _______ _______ _______ _____ _____    ______ ____
ROOT
ATOM      1  C1  UNL     1       9.490   4.582  20.560  0.00  0.00    +0.011 C 
ATOM      2  C2  UNL     1      10.364   5.046  21.729  0.00  0.00    +0.025 C 
ATOM      3  C3  UNL     1       9.776   6.257  22.457  0.00  0.00    +0.113 C 
ATOM      4  N1  UNL     1      10.914   7.092  22.815  0.00  0.00    -0.294 N 
ATOM      5  C4  UNL     1      10.842   8.351  23.517  0.00  0.00    +0.266 C 
ATOM      6  O1  UNL     1      11.909   8.985  23.736  0.00  0.00    -0.268 OA
ATOM      7  C11 UNL     1      12.162   6.595  22.255  0.00  0.00    +0.130 C 
ATOM      8  C12 UNL     1      11.764   5.486  21.282  0.00  0.00    +0.095 C 
ENDROOT
BRANCH   5   9
ATOM      9  C5  UNL     1       9.558   8.934  23.985  0.00  0.00    +0.138 A 
ATOM     10  N2  UNL     1       9.062   8.642  25.225  0.00  0.00    -0.232 NA
ATOM     11  C6  UNL     1       7.891   9.172  25.707  0.00  0.00    +0.198 A 
ATOM     12  N3  UNL     1       7.151  10.040  24.955  0.00  0.00    -0.330 N 
ATOM     13  C7  UNL     1       7.604  10.365  23.724  0.00  0.00    +0.141 A 
ATOM     14  N4  UNL     1       7.003  11.180  22.841  0.00  0.00    -0.237 NA
ATOM     15  C8  UNL     1       7.824  11.165  21.760  0.00  0.00    +0.114 A 
ATOM     16  C9  UNL     1       8.941  10.346  21.941  0.00  0.00    +0.033 A 
ATOM     17  C10 UNL     1       8.817   9.826  23.208  0.00  0.00    +0.049 A 
ATOM     18  H8  UNL     1       6.259  10.438  25.322  0.00  0.00    +0.168 HD
ENDBRANCH   5   9
BRANCH   8  19
ATOM     19  N5  UNL     1      12.712   4.368  21.326  0.00  0.00    -0.307 N 
ATOM     20  C13 UNL     1      13.417   3.909  20.160  0.00  0.00    +0.247 C 
ATOM     21  O2  UNL     1      13.265   4.503  19.057  0.00  0.00    -0.270 OA
ATOM     22  H14 UNL     1      12.757   3.799  22.200  0.00  0.00    +0.149 HD
BRANCH  20  23
ATOM     23  C14 UNL     1      14.321   2.746  20.227  0.00  0.00    +0.074 A 
ATOM     24  C15 UNL     1      15.664   2.698  19.904  0.00  0.00    +0.054 A 
ATOM     25  C16 UNL     1      16.054   1.393  20.128  0.00  0.00    +0.195 A 
ATOM     26  O3  UNL     1      15.030   0.689  20.555  0.00  0.00    -0.470 OA
ATOM     27  C17 UNL     1      13.976   1.469  20.625  0.00  0.00    +0.207 A 
ENDBRANCH  20  23
ENDBRANCH   8  19
TORSDOF 3
ENDMDL
MODEL 8
REMARK VINA RESULT:    -5.631      8.220     12.628
REMARK INTER + INTRA:          -7.269
REMARK INTER:                  -6.689
REMARK INTRA:                  -0.580
REMARK UNBOUND:                -0.651
REMARK  Name = /home/qwerty/github/datacon2025hack/step_04_hit_selection/docking/ligands/lig_576.pdb
REMARK  4 active torsions:
REMARK  status: ('A' for Active; 'I' for Inactive)
REMARK    1  A    between atoms: C1_1  and  C2_2
REMARK    2  A    between atoms: C4_5  and  C5_7
REMARK    3  A    between atoms: C12_17  and  N5_18
REMARK    4  A    between atoms: C13_19  and  C14_21
REMARK                            x       y       z     vdW  Elec       q    Type
REMARK                         _______ _______ _______ _____ _____    ______ ____
ROOT
ATOM      1  C1  UNL     1      17.704   4.020  25.856  0.00  0.00    +0.011 C 
ATOM      2  C2  UNL     1      17.970   2.573  25.429  0.00  0.00    +0.025 C 
ATOM      3  C3  UNL     1      16.870   2.018  24.521  0.00  0.00    +0.113 C 
ATOM      4  N1  UNL     1      16.700   0.626  24.914  0.00  0.00    -0.294 N 
ATOM      5  C4  UNL     1      15.761  -0.301  24.329  0.00  0.00    +0.266 C 
ATOM      6  O1  UNL     1      15.700  -1.473  24.790  0.00  0.00    -0.268 OA
ATOM      7  C11 UNL     1      17.490   0.282  26.087  0.00  0.00    +0.130 C 
ATOM      8  C12 UNL     1      18.034   1.608  26.620  0.00  0.00    +0.095 C 
ENDROOT
BRANCH   5   9
ATOM      9  C5  UNL     1      14.857   0.073  23.211  0.00  0.00    +0.138 A 
ATOM     10  N2  UNL     1      13.530   0.319  23.429  0.00  0.00    -0.232 NA
ATOM     11  C6  UNL     1      12.663   0.686  22.431  0.00  0.00    +0.198 A 
ATOM     12  N3  UNL     1      13.095   0.830  21.143  0.00  0.00    -0.330 N 
ATOM     13  C7  UNL     1      14.401   0.603  20.878  0.00  0.00    +0.141 A 
ATOM     14  N4  UNL     1      14.996   0.675  19.676  0.00  0.00    -0.237 NA
ATOM     15  C8  UNL     1      16.289   0.340  19.923  0.00  0.00    +0.114 A 
ATOM     16  C9  UNL     1      16.525   0.052  21.269  0.00  0.00    +0.033 A 
ATOM     17  C10 UNL     1      15.315   0.223  21.901  0.00  0.00    +0.049 A 
ATOM     18  H8  UNL     1      12.433   1.104  20.384  0.00  0.00    +0.168 HD
ENDBRANCH   5   9
BRANCH   8  19
ATOM     19  N5  UNL     1      19.406   1.464  27.116  0.00  0.00    -0.307 N 
ATOM     20  C13 UNL     1      19.710   1.324  28.514  0.00  0.00    +0.247 C 
ATOM     21  O2  UNL     1      18.776   1.275  29.360  0.00  0.00    -0.270 OA
ATOM     22  H14 UNL     1      20.188   1.621  26.441  0.00  0.00    +0.149 HD
BRANCH  20  23
ATOM     23  C14 UNL     1      21.106   1.238  28.983  0.00  0.00    +0.074 A 
ATOM     24  C15 UNL     1      22.121   0.447  28.480  0.00  0.00    +0.054 A 
ATOM     25  C16 UNL     1      23.226   0.721  29.259  0.00  0.00    +0.195 A 
ATOM     26  O3  UNL     1      22.918   1.613  30.173  0.00  0.00    -0.470 OA
ATOM     27  C17 UNL     1      21.655   1.944  30.036  0.00  0.00    +0.207 A 
ENDBRANCH  20  23
ENDBRANCH   8  19
TORSDOF 3
ENDMDL
MODEL 9
REMARK VINA RESULT:    -5.573      3.365      8.970
REMARK INTER + INTRA:          -7.201
REMARK INTER:                  -6.617
REMARK INTRA:                  -0.584
REMARK UNBOUND:                -0.651
REMARK  Name = /home/qwerty/github/datacon2025hack/step_04_hit_selection/docking/ligands/lig_576.pdb
REMARK  4 active torsions:
REMARK  status: ('A' for Active; 'I' for Inactive)
REMARK    1  A    between atoms: C1_1  and  C2_2
REMARK    2  A    between atoms: C4_5  and  C5_7
REMARK    3  A    between atoms: C12_17  and  N5_18
REMARK    4  A    between atoms: C13_19  and  C14_21
REMARK                            x       y       z     vdW  Elec       q    Type
REMARK                         _______ _______ _______ _____ _____    ______ ____
ROOT
ATOM      1  C1  UNL     1      19.087   5.091  31.175  0.00  0.00    +0.011 C 
ATOM      2  C2  UNL     1      20.530   4.699  30.846  0.00  0.00    +0.025 C 
ATOM      3  C3  UNL     1      20.635   3.870  29.565  0.00  0.00    +0.113 C 
ATOM      4  N1  UNL     1      21.672   2.880  29.820  0.00  0.00    -0.294 N 
ATOM      5  C4  UNL     1      22.114   1.870  28.888  0.00  0.00    +0.266 C 
ATOM      6  O1  UNL     1      23.004   1.055  29.255  0.00  0.00    -0.268 OA
ATOM      7  C11 UNL     1      22.137   2.910  31.198  0.00  0.00    +0.130 C 
ATOM      8  C12 UNL     1      21.172   3.835  31.939  0.00  0.00    +0.095 C 
ENDROOT
BRANCH   5   9
ATOM      9  C5  UNL     1      21.557   1.747  27.516  0.00  0.00    +0.138 A 
ATOM     10  N2  UNL     1      20.728   0.712  27.182  0.00  0.00    -0.232 NA
ATOM     11  C6  UNL     1      20.175   0.569  25.934  0.00  0.00    +0.198 A 
ATOM     12  N3  UNL     1      20.429   1.477  24.945  0.00  0.00    -0.330 N 
ATOM     13  C7  UNL     1      21.239   2.521  25.229  0.00  0.00    +0.141 A 
ATOM     14  N4  UNL     1      21.616   3.493  24.382  0.00  0.00    -0.237 NA
ATOM     15  C8  UNL     1      22.438   4.280  25.121  0.00  0.00    +0.114 A 
ATOM     16  C9  UNL     1      22.594   3.820  26.430  0.00  0.00    +0.033 A 
ATOM     17  C10 UNL     1      21.821   2.686  26.518  0.00  0.00    +0.049 A 
ATOM     18  H8  UNL     1      20.011   1.363  23.995  0.00  0.00    +0.168 HD
ENDBRANCH   5   9
BRANCH   8  19
ATOM     19  N5  UNL     1      21.872   4.660  32.928  0.00  0.00    -0.307 N 
ATOM     20  C13 UNL     1      21.263   5.062  34.166  0.00  0.00    +0.247 C 
ATOM     21  O2  UNL     1      20.102   4.664  34.456  0.00  0.00    -0.270 OA
ATOM     22  H14 UNL     1      22.782   5.090  32.649  0.00  0.00    +0.149 HD
BRANCH  20  23
ATOM     23  C14 UNL     1      21.975   5.940  35.114  0.00  0.00    +0.074 A 
ATOM     24  C15 UNL     1      21.428   6.770  36.073  0.00  0.00    +0.054 A 
ATOM     25  C16 UNL     1      22.499   7.380  36.693  0.00  0.00    +0.195 A 
ATOM     26  O3  UNL     1      23.622   6.959  36.157  0.00  0.00    -0.470 OA
ATOM     27  C17 UNL     1      23.345   6.096  35.208  0.00  0.00    +0.207 A 
ENDBRANCH  20  23
ENDBRANCH   8  19
TORSDOF 3
ENDMDL
