MODEL 1
REMARK VINA RESULT:    -5.837      0.000      0.000
REMARK INTER + INTRA:          -7.925
REMARK INTER:                  -7.202
REMARK INTRA:                  -0.723
REMARK UNBOUND:                -0.723
REMARK  Name = /home/qwerty/github/datacon2025hack/step_04_hit_selection/docking/ligands/lig_61.pdb
REMARK  6 active torsions:
REMARK  status: ('A' for Active; 'I' for Inactive)
REMARK    1  A    between atoms: C1_1  and  C2_2
REMARK    2  A    between atoms: C2_2  and  C3_3
REMARK    3  A    between atoms: C2_2  and  C4_4
REMARK    4  A    between atoms: C6_8  and  C7_9
REMARK    5  A    between atoms: C10_14  and  N4_15
REMARK    6  A    between atoms: C11_16  and  C12_18
REMARK                            x       y       z     vdW  Elec       q    Type
REMARK                         _______ _______ _______ _____ _____    ______ ____
ROOT
ATOM      1  C7  UNL     1      10.904  12.420  31.162  0.00  0.00    +0.250 C 
ATOM      2  O1  UNL     1      11.237  11.410  31.839  0.00  0.00    -0.270 OA
ATOM      3  N3  UNL     1       9.853  12.301  30.187  0.00  0.00    -0.296 N 
ATOM      4  C8  UNL     1       9.082  13.424  29.675  0.00  0.00    +0.110 C 
ATOM      5  C9  UNL     1       7.824  12.812  29.073  0.00  0.00    +0.043 C 
ATOM      6  C10 UNL     1       8.176  11.347  28.800  0.00  0.00    +0.092 C 
ATOM      7  C17 UNL     1       9.274  11.020  29.815  0.00  0.00    +0.130 C 
ENDROOT
BRANCH   1  12
ATOM      8  C4  UNL     1      12.417  14.404  30.510  0.00  0.00    +0.077 A 
ATOM      9  N1  UNL     1      12.779  15.572  31.080  0.00  0.00    -0.178 NA
ATOM     10  N2  UNL     1      12.238  15.619  32.286  0.00  0.00    -0.284 N 
ATOM     11  C5  UNL     1      11.517  14.505  32.507  0.00  0.00    +0.118 A 
ATOM     12  C6  UNL     1      11.607  13.698  31.391  0.00  0.00    +0.077 A 
ATOM     13  H8  UNL     1      12.344  16.420  32.946  0.00  0.00    +0.188 HD
BRANCH   8  15
ATOM     14  C1  UNL     1      12.092  14.888  28.088  0.00  0.00    +0.014 C 
ATOM     15  C2  UNL     1      12.807  13.999  29.110  0.00  0.00    +0.034 C 
ATOM     16  C3  UNL     1      14.327  14.070  28.924  0.00  0.00    +0.014 C 
ENDBRANCH   8  15
ENDBRANCH   1  12
BRANCH   6  17
ATOM     17  N4  UNL     1       8.661  11.194  27.421  0.00  0.00    -0.307 N 
ATOM     18  C11 UNL     1       8.257  10.088  26.597  0.00  0.00    +0.240 C 
ATOM     19  O2  UNL     1       7.668   9.104  27.122  0.00  0.00    -0.271 OA
ATOM     20  H15 UNL     1       9.355  11.879  27.044  0.00  0.00    +0.149 HD
BRANCH  18  21
ATOM     21  C12 UNL     1       8.539  10.065  25.140  0.00  0.00    +0.015 C 
ATOM     22  C13 UNL     1       7.545  10.098  24.236  0.00  0.00    +0.009 C 
ATOM     23  C14 UNL     1       7.835  10.028  22.760  0.00  0.00    +0.187 C 
ATOM     24  O3  UNL     1       9.138  10.485  22.449  0.00  0.00    -0.375 OA
ATOM     25  C15 UNL     1      10.087   9.733  23.180  0.00  0.00    +0.165 C 
ATOM     26  C16 UNL     1       9.978  10.053  24.675  0.00  0.00    +0.068 C 
ENDBRANCH  18  21
ENDBRANCH   6  17
TORSDOF 4
ENDMDL
MODEL 2
REMARK VINA RESULT:    -5.716      3.877      6.424
REMARK INTER + INTRA:          -7.776
REMARK INTER:                  -6.971
REMARK INTRA:                  -0.805
REMARK UNBOUND:                -0.723
REMARK  Name = /home/qwerty/github/datacon2025hack/step_04_hit_selection/docking/ligands/lig_61.pdb
REMARK  6 active torsions:
REMARK  status: ('A' for Active; 'I' for Inactive)
REMARK    1  A    between atoms: C1_1  and  C2_2
REMARK    2  A    between atoms: C2_2  and  C3_3
REMARK    3  A    between atoms: C2_2  and  C4_4
REMARK    4  A    between atoms: C6_8  and  C7_9
REMARK    5  A    between atoms: C10_14  and  N4_15
REMARK    6  A    between atoms: C11_16  and  C12_18
REMARK                            x       y       z     vdW  Elec       q    Type
REMARK                         _______ _______ _______ _____ _____    ______ ____
ROOT
ATOM      1  C7  UNL     1      13.495  14.185  35.206  0.00  0.00    +0.250 C 
ATOM      2  O1  UNL     1      13.192  15.268  35.776  0.00  0.00    -0.270 OA
ATOM      3  N3  UNL     1      13.334  14.068  33.781  0.00  0.00    -0.296 N 
ATOM      4  C8  UNL     1      14.032  13.091  32.958  0.00  0.00    +0.110 C 
ATOM      5  C9  UNL     1      13.941  13.623  31.534  0.00  0.00    +0.043 C 
ATOM      6  C10 UNL     1      12.757  14.594  31.537  0.00  0.00    +0.092 C 
ATOM      7  C17 UNL     1      12.667  15.085  32.984  0.00  0.00    +0.130 C 
ENDROOT
BRANCH   1  12
ATOM      8  C4  UNL     1      13.305  11.971  36.513  0.00  0.00    +0.077 A 
ATOM      9  N1  UNL     1      14.166  11.131  37.125  0.00  0.00    -0.178 NA
ATOM     10  N2  UNL     1      15.375  11.664  37.046  0.00  0.00    -0.284 N 
ATOM     11  C5  UNL     1      15.317  12.832  36.382  0.00  0.00    +0.118 A 
ATOM     12  C6  UNL     1      14.004  13.066  36.023  0.00  0.00    +0.077 A 
ATOM     13  H8  UNL     1      16.238  11.219  37.427  0.00  0.00    +0.188 HD
BRANCH   8  15
ATOM     14  C1  UNL     1      11.557  11.037  35.002  0.00  0.00    +0.014 C 
ATOM     15  C2  UNL     1      11.830  11.691  36.361  0.00  0.00    +0.034 C 
ATOM     16  C3  UNL     1      11.321  10.805  37.503  0.00  0.00    +0.014 C 
ENDBRANCH   8  15
ENDBRANCH   1  12
BRANCH   6  17
ATOM     17  N4  UNL     1      11.530  13.892  31.134  0.00  0.00    -0.307 N 
ATOM     18  C11 UNL     1      11.103  13.846  29.762  0.00  0.00    +0.240 C 
ATOM     19  O2  UNL     1      11.647  14.607  28.916  0.00  0.00    -0.271 OA
ATOM     20  H15 UNL     1      10.925  13.457  31.867  0.00  0.00    +0.149 HD
BRANCH  18  21
ATOM     21  C12 UNL     1      10.016  12.936  29.320  0.00  0.00    +0.015 C 
ATOM     22  C13 UNL     1       9.762  11.787  29.967  0.00  0.00    +0.009 C 
ATOM     23  C14 UNL     1       8.689  10.846  29.487  0.00  0.00    +0.187 C 
ATOM     24  O3  UNL     1       7.692  11.513  28.734  0.00  0.00    -0.375 OA
ATOM     25  C15 UNL     1       8.294  12.182  27.644  0.00  0.00    +0.165 C 
ATOM     26  C16 UNL     1       9.155  13.346  28.147  0.00  0.00    +0.068 C 
ENDBRANCH  18  21
ENDBRANCH   6  17
TORSDOF 4
ENDMDL
MODEL 3
REMARK VINA RESULT:    -5.654      3.630      5.878
REMARK INTER + INTRA:          -7.699
REMARK INTER:                  -6.993
REMARK INTRA:                  -0.706
REMARK UNBOUND:                -0.723
REMARK  Name = /home/qwerty/github/datacon2025hack/step_04_hit_selection/docking/ligands/lig_61.pdb
REMARK  6 active torsions:
REMARK  status: ('A' for Active; 'I' for Inactive)
REMARK    1  A    between atoms: C1_1  and  C2_2
REMARK    2  A    between atoms: C2_2  and  C3_3
REMARK    3  A    between atoms: C2_2  and  C4_4
REMARK    4  A    between atoms: C6_8  and  C7_9
REMARK    5  A    between atoms: C10_14  and  N4_15
REMARK    6  A    between atoms: C11_16  and  C12_18
REMARK                            x       y       z     vdW  Elec       q    Type
REMARK                         _______ _______ _______ _____ _____    ______ ____
ROOT
ATOM      1  C7  UNL     1      11.860  13.784  35.170  0.00  0.00    +0.250 C 
ATOM      2  O1  UNL     1      10.982  14.546  35.658  0.00  0.00    -0.270 OA
ATOM      3  N3  UNL     1      11.945  13.629  33.742  0.00  0.00    -0.296 N 
ATOM      4  C8  UNL     1      13.133  13.167  33.040  0.00  0.00    +0.110 C 
ATOM      5  C9  UNL     1      12.945  13.603  31.593  0.00  0.00    +0.043 C 
ATOM      6  C10 UNL     1      11.439  13.826  31.429  0.00  0.00    +0.092 C 
ATOM      7  C17 UNL     1      10.946  14.173  32.836  0.00  0.00    +0.130 C 
ENDROOT
BRANCH   1  12
ATOM      8  C4  UNL     1      12.762  11.729  36.438  0.00  0.00    +0.077 A 
ATOM      9  N1  UNL     1      13.832  11.464  37.216  0.00  0.00    -0.178 NA
ATOM     10  N2  UNL     1      14.508  12.592  37.370  0.00  0.00    -0.284 N 
ATOM     11  C5  UNL     1      13.901  13.584  36.695  0.00  0.00    +0.118 A 
ATOM     12  C6  UNL     1      12.775  13.071  36.083  0.00  0.00    +0.077 A 
ATOM     13  H8  UNL     1      15.392  12.675  37.918  0.00  0.00    +0.188 HD
BRANCH   8  15
ATOM     14  C1  UNL     1      12.496   9.503  35.350  0.00  0.00    +0.014 C 
ATOM     15  C2  UNL     1      11.767  10.682  36.002  0.00  0.00    +0.034 C 
ATOM     16  C3  UNL     1      10.917  10.208  37.186  0.00  0.00    +0.014 C 
ENDBRANCH   8  15
ENDBRANCH   1  12
BRANCH   6  17
ATOM     17  N4  UNL     1      10.800  12.601  30.927  0.00  0.00    -0.307 N 
ATOM     18  C11 UNL     1       9.688  12.648  30.017  0.00  0.00    +0.240 C 
ATOM     19  O2  UNL     1       9.090  13.742  29.823  0.00  0.00    -0.271 OA
ATOM     20  H15 UNL     1      11.130  11.673  31.275  0.00  0.00    +0.149 HD
BRANCH  18  21
ATOM     21  C12 UNL     1       9.209  11.430  29.318  0.00  0.00    +0.015 C 
ATOM     22  C13 UNL     1       9.290  10.218  29.891  0.00  0.00    +0.009 C 
ATOM     23  C14 UNL     1       8.845   8.980  29.158  0.00  0.00    +0.187 C 
ATOM     24  O3  UNL     1       7.883   9.268  28.159  0.00  0.00    -0.375 OA
ATOM     25  C15 UNL     1       8.412  10.219  27.257  0.00  0.00    +0.165 C 
ATOM     26  C16 UNL     1       8.574  11.576  27.952  0.00  0.00    +0.068 C 
ENDBRANCH  18  21
ENDBRANCH   6  17
TORSDOF 4
ENDMDL
MODEL 4
REMARK VINA RESULT:    -5.649     13.830     14.895
REMARK INTER + INTRA:          -7.693
REMARK INTER:                  -6.972
REMARK INTRA:                  -0.720
REMARK UNBOUND:                -0.723
REMARK  Name = /home/qwerty/github/datacon2025hack/step_04_hit_selection/docking/ligands/lig_61.pdb
REMARK  6 active torsions:
REMARK  status: ('A' for Active; 'I' for Inactive)
REMARK    1  A    between atoms: C1_1  and  C2_2
REMARK    2  A    between atoms: C2_2  and  C3_3
REMARK    3  A    between atoms: C2_2  and  C4_4
REMARK    4  A    between atoms: C6_8  and  C7_9
REMARK    5  A    between atoms: C10_14  and  N4_15
REMARK    6  A    between atoms: C11_16  and  C12_18
REMARK                            x       y       z     vdW  Elec       q    Type
REMARK                         _______ _______ _______ _____ _____    ______ ____
ROOT
ATOM      1  C7  UNL     1      21.356   3.522  30.099  0.00  0.00    +0.250 C 
ATOM      2  O1  UNL     1      21.379   4.736  29.758  0.00  0.00    -0.270 OA
ATOM      3  N3  UNL     1      21.246   2.506  29.087  0.00  0.00    -0.296 N 
ATOM      4  C8  UNL     1      21.644   1.119  29.275  0.00  0.00    +0.110 C 
ATOM      5  C9  UNL     1      21.805   0.549  27.872  0.00  0.00    +0.043 C 
ATOM      6  C10 UNL     1      20.988   1.473  26.963  0.00  0.00    +0.092 C 
ATOM      7  C17 UNL     1      20.978   2.818  27.693  0.00  0.00    +0.130 C 
ENDROOT
BRANCH   1  12
ATOM      8  C4  UNL     1      20.496   2.538  32.322  0.00  0.00    +0.077 A 
ATOM      9  N1  UNL     1      21.011   2.331  33.552  0.00  0.00    -0.178 NA
ATOM     10  N2  UNL     1      22.236   2.832  33.567  0.00  0.00    -0.284 N 
ATOM     11  C5  UNL     1      22.533   3.350  32.362  0.00  0.00    +0.118 A 
ATOM     12  C6  UNL     1      21.441   3.182  31.534  0.00  0.00    +0.077 A 
ATOM     13  H8  UNL     1      22.873   2.799  34.393  0.00  0.00    +0.188 HD
BRANCH   8  15
ATOM     14  C1  UNL     1      19.066   0.540  31.911  0.00  0.00    +0.014 C 
ATOM     15  C2  UNL     1      19.125   2.071  31.900  0.00  0.00    +0.034 C 
ATOM     16  C3  UNL     1      18.042   2.664  32.808  0.00  0.00    +0.014 C 
ENDBRANCH   8  15
ENDBRANCH   1  12
BRANCH   6  17
ATOM     17  N4  UNL     1      19.627   0.943  26.800  0.00  0.00    -0.307 N 
ATOM     18  C11 UNL     1      19.175   0.393  25.551  0.00  0.00    +0.240 C 
ATOM     19  O2  UNL     1      19.862   0.573  24.509  0.00  0.00    -0.271 OA
ATOM     20  H15 UNL     1      18.953   1.011  27.596  0.00  0.00    +0.149 HD
BRANCH  18  21
ATOM     21  C12 UNL     1      17.903  -0.365  25.454  0.00  0.00    +0.015 C 
ATOM     22  C13 UNL     1      17.654  -1.179  24.416  0.00  0.00    +0.009 C 
ATOM     23  C14 UNL     1      16.342  -1.910  24.299  0.00  0.00    +0.187 C 
ATOM     24  O3  UNL     1      15.721  -2.097  25.558  0.00  0.00    -0.375 OA
ATOM     25  C15 UNL     1      15.540  -0.844  26.185  0.00  0.00    +0.165 C 
ATOM     26  C16 UNL     1      16.896  -0.246  26.577  0.00  0.00    +0.068 C 
ENDBRANCH  18  21
ENDBRANCH   6  17
TORSDOF 4
ENDMDL
MODEL 5
REMARK VINA RESULT:    -5.618      3.363      8.582
REMARK INTER + INTRA:          -7.655
REMARK INTER:                  -7.022
REMARK INTRA:                  -0.632
REMARK UNBOUND:                -0.723
REMARK  Name = /home/qwerty/github/datacon2025hack/step_04_hit_selection/docking/ligands/lig_61.pdb
REMARK  6 active torsions:
REMARK  status: ('A' for Active; 'I' for Inactive)
REMARK    1  A    between atoms: C1_1  and  C2_2
REMARK    2  A    between atoms: C2_2  and  C3_3
REMARK    3  A    between atoms: C2_2  and  C4_4
REMARK    4  A    between atoms: C6_8  and  C7_9
REMARK    5  A    between atoms: C10_14  and  N4_15
REMARK    6  A    between atoms: C11_16  and  C12_18
REMARK                            x       y       z     vdW  Elec       q    Type
REMARK                         _______ _______ _______ _____ _____    ______ ____
ROOT
ATOM      1  C7  UNL     1       8.562   8.676  22.148  0.00  0.00    +0.250 C 
ATOM      2  O1  UNL     1       7.639   9.080  21.390  0.00  0.00    -0.270 OA
ATOM      3  N3  UNL     1       8.441   8.862  23.569  0.00  0.00    -0.296 N 
ATOM      4  C8  UNL     1       9.171   8.084  24.559  0.00  0.00    +0.110 C 
ATOM      5  C9  UNL     1       8.408   8.271  25.864  0.00  0.00    +0.043 C 
ATOM      6  C10 UNL     1       7.592   9.554  25.678  0.00  0.00    +0.092 C 
ATOM      7  C17 UNL     1       7.380   9.657  24.165  0.00  0.00    +0.130 C 
ENDROOT
BRANCH   1  12
ATOM      8  C4  UNL     1      10.881   8.625  21.022  0.00  0.00    +0.077 A 
ATOM      9  N1  UNL     1      11.766   7.668  20.671  0.00  0.00    -0.178 NA
ATOM     10  N2  UNL     1      11.221   6.494  20.948  0.00  0.00    -0.284 N 
ATOM     11  C5  UNL     1      10.001   6.671  21.485  0.00  0.00    +0.118 A 
ATOM     12  C6  UNL     1       9.745   8.026  21.549  0.00  0.00    +0.077 A 
ATOM     13  H8  UNL     1      11.694   5.577  20.789  0.00  0.00    +0.188 HD
BRANCH   8  15
ATOM     14  C1  UNL     1      12.657  10.373  21.031  0.00  0.00    +0.014 C 
ATOM     15  C2  UNL     1      11.155  10.103  20.896  0.00  0.00    +0.034 C 
ATOM     16  C3  UNL     1      10.622  10.647  19.565  0.00  0.00    +0.014 C 
ENDBRANCH   8  15
ENDBRANCH   1  12
BRANCH   6  17
ATOM     17  N4  UNL     1       8.343  10.707  26.192  0.00  0.00    -0.307 N 
ATOM     18  C11 UNL     1       8.368  11.029  27.592  0.00  0.00    +0.240 C 
ATOM     19  O2  UNL     1       7.552  10.467  28.373  0.00  0.00    -0.271 OA
ATOM     20  H15 UNL     1       8.834  11.339  25.519  0.00  0.00    +0.149 HD
BRANCH  18  21
ATOM     21  C12 UNL     1       9.318  12.028  28.141  0.00  0.00    +0.015 C 
ATOM     22  C13 UNL     1      10.502  12.262  27.551  0.00  0.00    +0.009 C 
ATOM     23  C14 UNL     1      11.483  13.244  28.138  0.00  0.00    +0.187 C 
ATOM     24  O3  UNL     1      10.844  14.221  28.939  0.00  0.00    -0.375 OA
ATOM     25  C15 UNL     1      10.105  13.583  29.961  0.00  0.00    +0.165 C 
ATOM     26  C16 UNL     1       8.914  12.827  29.360  0.00  0.00    +0.068 C 
ENDBRANCH  18  21
ENDBRANCH   6  17
TORSDOF 4
ENDMDL
MODEL 6
REMARK VINA RESULT:    -5.610      7.681     11.087
REMARK INTER + INTRA:          -7.644
REMARK INTER:                  -6.973
REMARK INTRA:                  -0.671
REMARK UNBOUND:                -0.723
REMARK  Name = /home/qwerty/github/datacon2025hack/step_04_hit_selection/docking/ligands/lig_61.pdb
REMARK  6 active torsions:
REMARK  status: ('A' for Active; 'I' for Inactive)
REMARK    1  A    between atoms: C1_1  and  C2_2
REMARK    2  A    between atoms: C2_2  and  C3_3
REMARK    3  A    between atoms: C2_2  and  C4_4
REMARK    4  A    between atoms: C6_8  and  C7_9
REMARK    5  A    between atoms: C10_14  and  N4_15
REMARK    6  A    between atoms: C11_16  and  C12_18
REMARK                            x       y       z     vdW  Elec       q    Type
REMARK                         _______ _______ _______ _____ _____    ______ ____
ROOT
ATOM      1  C7  UNL     1      12.316  13.688  34.252  0.00  0.00    +0.250 C 
ATOM      2  O1  UNL     1      12.108  13.591  33.012  0.00  0.00    -0.270 OA
ATOM      3  N3  UNL     1      13.668  13.727  34.740  0.00  0.00    -0.296 N 
ATOM      4  C8  UNL     1      14.054  14.267  36.035  0.00  0.00    +0.110 C 
ATOM      5  C9  UNL     1      15.548  14.540  35.932  0.00  0.00    +0.043 C 
ATOM      6  C10 UNL     1      16.043  13.663  34.779  0.00  0.00    +0.092 C 
ATOM      7  C17 UNL     1      14.816  13.479  33.883  0.00  0.00    +0.130 C 
ENDROOT
BRANCH   1  12
ATOM      8  C4  UNL     1      10.800  12.862  36.167  0.00  0.00    +0.077 A 
ATOM      9  N1  UNL     1       9.734  13.349  36.837  0.00  0.00    -0.178 NA
ATOM     10  N2  UNL     1       9.406  14.506  36.286  0.00  0.00    -0.284 N 
ATOM     11  C5  UNL     1      10.248  14.788  35.276  0.00  0.00    +0.118 A 
ATOM     12  C6  UNL     1      11.159  13.756  35.167  0.00  0.00    +0.077 A 
ATOM     13  H8  UNL     1       8.621  15.110  36.615  0.00  0.00    +0.188 HD
BRANCH   8  15
ATOM     14  C1  UNL     1      11.039  11.097  37.909  0.00  0.00    +0.014 C 
ATOM     15  C2  UNL     1      11.495  11.572  36.526  0.00  0.00    +0.034 C 
ATOM     16  C3  UNL     1      11.231  10.496  35.467  0.00  0.00    +0.014 C 
ENDBRANCH   8  15
ENDBRANCH   1  12
BRANCH   6  17
ATOM     17  N4  UNL     1      16.524  12.375  35.297  0.00  0.00    -0.307 N 
ATOM     18  C11 UNL     1      17.906  12.162  35.627  0.00  0.00    +0.240 C 
ATOM     19  O2  UNL     1      18.771  13.002  35.253  0.00  0.00    -0.271 OA
ATOM     20  H15 UNL     1      15.855  11.576  35.383  0.00  0.00    +0.149 HD
BRANCH  18  21
ATOM     21  C12 UNL     1      18.347  10.961  36.380  0.00  0.00    +0.015 C 
ATOM     22  C13 UNL     1      17.632  10.485  37.413  0.00  0.00    +0.009 C 
ATOM     23  C14 UNL     1      18.108   9.293  38.203  0.00  0.00    +0.187 C 
ATOM     24  O3  UNL     1      18.971   8.463  37.448  0.00  0.00    -0.375 OA
ATOM     25  C15 UNL     1      20.068   9.222  36.982  0.00  0.00    +0.165 C 
ATOM     26  C16 UNL     1      19.600  10.241  35.936  0.00  0.00    +0.068 C 
ENDBRANCH  18  21
ENDBRANCH   6  17
TORSDOF 4
ENDMDL
MODEL 7
REMARK VINA RESULT:    -5.523      3.825      8.882
REMARK INTER + INTRA:          -7.537
REMARK INTER:                  -6.877
REMARK INTRA:                  -0.660
REMARK UNBOUND:                -0.723
REMARK  Name = /home/qwerty/github/datacon2025hack/step_04_hit_selection/docking/ligands/lig_61.pdb
REMARK  6 active torsions:
REMARK  status: ('A' for Active; 'I' for Inactive)
REMARK    1  A    between atoms: C1_1  and  C2_2
REMARK    2  A    between atoms: C2_2  and  C3_3
REMARK    3  A    between atoms: C2_2  and  C4_4
REMARK    4  A    between atoms: C6_8  and  C7_9
REMARK    5  A    between atoms: C10_14  and  N4_15
REMARK    6  A    between atoms: C11_16  and  C12_18
REMARK                            x       y       z     vdW  Elec       q    Type
REMARK                         _______ _______ _______ _____ _____    ______ ____
ROOT
ATOM      1  C7  UNL     1      11.785  14.180  29.078  0.00  0.00    +0.250 C 
ATOM      2  O1  UNL     1      12.069  15.283  28.536  0.00  0.00    -0.270 OA
ATOM      3  N3  UNL     1      11.956  14.026  30.498  0.00  0.00    -0.296 N 
ATOM      4  C8  UNL     1      11.277  13.018  31.298  0.00  0.00    +0.110 C 
ATOM      5  C9  UNL     1      11.369  13.511  32.735  0.00  0.00    +0.043 C 
ATOM      6  C10 UNL     1      12.539  14.499  32.752  0.00  0.00    +0.092 C 
ATOM      7  C17 UNL     1      12.613  15.030  31.318  0.00  0.00    +0.130 C 
ENDROOT
BRANCH   1  12
ATOM      8  C4  UNL     1       9.971  12.695  28.005  0.00  0.00    +0.077 A 
ATOM      9  N1  UNL     1       9.948  11.703  27.090  0.00  0.00    -0.178 NA
ATOM     10  N2  UNL     1      11.199  11.442  26.746  0.00  0.00    -0.284 N 
ATOM     11  C5  UNL     1      12.036  12.256  27.413  0.00  0.00    +0.118 A 
ATOM     12  C6  UNL     1      11.287  13.076  28.233  0.00  0.00    +0.077 A 
ATOM     13  H8  UNL     1      11.475  10.724  26.042  0.00  0.00    +0.188 HD
BRANCH   8  15
ATOM     14  C1  UNL     1       7.873  13.949  27.520  0.00  0.00    +0.014 C 
ATOM     15  C2  UNL     1       8.730  13.301  28.612  0.00  0.00    +0.034 C 
ATOM     16  C3  UNL     1       7.925  12.246  29.380  0.00  0.00    +0.014 C 
ENDBRANCH   8  15
ENDBRANCH   1  12
BRANCH   6  17
ATOM     17  N4  UNL     1      13.778  13.805  33.129  0.00  0.00    -0.307 N 
ATOM     18  C11 UNL     1      14.334  13.914  34.450  0.00  0.00    +0.240 C 
ATOM     19  O2  UNL     1      13.896  14.798  35.236  0.00  0.00    -0.271 OA
ATOM     20  H15 UNL     1      14.297  13.256  32.407  0.00  0.00    +0.149 HD
BRANCH  18  21
ATOM     21  C12 UNL     1      15.431  13.024  34.905  0.00  0.00    +0.015 C 
ATOM     22  C13 UNL     1      15.188  11.766  35.305  0.00  0.00    +0.009 C 
ATOM     23  C14 UNL     1      16.299  10.882  35.810  0.00  0.00    +0.187 C 
ATOM     24  O3  UNL     1      17.562  11.271  35.302  0.00  0.00    -0.375 OA
ATOM     25  C15 UNL     1      17.808  12.622  35.636  0.00  0.00    +0.165 C 
ATOM     26  C16 UNL     1      16.852  13.541  34.867  0.00  0.00    +0.068 C 
ENDBRANCH  18  21
ENDBRANCH   6  17
TORSDOF 4
ENDMDL
MODEL 8
REMARK VINA RESULT:    -5.494      7.454     11.631
REMARK INTER + INTRA:          -7.501
REMARK INTER:                  -6.841
REMARK INTRA:                  -0.660
REMARK UNBOUND:                -0.723
REMARK  Name = /home/qwerty/github/datacon2025hack/step_04_hit_selection/docking/ligands/lig_61.pdb
REMARK  6 active torsions:
REMARK  status: ('A' for Active; 'I' for Inactive)
REMARK    1  A    between atoms: C1_1  and  C2_2
REMARK    2  A    between atoms: C2_2  and  C3_3
REMARK    3  A    between atoms: C2_2  and  C4_4
REMARK    4  A    between atoms: C6_8  and  C7_9
REMARK    5  A    between atoms: C10_14  and  N4_15
REMARK    6  A    between atoms: C11_16  and  C12_18
REMARK                            x       y       z     vdW  Elec       q    Type
REMARK                         _______ _______ _______ _____ _____    ______ ____
ROOT
ATOM      1  C7  UNL     1      14.150  12.647  34.607  0.00  0.00    +0.250 C 
ATOM      2  O1  UNL     1      14.179  13.788  34.071  0.00  0.00    -0.270 OA
ATOM      3  N3  UNL     1      15.269  12.207  35.396  0.00  0.00    -0.296 N 
ATOM      4  C8  UNL     1      15.198  11.158  36.401  0.00  0.00    +0.110 C 
ATOM      5  C9  UNL     1      16.426  11.355  37.281  0.00  0.00    +0.043 C 
ATOM      6  C10 UNL     1      17.407  12.169  36.433  0.00  0.00    +0.092 C 
ATOM      7  C17 UNL     1      16.518  12.949  35.460  0.00  0.00    +0.130 C 
ENDROOT
BRANCH   1  12
ATOM      8  C4  UNL     1      11.786  11.766  35.141  0.00  0.00    +0.077 A 
ATOM      9  N1  UNL     1      10.916  10.914  34.560  0.00  0.00    -0.178 NA
ATOM     10  N2  UNL     1      11.508  10.398  33.494  0.00  0.00    -0.284 N 
ATOM     11  C5  UNL     1      12.744  10.910  33.365  0.00  0.00    +0.118 A 
ATOM     12  C6  UNL     1      12.962  11.793  34.404  0.00  0.00    +0.077 A 
ATOM     13  H8  UNL     1      11.057   9.714  32.847  0.00  0.00    +0.188 HD
BRANCH   8  15
ATOM     14  C1  UNL     1      10.472  13.696  36.011  0.00  0.00    +0.014 C 
ATOM     15  C2  UNL     1      11.462  12.584  36.367  0.00  0.00    +0.034 C 
ATOM     16  C3  UNL     1      10.903  11.696  37.485  0.00  0.00    +0.014 C 
ENDBRANCH   8  15
ENDBRANCH   1  12
BRANCH   6  17
ATOM     17  N4  UNL     1      18.320  11.268  35.716  0.00  0.00    -0.307 N 
ATOM     18  C11 UNL     1      19.746  11.443  35.764  0.00  0.00    +0.240 C 
ATOM     19  O2  UNL     1      20.225  12.514  36.228  0.00  0.00    -0.271 OA
ATOM     20  H15 UNL     1      17.924  10.509  35.116  0.00  0.00    +0.149 HD
BRANCH  18  21
ATOM     21  C12 UNL     1      20.672  10.400  35.257  0.00  0.00    +0.015 C 
ATOM     22  C13 UNL     1      21.202   9.479  36.079  0.00  0.00    +0.009 C 
ATOM     23  C14 UNL     1      22.177   8.451  35.568  0.00  0.00    +0.187 C 
ATOM     24  O3  UNL     1      22.021   8.210  34.181  0.00  0.00    -0.375 OA
ATOM     25  C15 UNL     1      22.160   9.425  33.473  0.00  0.00    +0.165 C 
ATOM     26  C16 UNL     1      20.979  10.354  33.777  0.00  0.00    +0.068 C 
ENDBRANCH  18  21
ENDBRANCH   6  17
TORSDOF 4
ENDMDL
MODEL 9
REMARK VINA RESULT:    -5.476     13.631     16.211
REMARK INTER + INTRA:          -7.480
REMARK INTER:                  -6.791
REMARK INTRA:                  -0.689
REMARK UNBOUND:                -0.723
REMARK  Name = /home/qwerty/github/datacon2025hack/step_04_hit_selection/docking/ligands/lig_61.pdb
REMARK  6 active torsions:
REMARK  status: ('A' for Active; 'I' for Inactive)
REMARK    1  A    between atoms: C1_1  and  C2_2
REMARK    2  A    between atoms: C2_2  and  C3_3
REMARK    3  A    between atoms: C2_2  and  C4_4
REMARK    4  A    between atoms: C6_8  and  C7_9
REMARK    5  A    between atoms: C10_14  and  N4_15
REMARK    6  A    between atoms: C11_16  and  C12_18
REMARK                            x       y       z     vdW  Elec       q    Type
REMARK                         _______ _______ _______ _____ _____    ______ ____
ROOT
ATOM      1  C7  UNL     1      16.518  -0.290  23.538  0.00  0.00    +0.250 C 
ATOM      2  O1  UNL     1      16.889  -1.231  22.785  0.00  0.00    -0.270 OA
ATOM      3  N3  UNL     1      17.506   0.568  24.135  0.00  0.00    -0.296 N 
ATOM      4  C8  UNL     1      17.229   1.906  24.636  0.00  0.00    +0.110 C 
ATOM      5  C9  UNL     1      18.584   2.596  24.721  0.00  0.00    +0.043 C 
ATOM      6  C10 UNL     1      19.614   1.463  24.768  0.00  0.00    +0.092 C 
ATOM      7  C17 UNL     1      18.931   0.294  24.054  0.00  0.00    +0.130 C 
ENDROOT
BRANCH   1  12
ATOM      8  C4  UNL     1      14.297  -0.654  24.797  0.00  0.00    +0.077 A 
ATOM      9  N1  UNL     1      13.049  -0.145  24.725  0.00  0.00    -0.178 NA
ATOM     10  N2  UNL     1      13.014   0.696  23.703  0.00  0.00    -0.284 N 
ATOM     11  C5  UNL     1      14.222   0.751  23.116  0.00  0.00    +0.118 A 
ATOM     12  C6  UNL     1      15.075  -0.102  23.787  0.00  0.00    +0.077 A 
ATOM     13  H8  UNL     1      12.172   1.244  23.424  0.00  0.00    +0.188 HD
BRANCH   8  15
ATOM     14  C1  UNL     1      13.851  -1.495  27.099  0.00  0.00    +0.014 C 
ATOM     15  C2  UNL     1      14.744  -1.625  25.861  0.00  0.00    +0.034 C 
ATOM     16  C3  UNL     1      14.732  -3.063  25.330  0.00  0.00    +0.014 C 
ENDBRANCH   8  15
ENDBRANCH   1  12
BRANCH   6  17
ATOM     17  N4  UNL     1      19.928   1.126  26.163  0.00  0.00    -0.307 N 
ATOM     18  C11 UNL     1      21.082   1.665  26.829  0.00  0.00    +0.240 C 
ATOM     19  O2  UNL     1      21.974   2.247  26.153  0.00  0.00    -0.271 OA
ATOM     20  H15 UNL     1      19.326   0.439  26.672  0.00  0.00    +0.149 HD
BRANCH  18  21
ATOM     21  C12 UNL     1      21.263   1.531  28.296  0.00  0.00    +0.015 C 
ATOM     22  C13 UNL     1      22.421   1.864  28.890  0.00  0.00    +0.009 C 
ATOM     23  C14 UNL     1      22.614   1.682  30.373  0.00  0.00    +0.187 C 
ATOM     24  O3  UNL     1      21.386   1.697  31.077  0.00  0.00    -0.375 OA
ATOM     25  C15 UNL     1      20.534   0.694  30.558  0.00  0.00    +0.165 C 
ATOM     26  C16 UNL     1      20.097   1.056  29.134  0.00  0.00    +0.068 C 
ENDBRANCH  18  21
ENDBRANCH   6  17
TORSDOF 4
ENDMDL
