MODEL 1
REMARK VINA RESULT:    -6.332      0.000      0.000
REMARK INTER + INTRA:          -8.990
REMARK INTER:                  -8.183
REMARK INTRA:                  -0.807
REMARK UNBOUND:                -0.807
REMARK  Name = /home/qwerty/github/datacon2025hack/step_04_hit_selection/docking/ligands/lig_24.pdb
REMARK  8 active torsions:
REMARK  status: ('A' for Active; 'I' for Inactive)
REMARK    1  A    between atoms: C1_1  and  C2_2
REMARK    2  A    between atoms: C2_2  and  C3_3
REMARK    3  A    between atoms: C2_2  and  O1_4
REMARK    4  A    between atoms: O1_4  and  C4_5
REMARK    5  A    between atoms: C9_11  and  C10_12
REMARK    6  A    between atoms: C10_12  and  N1_13
REMARK    7  A    between atoms: N2_16  and  C12_17
REMARK    8  A    between atoms: C16_21  and  C17_22
REMARK                            x       y       z     vdW  Elec       q    Type
REMARK                         _______ _______ _______ _____ _____    ______ ____
ROOT
ATOM      1  N1  UNL     1       7.330  10.143  23.392  0.00  0.00    -0.295 N 
ATOM      2  C11 UNL     1       8.056  10.069  24.627  0.00  0.00    +0.300 C 
ATOM      3  O2  UNL     1       9.317  10.090  24.624  0.00  0.00    -0.253 OA
ATOM      4  N2  UNL     1       7.342   9.971  25.867  0.00  0.00    -0.297 N 
ATOM      5  H13 UNL     1       6.286  10.148  23.422  0.00  0.00    +0.151 HD
ATOM      6  H14 UNL     1       6.299   9.898  25.833  0.00  0.00    +0.151 HD
ENDROOT
BRANCH   4   7
ATOM      7  C12 UNL     1       8.028   9.932  27.161  0.00  0.00    +0.075 C 
ATOM      8  C13 UNL     1       8.188  11.364  27.727  0.00  0.00    +0.022 C 
ATOM      9  C14 UNL     1       8.245  11.415  29.267  0.00  0.00    +0.002 C 
ATOM     10  C15 UNL     1       8.862  10.141  29.854  0.00  0.00    +0.003 C 
ATOM     11  C16 UNL     1       8.048   8.873  29.480  0.00  0.00    -0.012 C 
ATOM     12  C17 UNL     1       7.096   8.469  30.613  0.00  0.00    +0.007 C 
ATOM     13  C18 UNL     1       7.266   9.033  28.150  0.00  0.00    +0.025 C 
ENDBRANCH   4   7
BRANCH   1  14
ATOM     14  C10 UNL     1       7.979  10.152  22.080  0.00  0.00    +0.144 C 
BRANCH  14  21
ATOM     15  C4  UNL     1       9.776   8.481  21.381  0.00  0.00    +0.127 A 
ATOM     16  C5  UNL     1      10.148   7.189  20.990  0.00  0.00    +0.066 A 
ATOM     17  C6  UNL     1       9.202   6.161  20.955  0.00  0.00    +0.044 A 
ATOM     18 CL1  UNL     1       9.681   4.541  20.475  0.00  0.00    -0.083 Cl
ATOM     19  C7  UNL     1       7.877   6.420  21.315  0.00  0.00    +0.020 A 
ATOM     20  C8  UNL     1       7.493   7.709  21.692  0.00  0.00    +0.010 A 
ATOM     21  C9  UNL     1       8.427   8.761  21.700  0.00  0.00    +0.011 A 
BRANCH  15  22
ATOM     22  O1  UNL     1      10.760   9.473  21.435  0.00  0.00    -0.489 OA
BRANCH  22  24
ATOM     23  C1  UNL     1      10.566  10.677  19.340  0.00  0.00    +0.051 C 
ATOM     24  C2  UNL     1      11.485   9.892  20.278  0.00  0.00    +0.167 C 
ATOM     25  C3  UNL     1      12.666  10.751  20.717  0.00  0.00    +0.051 C 
ENDBRANCH  22  24
ENDBRANCH  15  22
ENDBRANCH  14  21
ENDBRANCH   1  14
TORSDOF 5
ENDMDL
MODEL 2
REMARK VINA RESULT:    -6.156     13.665     15.537
REMARK INTER + INTRA:          -8.763
REMARK INTER:                  -7.960
REMARK INTRA:                  -0.803
REMARK UNBOUND:                -0.807
REMARK  Name = /home/qwerty/github/datacon2025hack/step_04_hit_selection/docking/ligands/lig_24.pdb
REMARK  8 active torsions:
REMARK  status: ('A' for Active; 'I' for Inactive)
REMARK    1  A    between atoms: C1_1  and  C2_2
REMARK    2  A    between atoms: C2_2  and  C3_3
REMARK    3  A    between atoms: C2_2  and  O1_4
REMARK    4  A    between atoms: O1_4  and  C4_5
REMARK    5  A    between atoms: C9_11  and  C10_12
REMARK    6  A    between atoms: C10_12  and  N1_13
REMARK    7  A    between atoms: N2_16  and  C12_17
REMARK    8  A    between atoms: C16_21  and  C17_22
REMARK                            x       y       z     vdW  Elec       q    Type
REMARK                         _______ _______ _______ _____ _____    ______ ____
ROOT
ATOM      1  N1  UNL     1      20.958   1.175  25.744  0.00  0.00    -0.295 N 
ATOM      2  C11 UNL     1      19.611   1.123  25.253  0.00  0.00    +0.300 C 
ATOM      3  O2  UNL     1      19.049   2.169  24.828  0.00  0.00    -0.253 OA
ATOM      4  N2  UNL     1      18.904  -0.125  25.247  0.00  0.00    -0.297 N 
ATOM      5  H13 UNL     1      21.410   0.291  26.068  0.00  0.00    +0.151 HD
ATOM      6  H14 UNL     1      19.376  -0.962  25.658  0.00  0.00    +0.151 HD
ENDROOT
BRANCH   4   7
ATOM      7  C12 UNL     1      17.542  -0.247  24.722  0.00  0.00    +0.075 C 
ATOM      8  C13 UNL     1      17.577  -0.590  23.212  0.00  0.00    +0.022 C 
ATOM      9  C14 UNL     1      16.344  -1.380  22.730  0.00  0.00    +0.002 C 
ATOM     10  C15 UNL     1      15.094  -1.031  23.545  0.00  0.00    +0.003 C 
ATOM     11  C16 UNL     1      15.271  -1.356  25.052  0.00  0.00    -0.012 C 
ATOM     12  C17 UNL     1      14.648  -2.714  25.405  0.00  0.00    +0.007 C 
ATOM     13  C18 UNL     1      16.753  -1.309  25.507  0.00  0.00    +0.025 C 
ENDBRANCH   4   7
BRANCH   1  14
ATOM     14  C10 UNL     1      21.716   2.421  25.871  0.00  0.00    +0.144 C 
BRANCH  14  21
ATOM     15  C4  UNL     1      21.703   2.150  28.409  0.00  0.00    +0.127 A 
ATOM     16  C5  UNL     1      21.537   2.694  29.688  0.00  0.00    +0.066 A 
ATOM     17  C6  UNL     1      21.305   4.063  29.849  0.00  0.00    +0.044 A 
ATOM     18 CL1  UNL     1      21.111   4.737  31.459  0.00  0.00    -0.083 Cl
ATOM     19  C7  UNL     1      21.240   4.896  28.730  0.00  0.00    +0.020 A 
ATOM     20  C8  UNL     1      21.389   4.360  27.448  0.00  0.00    +0.010 A 
ATOM     21  C9  UNL     1      21.590   2.979  27.269  0.00  0.00    +0.011 A 
BRANCH  15  22
ATOM     22  O1  UNL     1      21.968   0.781  28.292  0.00  0.00    -0.489 OA
BRANCH  22  24
ATOM     23  C1  UNL     1      22.950  -1.378  28.788  0.00  0.00    +0.051 C 
ATOM     24  C2  UNL     1      22.879   0.105  29.159  0.00  0.00    +0.167 C 
ATOM     25  C3  UNL     1      24.253   0.755  29.039  0.00  0.00    +0.051 C 
ENDBRANCH  22  24
ENDBRANCH  15  22
ENDBRANCH  14  21
ENDBRANCH   1  14
TORSDOF 5
ENDMDL
MODEL 3
REMARK VINA RESULT:    -6.150      8.406     13.083
REMARK INTER + INTRA:          -8.754
REMARK INTER:                  -7.992
REMARK INTRA:                  -0.762
REMARK UNBOUND:                -0.807
REMARK  Name = /home/qwerty/github/datacon2025hack/step_04_hit_selection/docking/ligands/lig_24.pdb
REMARK  8 active torsions:
REMARK  status: ('A' for Active; 'I' for Inactive)
REMARK    1  A    between atoms: C1_1  and  C2_2
REMARK    2  A    between atoms: C2_2  and  C3_3
REMARK    3  A    between atoms: C2_2  and  O1_4
REMARK    4  A    between atoms: O1_4  and  C4_5
REMARK    5  A    between atoms: C9_11  and  C10_12
REMARK    6  A    between atoms: C10_12  and  N1_13
REMARK    7  A    between atoms: N2_16  and  C12_17
REMARK    8  A    between atoms: C16_21  and  C17_22
REMARK                            x       y       z     vdW  Elec       q    Type
REMARK                         _______ _______ _______ _____ _____    ______ ____
ROOT
ATOM      1  N1  UNL     1      11.090  14.763  33.684  0.00  0.00    -0.295 N 
ATOM      2  C11 UNL     1      11.265  13.998  32.483  0.00  0.00    +0.300 C 
ATOM      3  O2  UNL     1      11.278  12.738  32.528  0.00  0.00    -0.253 OA
ATOM      4  N2  UNL     1      11.424  14.674  31.227  0.00  0.00    -0.297 N 
ATOM      5  H13 UNL     1      11.059  15.805  33.618  0.00  0.00    +0.151 HD
ATOM      6  H14 UNL     1      11.466  15.719  31.230  0.00  0.00    +0.151 HD
ENDROOT
BRANCH   4   7
ATOM      7  C12 UNL     1      11.566  13.947  29.963  0.00  0.00    +0.075 C 
ATOM      8  C13 UNL     1      10.174  13.652  29.354  0.00  0.00    +0.022 C 
ATOM      9  C14 UNL     1      10.185  13.536  27.816  0.00  0.00    +0.002 C 
ATOM     10  C15 UNL     1      11.525  13.002  27.299  0.00  0.00    +0.003 C 
ATOM     11  C16 UNL     1      12.710  13.928  27.686  0.00  0.00    -0.012 C 
ATOM     12  C17 UNL     1      13.081  14.868  26.530  0.00  0.00    +0.007 C 
ATOM     13  C18 UNL     1      12.439  14.742  28.978  0.00  0.00    +0.025 C 
ENDBRANCH   4   7
BRANCH   1  14
ATOM     14  C10 UNL     1      11.014  14.157  35.015  0.00  0.00    +0.144 C 
BRANCH  14  21
ATOM     15  C4  UNL     1      12.680  12.688  36.272  0.00  0.00    +0.127 A 
ATOM     16  C5  UNL     1      13.963  12.476  36.790  0.00  0.00    +0.066 A 
ATOM     17  C6  UNL     1      14.982  13.404  36.558  0.00  0.00    +0.044 A 
ATOM     18 CL1  UNL     1      16.591  13.122  37.201  0.00  0.00    -0.083 Cl
ATOM     19  C7  UNL     1      14.723  14.551  35.803  0.00  0.00    +0.020 A 
ATOM     20  C8  UNL     1      13.441  14.779  35.294  0.00  0.00    +0.010 A 
ATOM     21  C9  UNL     1      12.398  13.870  35.548  0.00  0.00    +0.011 A 
BRANCH  15  22
ATOM     22  O1  UNL     1      11.698  11.719  36.498  0.00  0.00    -0.489 OA
BRANCH  22  24
ATOM     23  C1  UNL     1      10.794   9.497  36.846  0.00  0.00    +0.051 C 
ATOM     24  C2  UNL     1      11.918  10.334  36.231  0.00  0.00    +0.167 C 
ATOM     25  C3  UNL     1      11.980  10.123  34.722  0.00  0.00    +0.051 C 
ENDBRANCH  22  24
ENDBRANCH  15  22
ENDBRANCH  14  21
ENDBRANCH   1  14
TORSDOF 5
ENDMDL
MODEL 4
REMARK VINA RESULT:    -6.027     15.712     17.791
REMARK INTER + INTRA:          -8.596
REMARK INTER:                  -7.872
REMARK INTRA:                  -0.724
REMARK UNBOUND:                -0.807
REMARK  Name = /home/qwerty/github/datacon2025hack/step_04_hit_selection/docking/ligands/lig_24.pdb
REMARK  8 active torsions:
REMARK  status: ('A' for Active; 'I' for Inactive)
REMARK    1  A    between atoms: C1_1  and  C2_2
REMARK    2  A    between atoms: C2_2  and  C3_3
REMARK    3  A    between atoms: C2_2  and  O1_4
REMARK    4  A    between atoms: O1_4  and  C4_5
REMARK    5  A    between atoms: C9_11  and  C10_12
REMARK    6  A    between atoms: C10_12  and  N1_13
REMARK    7  A    between atoms: N2_16  and  C12_17
REMARK    8  A    between atoms: C16_21  and  C17_22
REMARK                            x       y       z     vdW  Elec       q    Type
REMARK                         _______ _______ _______ _____ _____    ______ ____
ROOT
ATOM      1  N1  UNL     1      24.228   5.134  33.450  0.00  0.00    -0.295 N 
ATOM      2  C11 UNL     1      23.156   4.642  32.634  0.00  0.00    +0.300 C 
ATOM      3  O2  UNL     1      22.396   5.447  32.030  0.00  0.00    -0.253 OA
ATOM      4  N2  UNL     1      22.951   3.228  32.506  0.00  0.00    -0.297 N 
ATOM      5  H13 UNL     1      24.858   4.447  33.922  0.00  0.00    +0.151 HD
ATOM      6  H14 UNL     1      23.561   2.588  33.064  0.00  0.00    +0.151 HD
ENDROOT
BRANCH   4   7
ATOM      7  C12 UNL     1      21.898   2.667  31.656  0.00  0.00    +0.075 C 
ATOM      8  C13 UNL     1      22.522   1.874  30.482  0.00  0.00    +0.022 C 
ATOM      9  C14 UNL     1      21.624   0.735  29.959  0.00  0.00    +0.002 C 
ATOM     10  C15 UNL     1      20.137   1.061  30.136  0.00  0.00    +0.003 C 
ATOM     11  C16 UNL     1      19.760   1.279  31.626  0.00  0.00    -0.012 C 
ATOM     12  C17 UNL     1      19.156   0.008  32.238  0.00  0.00    +0.007 C 
ATOM     13  C18 UNL     1      20.956   1.773  32.481  0.00  0.00    +0.025 C 
ENDBRANCH   4   7
BRANCH   1  14
ATOM     14  C10 UNL     1      24.449   6.558  33.708  0.00  0.00    +0.144 C 
BRANCH  14  21
ATOM     15  C4  UNL     1      22.739   8.335  34.366  0.00  0.00    +0.127 A 
ATOM     16  C5  UNL     1      21.788   8.831  35.264  0.00  0.00    +0.066 A 
ATOM     17  C6  UNL     1      21.436   8.096  36.400  0.00  0.00    +0.044 A 
ATOM     18 CL1  UNL     1      20.232   8.722  37.514  0.00  0.00    -0.083 Cl
ATOM     19  C7  UNL     1      22.034   6.857  36.642  0.00  0.00    +0.020 A 
ATOM     20  C8  UNL     1      22.996   6.360  35.758  0.00  0.00    +0.010 A 
ATOM     21  C9  UNL     1      23.384   7.104  34.629  0.00  0.00    +0.011 A 
BRANCH  15  22
ATOM     22  O1  UNL     1      23.038   9.085  33.224  0.00  0.00    -0.489 OA
BRANCH  22  24
ATOM     23  C1  UNL     1      21.411  10.137  31.768  0.00  0.00    +0.051 C 
ATOM     24  C2  UNL     1      22.321   8.929  32.000  0.00  0.00    +0.167 C 
ATOM     25  C3  UNL     1      23.318   8.781  30.855  0.00  0.00    +0.051 C 
ENDBRANCH  22  24
ENDBRANCH  15  22
ENDBRANCH  14  21
ENDBRANCH   1  14
TORSDOF 5
ENDMDL
MODEL 5
REMARK VINA RESULT:    -5.988      3.464      8.144
REMARK INTER + INTRA:          -8.545
REMARK INTER:                  -7.553
REMARK INTRA:                  -0.992
REMARK UNBOUND:                -0.807
REMARK  Name = /home/qwerty/github/datacon2025hack/step_04_hit_selection/docking/ligands/lig_24.pdb
REMARK  8 active torsions:
REMARK  status: ('A' for Active; 'I' for Inactive)
REMARK    1  A    between atoms: C1_1  and  C2_2
REMARK    2  A    between atoms: C2_2  and  C3_3
REMARK    3  A    between atoms: C2_2  and  O1_4
REMARK    4  A    between atoms: O1_4  and  C4_5
REMARK    5  A    between atoms: C9_11  and  C10_12
REMARK    6  A    between atoms: C10_12  and  N1_13
REMARK    7  A    between atoms: N2_16  and  C12_17
REMARK    8  A    between atoms: C16_21  and  C17_22
REMARK                            x       y       z     vdW  Elec       q    Type
REMARK                         _______ _______ _______ _____ _____    ______ ____
ROOT
ATOM      1  N1  UNL     1       7.169   9.930  27.230  0.00  0.00    -0.295 N 
ATOM      2  C11 UNL     1       7.762   9.487  26.001  0.00  0.00    +0.300 C 
ATOM      3  O2  UNL     1       8.337   8.366  25.941  0.00  0.00    -0.253 OA
ATOM      4  N2  UNL     1       7.699  10.325  24.839  0.00  0.00    -0.297 N 
ATOM      5  H13 UNL     1       6.679  10.852  27.248  0.00  0.00    +0.151 HD
ATOM      6  H14 UNL     1       7.267  11.272  24.934  0.00  0.00    +0.151 HD
ENDROOT
BRANCH   4   7
ATOM      7  C12 UNL     1       8.252   9.909  23.547  0.00  0.00    +0.075 C 
ATOM      8  C13 UNL     1       7.557  10.674  22.394  0.00  0.00    +0.022 C 
ATOM      9  C14 UNL     1       8.447  10.849  21.146  0.00  0.00    +0.002 C 
ATOM     10  C15 UNL     1       9.437   9.691  20.990  0.00  0.00    +0.003 C 
ATOM     11  C16 UNL     1      10.394   9.573  22.206  0.00  0.00    -0.012 C 
ATOM     12  C17 UNL     1      11.741  10.251  21.922  0.00  0.00    +0.007 C 
ATOM     13  C18 UNL     1       9.774  10.131  23.514  0.00  0.00    +0.025 C 
ENDBRANCH   4   7
BRANCH   1  14
ATOM     14  C10 UNL     1       7.269   9.180  28.483  0.00  0.00    +0.144 C 
BRANCH  14  21
ATOM     15  C4  UNL     1       8.675  10.963  29.648  0.00  0.00    +0.127 A 
ATOM     16  C5  UNL     1       9.835  11.337  30.336  0.00  0.00    +0.066 A 
ATOM     17  C6  UNL     1      10.789  10.378  30.689  0.00  0.00    +0.044 A 
ATOM     18 CL1  UNL     1      12.235  10.856  31.563  0.00  0.00    -0.083 Cl
ATOM     19  C7  UNL     1      10.584   9.036  30.358  0.00  0.00    +0.020 A 
ATOM     20  C8  UNL     1       9.436   8.655  29.658  0.00  0.00    +0.010 A 
ATOM     21  C9  UNL     1       8.485   9.614  29.267  0.00  0.00    +0.011 A 
BRANCH  15  22
ATOM     22  O1  UNL     1       7.730  11.948  29.343  0.00  0.00    -0.489 OA
BRANCH  22  24
ATOM     23  C1  UNL     1       8.118  13.729  27.746  0.00  0.00    +0.051 C 
ATOM     24  C2  UNL     1       8.079  13.327  29.222  0.00  0.00    +0.167 C 
ATOM     25  C3  UNL     1       7.055  14.166  29.980  0.00  0.00    +0.051 C 
ENDBRANCH  22  24
ENDBRANCH  15  22
ENDBRANCH  14  21
ENDBRANCH   1  14
TORSDOF 5
ENDMDL
MODEL 6
REMARK VINA RESULT:    -5.794     14.017     15.991
REMARK INTER + INTRA:          -8.294
REMARK INTER:                  -7.602
REMARK INTRA:                  -0.692
REMARK UNBOUND:                -0.807
REMARK  Name = /home/qwerty/github/datacon2025hack/step_04_hit_selection/docking/ligands/lig_24.pdb
REMARK  8 active torsions:
REMARK  status: ('A' for Active; 'I' for Inactive)
REMARK    1  A    between atoms: C1_1  and  C2_2
REMARK    2  A    between atoms: C2_2  and  C3_3
REMARK    3  A    between atoms: C2_2  and  O1_4
REMARK    4  A    between atoms: O1_4  and  C4_5
REMARK    5  A    between atoms: C9_11  and  C10_12
REMARK    6  A    between atoms: C10_12  and  N1_13
REMARK    7  A    between atoms: N2_16  and  C12_17
REMARK    8  A    between atoms: C16_21  and  C17_22
REMARK                            x       y       z     vdW  Elec       q    Type
REMARK                         _______ _______ _______ _____ _____    ______ ____
ROOT
ATOM      1  N1  UNL     1      19.856   2.528  27.184  0.00  0.00    -0.295 N 
ATOM      2  C11 UNL     1      19.552   1.290  26.526  0.00  0.00    +0.300 C 
ATOM      3  O2  UNL     1      20.473   0.475  26.249  0.00  0.00    -0.253 OA
ATOM      4  N2  UNL     1      18.193   0.982  26.184  0.00  0.00    -0.297 N 
ATOM      5  H13 UNL     1      19.073   3.176  27.425  0.00  0.00    +0.151 HD
ATOM      6  H14 UNL     1      17.460   1.702  26.375  0.00  0.00    +0.151 HD
ENDROOT
BRANCH   4   7
ATOM      7  C12 UNL     1      17.818  -0.283  25.547  0.00  0.00    +0.075 C 
ATOM      8  C13 UNL     1      16.556  -0.871  26.224  0.00  0.00    +0.022 C 
ATOM      9  C14 UNL     1      15.705  -1.751  25.286  0.00  0.00    +0.002 C 
ATOM     10  C15 UNL     1      16.567  -2.448  24.228  0.00  0.00    +0.003 C 
ATOM     11  C16 UNL     1      17.320  -1.433  23.327  0.00  0.00    -0.012 C 
ATOM     12  C17 UNL     1      16.573  -1.201  22.006  0.00  0.00    +0.007 C 
ATOM     13  C18 UNL     1      17.587  -0.081  24.040  0.00  0.00    +0.025 C 
ENDBRANCH   4   7
BRANCH   1  14
ATOM     14  C10 UNL     1      21.222   2.961  27.485  0.00  0.00    +0.144 C 
BRANCH  14  21
ATOM     15  C4  UNL     1      21.605   2.087  29.852  0.00  0.00    +0.127 A 
ATOM     16  C5  UNL     1      21.720   2.317  31.228  0.00  0.00    +0.066 A 
ATOM     17  C6  UNL     1      21.676   3.620  31.733  0.00  0.00    +0.044 A 
ATOM     18 CL1  UNL     1      21.834   3.898  33.460  0.00  0.00    -0.083 Cl
ATOM     19  C7  UNL     1      21.519   4.701  30.863  0.00  0.00    +0.020 A 
ATOM     20  C8  UNL     1      21.388   4.481  29.489  0.00  0.00    +0.010 A 
ATOM     21  C9  UNL     1      21.397   3.173  28.970  0.00  0.00    +0.011 A 
BRANCH  15  22
ATOM     22  O1  UNL     1      21.688   0.772  29.383  0.00  0.00    -0.489 OA
BRANCH  22  24
ATOM     23  C1  UNL     1      24.111   0.848  29.360  0.00  0.00    +0.051 C 
ATOM     24  C2  UNL     1      22.848   0.272  28.717  0.00  0.00    +0.167 C 
ATOM     25  C3  UNL     1      22.850  -1.251  28.799  0.00  0.00    +0.051 C 
ENDBRANCH  22  24
ENDBRANCH  15  22
ENDBRANCH  14  21
ENDBRANCH   1  14
TORSDOF 5
ENDMDL
MODEL 7
REMARK VINA RESULT:    -5.719      8.369     12.958
REMARK INTER + INTRA:          -8.197
REMARK INTER:                  -7.425
REMARK INTRA:                  -0.772
REMARK UNBOUND:                -0.807
REMARK  Name = /home/qwerty/github/datacon2025hack/step_04_hit_selection/docking/ligands/lig_24.pdb
REMARK  8 active torsions:
REMARK  status: ('A' for Active; 'I' for Inactive)
REMARK    1  A    between atoms: C1_1  and  C2_2
REMARK    2  A    between atoms: C2_2  and  C3_3
REMARK    3  A    between atoms: C2_2  and  O1_4
REMARK    4  A    between atoms: O1_4  and  C4_5
REMARK    5  A    between atoms: C9_11  and  C10_12
REMARK    6  A    between atoms: C10_12  and  N1_13
REMARK    7  A    between atoms: N2_16  and  C12_17
REMARK    8  A    between atoms: C16_21  and  C17_22
REMARK                            x       y       z     vdW  Elec       q    Type
REMARK                         _______ _______ _______ _____ _____    ______ ____
ROOT
ATOM      1  N1  UNL     1      13.107  13.724  33.120  0.00  0.00    -0.295 N 
ATOM      2  C11 UNL     1      11.883  13.888  32.388  0.00  0.00    +0.300 C 
ATOM      3  O2  UNL     1      10.921  14.525  32.895  0.00  0.00    -0.253 OA
ATOM      4  N2  UNL     1      11.759  13.322  31.076  0.00  0.00    -0.297 N 
ATOM      5  H13 UNL     1      13.898  13.212  32.669  0.00  0.00    +0.151 HD
ATOM      6  H14 UNL     1      12.553  12.751  30.706  0.00  0.00    +0.151 HD
ENDROOT
BRANCH   4   7
ATOM      7  C12 UNL     1      10.549  13.491  30.266  0.00  0.00    +0.075 C 
ATOM      8  C13 UNL     1      10.898  14.153  28.911  0.00  0.00    +0.022 C 
ATOM      9  C14 UNL     1       9.930  13.775  27.772  0.00  0.00    +0.002 C 
ATOM     10  C15 UNL     1       8.519  13.491  28.299  0.00  0.00    +0.003 C 
ATOM     11  C16 UNL     1       8.500  12.314  29.311  0.00  0.00    -0.012 C 
ATOM     12  C17 UNL     1       8.088  11.002  28.629  0.00  0.00    +0.007 C 
ATOM     13  C18 UNL     1       9.851  12.137  30.051  0.00  0.00    +0.025 C 
ENDBRANCH   4   7
BRANCH   1  14
ATOM     14  C10 UNL     1      13.284  14.188  34.497  0.00  0.00    +0.144 C 
BRANCH  14  21
ATOM     15  C4  UNL     1      14.002  12.545  36.313  0.00  0.00    +0.127 A 
ATOM     16  C5  UNL     1      15.005  11.826  36.974  0.00  0.00    +0.066 A 
ATOM     17  C6  UNL     1      16.326  11.873  36.517  0.00  0.00    +0.044 A 
ATOM     18 CL1  UNL     1      17.574  10.957  37.345  0.00  0.00    -0.083 Cl
ATOM     19  C7  UNL     1      16.649  12.638  35.394  0.00  0.00    +0.020 A 
ATOM     20  C8  UNL     1      15.657  13.372  34.738  0.00  0.00    +0.010 A 
ATOM     21  C9  UNL     1      14.331  13.361  35.206  0.00  0.00    +0.011 A 
BRANCH  15  22
ATOM     22  O1  UNL     1      12.688  12.445  36.782  0.00  0.00    -0.489 OA
BRANCH  22  24
ATOM     23  C1  UNL     1      10.899  11.191  37.832  0.00  0.00    +0.051 C 
ATOM     24  C2  UNL     1      11.946  11.227  36.717  0.00  0.00    +0.167 C 
ATOM     25  C3  UNL     1      11.279  11.124  35.349  0.00  0.00    +0.051 C 
ENDBRANCH  22  24
ENDBRANCH  15  22
ENDBRANCH  14  21
ENDBRANCH   1  14
TORSDOF 5
ENDMDL
MODEL 8
REMARK VINA RESULT:    -5.627      1.593      2.468
REMARK INTER + INTRA:          -8.079
REMARK INTER:                  -7.305
REMARK INTRA:                  -0.774
REMARK UNBOUND:                -0.807
REMARK  Name = /home/qwerty/github/datacon2025hack/step_04_hit_selection/docking/ligands/lig_24.pdb
REMARK  8 active torsions:
REMARK  status: ('A' for Active; 'I' for Inactive)
REMARK    1  A    between atoms: C1_1  and  C2_2
REMARK    2  A    between atoms: C2_2  and  C3_3
REMARK    3  A    between atoms: C2_2  and  O1_4
REMARK    4  A    between atoms: O1_4  and  C4_5
REMARK    5  A    between atoms: C9_11  and  C10_12
REMARK    6  A    between atoms: C10_12  and  N1_13
REMARK    7  A    between atoms: N2_16  and  C12_17
REMARK    8  A    between atoms: C16_21  and  C17_22
REMARK                            x       y       z     vdW  Elec       q    Type
REMARK                         _______ _______ _______ _____ _____    ______ ____
ROOT
ATOM      1  N1  UNL     1       9.127   8.490  24.064  0.00  0.00    -0.295 N 
ATOM      2  C11 UNL     1       8.582   9.542  24.873  0.00  0.00    +0.300 C 
ATOM      3  O2  UNL     1       7.493  10.092  24.552  0.00  0.00    -0.253 OA
ATOM      4  N2  UNL     1       9.282   9.967  26.051  0.00  0.00    -0.297 N 
ATOM      5  H13 UNL     1      10.018   8.034  24.363  0.00  0.00    +0.151 HD
ATOM      6  H14 UNL     1      10.209   9.533  26.259  0.00  0.00    +0.151 HD
ENDROOT
BRANCH   4   7
ATOM      7  C12 UNL     1       8.755  11.009  26.937  0.00  0.00    +0.075 C 
ATOM      8  C13 UNL     1       7.959  10.371  28.101  0.00  0.00    +0.022 C 
ATOM      9  C14 UNL     1       7.953  11.225  29.385  0.00  0.00    +0.002 C 
ATOM     10  C15 UNL     1       8.043  12.722  29.070  0.00  0.00    +0.003 C 
ATOM     11  C16 UNL     1       9.344  13.079  28.302  0.00  0.00    -0.012 C 
ATOM     12  C17 UNL     1      10.424  13.611  29.255  0.00  0.00    +0.007 C 
ATOM     13  C18 UNL     1       9.896  11.891  27.471  0.00  0.00    +0.025 C 
ENDBRANCH   4   7
BRANCH   1  14
ATOM     14  C10 UNL     1       8.526   8.060  22.800  0.00  0.00    +0.144 C 
BRANCH  14  21
ATOM     15  C4  UNL     1      10.552   7.788  21.271  0.00  0.00    +0.127 A 
ATOM     16  C5  UNL     1      11.405   6.972  20.519  0.00  0.00    +0.066 A 
ATOM     17  C6  UNL     1      11.248   5.583  20.530  0.00  0.00    +0.044 A 
ATOM     18 CL1  UNL     1      12.332   4.569  19.593  0.00  0.00    -0.083 Cl
ATOM     19  C7  UNL     1      10.237   5.002  21.299  0.00  0.00    +0.020 A 
ATOM     20  C8  UNL     1       9.371   5.809  22.042  0.00  0.00    +0.010 A 
ATOM     21  C9  UNL     1       9.496   7.209  22.013  0.00  0.00    +0.011 A 
BRANCH  15  22
ATOM     22  O1  UNL     1      10.764   9.170  21.259  0.00  0.00    -0.489 OA
BRANCH  22  24
ATOM     23  C1  UNL     1      10.544  10.715  19.404  0.00  0.00    +0.051 C 
ATOM     24  C2  UNL     1      11.486   9.822  20.214  0.00  0.00    +0.167 C 
ATOM     25  C3  UNL     1      12.613  10.646  20.828  0.00  0.00    +0.051 C 
ENDBRANCH  22  24
ENDBRANCH  15  22
ENDBRANCH  14  21
ENDBRANCH   1  14
TORSDOF 5
ENDMDL
MODEL 9
REMARK VINA RESULT:    -5.594     15.419     17.509
REMARK INTER + INTRA:          -8.036
REMARK INTER:                  -7.185
REMARK INTRA:                  -0.850
REMARK UNBOUND:                -0.807
REMARK  Name = /home/qwerty/github/datacon2025hack/step_04_hit_selection/docking/ligands/lig_24.pdb
REMARK  8 active torsions:
REMARK  status: ('A' for Active; 'I' for Inactive)
REMARK    1  A    between atoms: C1_1  and  C2_2
REMARK    2  A    between atoms: C2_2  and  C3_3
REMARK    3  A    between atoms: C2_2  and  O1_4
REMARK    4  A    between atoms: O1_4  and  C4_5
REMARK    5  A    between atoms: C9_11  and  C10_12
REMARK    6  A    between atoms: C10_12  and  N1_13
REMARK    7  A    between atoms: N2_16  and  C12_17
REMARK    8  A    between atoms: C16_21  and  C17_22
REMARK                            x       y       z     vdW  Elec       q    Type
REMARK                         _______ _______ _______ _____ _____    ______ ____
ROOT
ATOM      1  N1  UNL     1      21.838   5.661  33.040  0.00  0.00    -0.295 N 
ATOM      2  C11 UNL     1      22.281   4.480  32.355  0.00  0.00    +0.300 C 
ATOM      3  O2  UNL     1      23.369   3.929  32.677  0.00  0.00    -0.253 OA
ATOM      4  N2  UNL     1      21.479   3.928  31.301  0.00  0.00    -0.297 N 
ATOM      5  H13 UNL     1      20.923   6.085  32.772  0.00  0.00    +0.151 HD
ATOM      6  H14 UNL     1      20.612   4.439  31.020  0.00  0.00    +0.151 HD
ENDROOT
BRANCH   4   7
ATOM      7  C12 UNL     1      21.860   2.703  30.593  0.00  0.00    +0.075 C 
ATOM      8  C13 UNL     1      21.185   1.473  31.247  0.00  0.00    +0.022 C 
ATOM      9  C14 UNL     1      20.943   0.307  30.267  0.00  0.00    +0.002 C 
ATOM     10  C15 UNL     1      22.002   0.270  29.160  0.00  0.00    +0.003 C 
ATOM     11  C16 UNL     1      22.007   1.572  28.314  0.00  0.00    -0.012 C 
ATOM     12  C17 UNL     1      21.205   1.395  27.017  0.00  0.00    +0.007 C 
ATOM     13  C18 UNL     1      21.491   2.803  29.104  0.00  0.00    +0.025 C 
ENDBRANCH   4   7
BRANCH   1  14
ATOM     14  C10 UNL     1      22.637   6.341  34.061  0.00  0.00    +0.144 C 
BRANCH  14  21
ATOM     15  C4  UNL     1      22.046   8.792  33.665  0.00  0.00    +0.127 A 
ATOM     16  C5  UNL     1      21.462   9.986  34.102  0.00  0.00    +0.066 A 
ATOM     17  C6  UNL     1      20.771  10.033  35.317  0.00  0.00    +0.044 A 
ATOM     18 CL1  UNL     1      20.031  11.533  35.849  0.00  0.00    -0.083 Cl
ATOM     19  C7  UNL     1      20.659   8.882  36.100  0.00  0.00    +0.020 A 
ATOM     20  C8  UNL     1      21.252   7.688  35.680  0.00  0.00    +0.010 A 
ATOM     21  C9  UNL     1      21.979   7.635  34.477  0.00  0.00    +0.011 A 
BRANCH  15  22
ATOM     22  O1  UNL     1      22.700   8.779  32.429  0.00  0.00    -0.489 OA
BRANCH  22  24
ATOM     23  C1  UNL     1      25.114   8.917  32.595  0.00  0.00    +0.051 C 
ATOM     24  C2  UNL     1      23.825   9.613  32.152  0.00  0.00    +0.167 C 
ATOM     25  C3  UNL     1      23.864   9.914  30.657  0.00  0.00    +0.051 C 
ENDBRANCH  22  24
ENDBRANCH  15  22
ENDBRANCH  14  21
ENDBRANCH   1  14
TORSDOF 5
ENDMDL
