MODEL 1
REMARK VINA RESULT:    -6.630      0.000      0.000
REMARK INTER + INTRA:          -8.882
REMARK INTER:                  -8.568
REMARK INTRA:                  -0.313
REMARK UNBOUND:                -0.313
REMARK  Name = /home/qwerty/github/datacon2025hack/step_04_hit_selection/docking/ligands/lig_693.pdb
REMARK  8 active torsions:
REMARK  status: ('A' for Active; 'I' for Inactive)
REMARK    1  A    between atoms: C1_1  and  C2_2
REMARK    2  A    between atoms: C3_4  and  C4_5
REMARK    3  A    between atoms: C5_6  and  C6_7
REMARK    4  A    between atoms: C10_13  and  C11_14
REMARK    5  A    between atoms: C11_14  and  N3_15
REMARK    6  A    between atoms: N3_15  and  C12_16
REMARK    7  A    between atoms: C13_17  and  C14_19
REMARK    8  A    between atoms: C16_21  and  C17_22
REMARK                            x       y       z     vdW  Elec       q    Type
REMARK                         _______ _______ _______ _____ _____    ______ ____
ROOT
ATOM      1  C6  UNL     1      21.290   8.593  35.928  0.00  0.00    +0.284 C 
ATOM      2  O1  UNL     1      21.457   9.842  35.945  0.00  0.00    -0.267 OA
ATOM      3  N2  UNL     1      20.074   8.042  36.478  0.00  0.00    -0.290 N 
ATOM      4  C7  UNL     1      19.824   6.620  36.669  0.00  0.00    +0.108 C 
ATOM      5  C8  UNL     1      18.472   6.522  37.363  0.00  0.00    +0.021 C 
ATOM      6  C9  UNL     1      18.195   7.913  37.920  0.00  0.00    +0.025 C 
ATOM      7  C10 UNL     1      19.029   8.872  37.067  0.00  0.00    +0.094 C 
ENDROOT
BRANCH   1  13
ATOM      8  C1  UNL     1      24.180   6.389  32.617  0.00  0.00    +0.109 C 
ATOM      9  C2  UNL     1      23.608   6.792  33.932  0.00  0.00    +0.194 A 
ATOM     10  N1  UNL     1      24.040   6.301  35.113  0.00  0.00    -0.218 NA
ATOM     11  C3  UNL     1      23.237   6.907  36.010  0.00  0.00    +0.089 A 
ATOM     12  C4  UNL     1      23.337   6.683  37.485  0.00  0.00    +0.070 C 
ATOM     13  C5  UNL     1      22.348   7.737  35.343  0.00  0.00    +0.212 A 
ATOM     14  O3  UNL     1      22.608   7.633  34.063  0.00  0.00    -0.435 OA
ENDBRANCH   1  13
BRANCH   7  15
ATOM     15  C11 UNL     1      18.197   9.538  35.950  0.00  0.00    +0.130 C 
BRANCH  15  16
ATOM     16  N3  UNL     1      17.583  10.792  36.415  0.00  0.00    -0.303 N 
ATOM     17  C12 UNL     1      18.415  11.985  36.608  0.00  0.00    +0.132 C 
ATOM     18  C13 UNL     1      16.174  10.828  36.741  0.00  0.00    +0.219 C 
ATOM     19  O2  UNL     1      15.472   9.788  36.616  0.00  0.00    -0.275 OA
BRANCH  18  20
ATOM     20  C14 UNL     1      15.509  12.105  37.183  0.00  0.00    +0.085 C 
ATOM     21  C15 UNL     1      14.025  12.186  36.834  0.00  0.00    +0.023 C 
ATOM     22  C16 UNL     1      15.031  13.019  36.054  0.00  0.00    +0.050 C 
BRANCH  22  23
ATOM     23  C17 UNL     1      15.010  14.496  36.353  0.00  0.00    +0.039 A 
ATOM     24  C18 UNL     1      14.119  15.455  35.905  0.00  0.00    +0.133 A 
ATOM     25  N4  UNL     1      14.468  16.655  36.408  0.00  0.00    -0.244 NA
ATOM     26  C19 UNL     1      15.564  16.400  37.153  0.00  0.00    +0.196 A 
ATOM     27  N5  UNL     1      15.915  15.101  37.137  0.00  0.00    -0.348 N 
ATOM     28  H25 UNL     1      16.724  14.662  37.630  0.00  0.00    +0.166 HD
ENDBRANCH  22  23
ENDBRANCH  18  20
ENDBRANCH  15  16
ENDBRANCH   7  15
TORSDOF 5
ENDMDL
MODEL 2
REMARK VINA RESULT:    -5.975     13.017     14.970
REMARK INTER + INTRA:          -8.034
REMARK INTER:                  -7.983
REMARK INTRA:                  -0.051
REMARK UNBOUND:                -0.313
REMARK  Name = /home/qwerty/github/datacon2025hack/step_04_hit_selection/docking/ligands/lig_693.pdb
REMARK  8 active torsions:
REMARK  status: ('A' for Active; 'I' for Inactive)
REMARK    1  A    between atoms: C1_1  and  C2_2
REMARK    2  A    between atoms: C3_4  and  C4_5
REMARK    3  A    between atoms: C5_6  and  C6_7
REMARK    4  A    between atoms: C10_13  and  C11_14
REMARK    5  A    between atoms: C11_14  and  N3_15
REMARK    6  A    between atoms: N3_15  and  C12_16
REMARK    7  A    between atoms: C13_17  and  C14_19
REMARK    8  A    between atoms: C16_21  and  C17_22
REMARK                            x       y       z     vdW  Elec       q    Type
REMARK                         _______ _______ _______ _____ _____    ______ ____
ROOT
ATOM      1  C6  UNL     1      20.450  13.369  21.498  0.00  0.00    +0.284 C 
ATOM      2  O1  UNL     1      20.197  13.357  22.733  0.00  0.00    -0.267 OA
ATOM      3  N2  UNL     1      21.507  14.221  21.008  0.00  0.00    -0.290 N 
ATOM      4  C7  UNL     1      21.795  14.453  19.600  0.00  0.00    +0.108 C 
ATOM      5  C8  UNL     1      22.913  15.488  19.566  0.00  0.00    +0.021 C 
ATOM      6  C9  UNL     1      22.930  16.119  20.953  0.00  0.00    +0.025 C 
ATOM      7  C10 UNL     1      22.293  15.084  21.884  0.00  0.00    +0.094 C 
ENDROOT
BRANCH   1  13
ATOM      8  C1  UNL     1      16.672  11.624  18.879  0.00  0.00    +0.109 C 
ATOM      9  C2  UNL     1      18.041  11.751  19.454  0.00  0.00    +0.194 A 
ATOM     10  N1  UNL     1      19.030  10.863  19.221  0.00  0.00    -0.218 NA
ATOM     11  C3  UNL     1      20.056  11.349  19.948  0.00  0.00    +0.089 A 
ATOM     12  C4  UNL     1      21.401  10.698  20.007  0.00  0.00    +0.070 C 
ATOM     13  C5  UNL     1      19.652  12.506  20.596  0.00  0.00    +0.212 A 
ATOM     14  O3  UNL     1      18.401  12.717  20.268  0.00  0.00    -0.435 OA
ENDBRANCH   1  13
BRANCH   7  15
ATOM     15  C11 UNL     1      23.348  14.245  22.637  0.00  0.00    +0.130 C 
BRANCH  15  16
ATOM     16  N3  UNL     1      23.598  14.783  23.984  0.00  0.00    -0.303 N 
ATOM     17  C12 UNL     1      24.456  15.962  24.151  0.00  0.00    +0.132 C 
ATOM     18  C13 UNL     1      23.050  14.113  25.143  0.00  0.00    +0.219 C 
ATOM     19  O2  UNL     1      22.349  13.076  24.997  0.00  0.00    -0.275 OA
BRANCH  18  20
ATOM     20  C14 UNL     1      23.257  14.662  26.529  0.00  0.00    +0.085 C 
ATOM     21  C15 UNL     1      23.968  13.701  27.479  0.00  0.00    +0.023 C 
ATOM     22  C16 UNL     1      22.476  13.954  27.637  0.00  0.00    +0.050 C 
BRANCH  22  23
ATOM     23  C17 UNL     1      22.090  14.796  28.827  0.00  0.00    +0.039 A 
ATOM     24  C18 UNL     1      21.329  15.950  28.859  0.00  0.00    +0.133 A 
ATOM     25  N4  UNL     1      21.232  16.384  30.131  0.00  0.00    -0.244 NA
ATOM     26  C19 UNL     1      21.935  15.483  30.846  0.00  0.00    +0.196 A 
ATOM     27  N5  UNL     1      22.467  14.510  30.083  0.00  0.00    -0.348 N 
ATOM     28  H25 UNL     1      23.052  13.706  30.404  0.00  0.00    +0.166 HD
ENDBRANCH  22  23
ENDBRANCH  18  20
ENDBRANCH  15  16
ENDBRANCH   7  15
TORSDOF 5
ENDMDL
MODEL 3
REMARK VINA RESULT:    -5.974      6.711     10.915
REMARK INTER + INTRA:          -8.034
REMARK INTER:                  -7.381
REMARK INTRA:                  -0.653
REMARK UNBOUND:                -0.313
REMARK  Name = /home/qwerty/github/datacon2025hack/step_04_hit_selection/docking/ligands/lig_693.pdb
REMARK  8 active torsions:
REMARK  status: ('A' for Active; 'I' for Inactive)
REMARK    1  A    between atoms: C1_1  and  C2_2
REMARK    2  A    between atoms: C3_4  and  C4_5
REMARK    3  A    between atoms: C5_6  and  C6_7
REMARK    4  A    between atoms: C10_13  and  C11_14
REMARK    5  A    between atoms: C11_14  and  N3_15
REMARK    6  A    between atoms: N3_15  and  C12_16
REMARK    7  A    between atoms: C13_17  and  C14_19
REMARK    8  A    between atoms: C16_21  and  C17_22
REMARK                            x       y       z     vdW  Elec       q    Type
REMARK                         _______ _______ _______ _____ _____    ______ ____
ROOT
ATOM      1  C6  UNL     1      21.486   5.119  32.547  0.00  0.00    +0.284 C 
ATOM      2  O1  UNL     1      21.339   5.839  31.522  0.00  0.00    -0.267 OA
ATOM      3  N2  UNL     1      21.069   3.737  32.496  0.00  0.00    -0.290 N 
ATOM      4  C7  UNL     1      21.031   2.844  33.646  0.00  0.00    +0.108 C 
ATOM      5  C8  UNL     1      20.437   1.536  33.139  0.00  0.00    +0.021 C 
ATOM      6  C9  UNL     1      19.769   1.875  31.812  0.00  0.00    +0.025 C 
ATOM      7  C10 UNL     1      20.473   3.138  31.308  0.00  0.00    +0.094 C 
ENDROOT
BRANCH   1  13
ATOM      8  C1  UNL     1      21.884   7.111  37.024  0.00  0.00    +0.109 C 
ATOM      9  C2  UNL     1      22.269   6.563  35.693  0.00  0.00    +0.194 A 
ATOM     10  N1  UNL     1      23.539   6.542  35.237  0.00  0.00    -0.218 NA
ATOM     11  C3  UNL     1      23.416   6.000  34.009  0.00  0.00    +0.089 A 
ATOM     12  C4  UNL     1      24.576   5.762  33.096  0.00  0.00    +0.070 C 
ATOM     13  C5  UNL     1      22.080   5.718  33.764  0.00  0.00    +0.212 A 
ATOM     14  O3  UNL     1      21.406   6.085  34.826  0.00  0.00    -0.435 OA
ENDBRANCH   1  13
BRANCH   7  15
ATOM     15  C11 UNL     1      21.572   2.822  30.272  0.00  0.00    +0.130 C 
BRANCH  15  16
ATOM     16  N3  UNL     1      21.183   3.269  28.925  0.00  0.00    -0.303 N 
ATOM     17  C12 UNL     1      19.995   4.113  28.750  0.00  0.00    +0.132 C 
ATOM     18  C13 UNL     1      21.933   2.823  27.771  0.00  0.00    +0.219 C 
ATOM     19  O2  UNL     1      22.927   2.062  27.922  0.00  0.00    -0.275 OA
BRANCH  18  20
ATOM     20  C14 UNL     1      21.583   3.294  26.385  0.00  0.00    +0.085 C 
ATOM     21  C15 UNL     1      22.772   3.348  25.427  0.00  0.00    +0.023 C 
ATOM     22  C16 UNL     1      22.184   4.640  25.978  0.00  0.00    +0.050 C 
BRANCH  22  23
ATOM     23  C17 UNL     1      21.391   5.457  24.990  0.00  0.00    +0.039 A 
ATOM     24  C18 UNL     1      21.236   5.256  23.629  0.00  0.00    +0.133 A 
ATOM     25  N4  UNL     1      20.448   6.225  23.125  0.00  0.00    -0.244 NA
ATOM     26  C19 UNL     1      20.138   6.993  24.189  0.00  0.00    +0.196 A 
ATOM     27  N5  UNL     1      20.696   6.553  25.332  0.00  0.00    -0.348 N 
ATOM     28  H25 UNL     1      20.607   6.978  26.281  0.00  0.00    +0.166 HD
ENDBRANCH  22  23
ENDBRANCH  18  20
ENDBRANCH  15  16
ENDBRANCH   7  15
TORSDOF 5
ENDMDL
MODEL 4
REMARK VINA RESULT:    -5.973     16.396     17.189
REMARK INTER + INTRA:          -8.033
REMARK INTER:                  -7.424
REMARK INTRA:                  -0.609
REMARK UNBOUND:                -0.313
REMARK  Name = /home/qwerty/github/datacon2025hack/step_04_hit_selection/docking/ligands/lig_693.pdb
REMARK  8 active torsions:
REMARK  status: ('A' for Active; 'I' for Inactive)
REMARK    1  A    between atoms: C1_1  and  C2_2
REMARK    2  A    between atoms: C3_4  and  C4_5
REMARK    3  A    between atoms: C5_6  and  C6_7
REMARK    4  A    between atoms: C10_13  and  C11_14
REMARK    5  A    between atoms: C11_14  and  N3_15
REMARK    6  A    between atoms: N3_15  and  C12_16
REMARK    7  A    between atoms: C13_17  and  C14_19
REMARK    8  A    between atoms: C16_21  and  C17_22
REMARK                            x       y       z     vdW  Elec       q    Type
REMARK                         _______ _______ _______ _____ _____    ______ ____
ROOT
ATOM      1  C6  UNL     1      14.967   1.831  21.649  0.00  0.00    +0.284 C 
ATOM      2  O1  UNL     1      15.541   2.952  21.711  0.00  0.00    -0.267 OA
ATOM      3  N2  UNL     1      13.584   1.729  22.053  0.00  0.00    -0.290 N 
ATOM      4  C7  UNL     1      12.853   0.477  22.185  0.00  0.00    +0.108 C 
ATOM      5  C8  UNL     1      11.479   0.850  22.727  0.00  0.00    +0.021 C 
ATOM      6  C9  UNL     1      11.626   2.262  23.280  0.00  0.00    +0.025 C 
ATOM      7  C10 UNL     1      12.821   2.872  22.543  0.00  0.00    +0.094 C 
ENDROOT
BRANCH   1  13
ATOM      8  C1  UNL     1      16.965  -1.480  18.612  0.00  0.00    +0.109 C 
ATOM      9  C2  UNL     1      16.611  -0.763  19.870  0.00  0.00    +0.194 A 
ATOM     10  N1  UNL     1      16.997  -1.178  21.095  0.00  0.00    -0.218 NA
ATOM     11  C3  UNL     1      16.438  -0.267  21.917  0.00  0.00    +0.089 A 
ATOM     12  C4  UNL     1      16.591  -0.301  23.404  0.00  0.00    +0.070 C 
ATOM     13  C5  UNL     1      15.734   0.660  21.164  0.00  0.00    +0.212 A 
ATOM     14  O3  UNL     1      15.863   0.315  19.906  0.00  0.00    -0.435 OA
ENDBRANCH   1  13
BRANCH   7  15
ATOM     15  C11 UNL     1      12.387   3.760  21.357  0.00  0.00    +0.130 C 
BRANCH  15  16
ATOM     16  N3  UNL     1      11.589   4.909  21.813  0.00  0.00    -0.303 N 
ATOM     17  C12 UNL     1      12.221   5.967  22.609  0.00  0.00    +0.132 C 
ATOM     18  C13 UNL     1      10.172   4.962  21.529  0.00  0.00    +0.219 C 
ATOM     19  O2  UNL     1       9.625   4.028  20.882  0.00  0.00    -0.275 OA
BRANCH  18  20
ATOM     20  C14 UNL     1       9.337   6.142  21.948  0.00  0.00    +0.085 C 
ATOM     21  C15 UNL     1       8.018   6.272  21.190  0.00  0.00    +0.023 C 
ATOM     22  C16 UNL     1       9.161   7.231  20.889  0.00  0.00    +0.050 C 
BRANCH  22  23
ATOM     23  C17 UNL     1       8.971   8.637  21.399  0.00  0.00    +0.039 A 
ATOM     24  C18 UNL     1       9.928   9.529  21.848  0.00  0.00    +0.133 A 
ATOM     25  N4  UNL     1       9.325  10.677  22.218  0.00  0.00    -0.244 NA
ATOM     26  C19 UNL     1       8.015  10.457  21.984  0.00  0.00    +0.196 A 
ATOM     27  N5  UNL     1       7.771   9.230  21.488  0.00  0.00    -0.348 N 
ATOM     28  H25 UNL     1       6.842   8.828  21.233  0.00  0.00    +0.166 HD
ENDBRANCH  22  23
ENDBRANCH  18  20
ENDBRANCH  15  16
ENDBRANCH   7  15
TORSDOF 5
ENDMDL
MODEL 5
REMARK VINA RESULT:    -5.917      4.571     10.175
REMARK INTER + INTRA:          -7.960
REMARK INTER:                  -7.438
REMARK INTRA:                  -0.522
REMARK UNBOUND:                -0.313
REMARK  Name = /home/qwerty/github/datacon2025hack/step_04_hit_selection/docking/ligands/lig_693.pdb
REMARK  8 active torsions:
REMARK  status: ('A' for Active; 'I' for Inactive)
REMARK    1  A    between atoms: C1_1  and  C2_2
REMARK    2  A    between atoms: C3_4  and  C4_5
REMARK    3  A    between atoms: C5_6  and  C6_7
REMARK    4  A    between atoms: C10_13  and  C11_14
REMARK    5  A    between atoms: C11_14  and  N3_15
REMARK    6  A    between atoms: N3_15  and  C12_16
REMARK    7  A    between atoms: C13_17  and  C14_19
REMARK    8  A    between atoms: C16_21  and  C17_22
REMARK                            x       y       z     vdW  Elec       q    Type
REMARK                         _______ _______ _______ _____ _____    ______ ____
ROOT
ATOM      1  C6  UNL     1      11.875  13.170  32.740  0.00  0.00    +0.284 C 
ATOM      2  O1  UNL     1      12.798  12.328  32.910  0.00  0.00    -0.267 OA
ATOM      3  N2  UNL     1      11.215  13.729  33.897  0.00  0.00    -0.290 N 
ATOM      4  C7  UNL     1      10.035  14.580  33.843  0.00  0.00    +0.108 C 
ATOM      5  C8  UNL     1       9.639  14.839  35.291  0.00  0.00    +0.021 C 
ATOM      6  C9  UNL     1      10.364  13.778  36.110  0.00  0.00    +0.025 C 
ATOM      7  C10 UNL     1      11.565  13.351  35.262  0.00  0.00    +0.094 C 
ENDROOT
BRANCH   1  13
ATOM      8  C1  UNL     1       9.355  13.505  28.531  0.00  0.00    +0.109 C 
ATOM      9  C2  UNL     1      10.424  13.719  29.548  0.00  0.00    +0.194 A 
ATOM     10  N1  UNL     1      11.530  14.457  29.319  0.00  0.00    -0.218 NA
ATOM     11  C3  UNL     1      12.214  14.352  30.476  0.00  0.00    +0.089 A 
ATOM     12  C4  UNL     1      13.531  15.018  30.714  0.00  0.00    +0.070 C 
ATOM     13  C5  UNL     1      11.502  13.554  31.359  0.00  0.00    +0.212 A 
ATOM     14  O3  UNL     1      10.406  13.180  30.745  0.00  0.00    -0.435 OA
ENDBRANCH   1  13
BRANCH   7  15
ATOM     15  C11 UNL     1      12.866  14.065  35.686  0.00  0.00    +0.130 C 
BRANCH  15  16
ATOM     16  N3  UNL     1      13.799  13.133  36.340  0.00  0.00    -0.303 N 
ATOM     17  C12 UNL     1      13.299  11.871  36.898  0.00  0.00    +0.132 C 
ATOM     18  C13 UNL     1      15.193  13.491  36.487  0.00  0.00    +0.219 C 
ATOM     19  O2  UNL     1      15.609  14.596  36.045  0.00  0.00    -0.275 OA
BRANCH  18  20
ATOM     20  C14 UNL     1      16.178  12.543  37.117  0.00  0.00    +0.085 C 
ATOM     21  C15 UNL     1      17.557  12.553  36.461  0.00  0.00    +0.023 C 
ATOM     22  C16 UNL     1      16.620  11.375  36.236  0.00  0.00    +0.050 C 
BRANCH  22  23
ATOM     23  C17 UNL     1      17.003  10.104  36.950  0.00  0.00    +0.039 A 
ATOM     24  C18 UNL     1      18.237   9.734  37.453  0.00  0.00    +0.133 A 
ATOM     25  N4  UNL     1      18.141   8.511  38.011  0.00  0.00    -0.244 NA
ATOM     26  C19 UNL     1      16.849   8.165  37.837  0.00  0.00    +0.196 A 
ATOM     27  N5  UNL     1      16.136   9.110  37.196  0.00  0.00    -0.348 N 
ATOM     28  H25 UNL     1      15.124   9.071  36.943  0.00  0.00    +0.166 HD
ENDBRANCH  22  23
ENDBRANCH  18  20
ENDBRANCH  15  16
ENDBRANCH   7  15
TORSDOF 5
ENDMDL
MODEL 6
REMARK VINA RESULT:    -5.901     15.549     18.367
REMARK INTER + INTRA:          -7.939
REMARK INTER:                  -7.471
REMARK INTRA:                  -0.468
REMARK UNBOUND:                -0.313
REMARK  Name = /home/qwerty/github/datacon2025hack/step_04_hit_selection/docking/ligands/lig_693.pdb
REMARK  8 active torsions:
REMARK  status: ('A' for Active; 'I' for Inactive)
REMARK    1  A    between atoms: C1_1  and  C2_2
REMARK    2  A    between atoms: C3_4  and  C4_5
REMARK    3  A    between atoms: C5_6  and  C6_7
REMARK    4  A    between atoms: C10_13  and  C11_14
REMARK    5  A    between atoms: C11_14  and  N3_15
REMARK    6  A    between atoms: N3_15  and  C12_16
REMARK    7  A    between atoms: C13_17  and  C14_19
REMARK    8  A    between atoms: C16_21  and  C17_22
REMARK                            x       y       z     vdW  Elec       q    Type
REMARK                         _______ _______ _______ _____ _____    ______ ____
ROOT
ATOM      1  C6  UNL     1       9.026   8.614  24.626  0.00  0.00    +0.284 C 
ATOM      2  O1  UNL     1       9.732   7.574  24.719  0.00  0.00    -0.267 OA
ATOM      3  N2  UNL     1       8.700   9.124  23.314  0.00  0.00    -0.290 N 
ATOM      4  C7  UNL     1       8.036  10.395  23.065  0.00  0.00    +0.108 C 
ATOM      5  C8  UNL     1       7.995  10.556  21.550  0.00  0.00    +0.021 C 
ATOM      6  C9  UNL     1       9.016   9.564  21.005  0.00  0.00    +0.025 C 
ATOM      7  C10 UNL     1       9.164   8.489  22.086  0.00  0.00    +0.094 C 
ENDROOT
BRANCH   1  13
ATOM      8  C1  UNL     1       8.382  12.011  28.121  0.00  0.00    +0.109 C 
ATOM      9  C2  UNL     1       8.260  10.730  27.371  0.00  0.00    +0.194 A 
ATOM     10  N1  UNL     1       7.551   9.672  27.817  0.00  0.00    -0.218 NA
ATOM     11  C3  UNL     1       7.741   8.747  26.855  0.00  0.00    +0.089 A 
ATOM     12  C4  UNL     1       7.136   7.380  26.899  0.00  0.00    +0.070 C 
ATOM     13  C5  UNL     1       8.557   9.275  25.866  0.00  0.00    +0.212 A 
ATOM     14  O3  UNL     1       8.859  10.498  26.226  0.00  0.00    -0.435 OA
ENDBRANCH   1  13
BRANCH   7  15
ATOM     15  C11 UNL     1       8.310   7.238  21.788  0.00  0.00    +0.130 C 
BRANCH  15  16
ATOM     16  N3  UNL     1       9.148   6.114  21.338  0.00  0.00    -0.303 N 
ATOM     17  C12 UNL     1      10.174   6.333  20.312  0.00  0.00    +0.132 C 
ATOM     18  C13 UNL     1       8.915   4.786  21.861  0.00  0.00    +0.219 C 
ATOM     19  O2  UNL     1       8.003   4.595  22.710  0.00  0.00    -0.275 OA
BRANCH  18  20
ATOM     20  C14 UNL     1       9.780   3.624  21.450  0.00  0.00    +0.085 C 
ATOM     21  C15 UNL     1       9.839   2.497  22.479  0.00  0.00    +0.023 C 
ATOM     22  C16 UNL     1      11.039   3.413  22.292  0.00  0.00    +0.050 C 
BRANCH  22  23
ATOM     23  C17 UNL     1      12.219   2.791  21.589  0.00  0.00    +0.039 A 
ATOM     24  C18 UNL     1      13.255   3.418  20.920  0.00  0.00    +0.133 A 
ATOM     25  N4  UNL     1      14.097   2.485  20.433  0.00  0.00    -0.244 NA
ATOM     26  C19 UNL     1      13.555   1.311  20.817  0.00  0.00    +0.196 A 
ATOM     27  N5  UNL     1      12.417   1.466  21.518  0.00  0.00    -0.348 N 
ATOM     28  H25 UNL     1      11.816   0.711  21.918  0.00  0.00    +0.166 HD
ENDBRANCH  22  23
ENDBRANCH  18  20
ENDBRANCH  15  16
ENDBRANCH   7  15
TORSDOF 5
ENDMDL
MODEL 7
REMARK VINA RESULT:    -5.825     10.679     13.354
REMARK INTER + INTRA:          -7.841
REMARK INTER:                  -6.993
REMARK INTRA:                  -0.848
REMARK UNBOUND:                -0.313
REMARK  Name = /home/qwerty/github/datacon2025hack/step_04_hit_selection/docking/ligands/lig_693.pdb
REMARK  8 active torsions:
REMARK  status: ('A' for Active; 'I' for Inactive)
REMARK    1  A    between atoms: C1_1  and  C2_2
REMARK    2  A    between atoms: C3_4  and  C4_5
REMARK    3  A    between atoms: C5_6  and  C6_7
REMARK    4  A    between atoms: C10_13  and  C11_14
REMARK    5  A    between atoms: C11_14  and  N3_15
REMARK    6  A    between atoms: N3_15  and  C12_16
REMARK    7  A    between atoms: C13_17  and  C14_19
REMARK    8  A    between atoms: C16_21  and  C17_22
REMARK                            x       y       z     vdW  Elec       q    Type
REMARK                         _______ _______ _______ _____ _____    ______ ____
ROOT
ATOM      1  C6  UNL     1       9.687  10.333  26.722  0.00  0.00    +0.284 C 
ATOM      2  O1  UNL     1      10.747  10.982  26.933  0.00  0.00    -0.267 OA
ATOM      3  N2  UNL     1       8.749  10.152  27.805  0.00  0.00    -0.290 N 
ATOM      4  C7  UNL     1       7.574   9.294  27.745  0.00  0.00    +0.108 C 
ATOM      5  C8  UNL     1       6.953   9.337  29.136  0.00  0.00    +0.021 C 
ATOM      6  C9  UNL     1       8.039   9.888  30.053  0.00  0.00    +0.025 C 
ATOM      7  C10 UNL     1       8.983  10.681  29.144  0.00  0.00    +0.094 C 
ENDROOT
BRANCH   1  13
ATOM      8  C1  UNL     1       8.121   9.940  22.077  0.00  0.00    +0.109 C 
ATOM      9  C2  UNL     1       8.788   9.603  23.366  0.00  0.00    +0.194 A 
ATOM     10  N1  UNL     1       9.415   8.430  23.594  0.00  0.00    -0.218 NA
ATOM     11  C3  UNL     1       9.833   8.547  24.870  0.00  0.00    +0.089 A 
ATOM     12  C4  UNL     1      10.598   7.480  25.585  0.00  0.00    +0.070 C 
ATOM     13  C5  UNL     1       9.443   9.781  25.369  0.00  0.00    +0.212 A 
ATOM     14  O3  UNL     1       8.797  10.399  24.411  0.00  0.00    -0.435 OA
ENDBRANCH   1  13
BRANCH   7  15
ATOM     15  C11 UNL     1       8.685  12.195  29.169  0.00  0.00    +0.130 C 
BRANCH  15  16
ATOM     16  N3  UNL     1       9.912  12.978  29.387  0.00  0.00    -0.303 N 
ATOM     17  C12 UNL     1      10.662  12.827  30.640  0.00  0.00    +0.132 C 
ATOM     18  C13 UNL     1      10.342  13.939  28.395  0.00  0.00    +0.219 C 
ATOM     19  O2  UNL     1       9.670  14.096  27.339  0.00  0.00    -0.275 OA
BRANCH  18  20
ATOM     20  C14 UNL     1      11.613  14.726  28.571  0.00  0.00    +0.085 C 
ATOM     21  C15 UNL     1      12.237  15.201  27.261  0.00  0.00    +0.023 C 
ATOM     22  C16 UNL     1      12.878  14.058  28.033  0.00  0.00    +0.050 C 
BRANCH  22  23
ATOM     23  C17 UNL     1      14.167  14.400  28.736  0.00  0.00    +0.039 A 
ATOM     24  C18 UNL     1      14.835  13.684  29.714  0.00  0.00    +0.133 A 
ATOM     25  N4  UNL     1      15.948  14.354  30.072  0.00  0.00    -0.244 NA
ATOM     26  C19 UNL     1      15.934  15.462  29.303  0.00  0.00    +0.196 A 
ATOM     27  N5  UNL     1      14.867  15.517  28.485  0.00  0.00    -0.348 N 
ATOM     28  H25 UNL     1      14.635  16.273  27.803  0.00  0.00    +0.166 HD
ENDBRANCH  22  23
ENDBRANCH  18  20
ENDBRANCH  15  16
ENDBRANCH   7  15
TORSDOF 5
ENDMDL
MODEL 8
REMARK VINA RESULT:    -5.820      4.387      9.887
REMARK INTER + INTRA:          -7.834
REMARK INTER:                  -7.250
REMARK INTRA:                  -0.584
REMARK UNBOUND:                -0.313
REMARK  Name = /home/qwerty/github/datacon2025hack/step_04_hit_selection/docking/ligands/lig_693.pdb
REMARK  8 active torsions:
REMARK  status: ('A' for Active; 'I' for Inactive)
REMARK    1  A    between atoms: C1_1  and  C2_2
REMARK    2  A    between atoms: C3_4  and  C4_5
REMARK    3  A    between atoms: C5_6  and  C6_7
REMARK    4  A    between atoms: C10_13  and  C11_14
REMARK    5  A    between atoms: C11_14  and  N3_15
REMARK    6  A    between atoms: N3_15  and  C12_16
REMARK    7  A    between atoms: C13_17  and  C14_19
REMARK    8  A    between atoms: C16_21  and  C17_22
REMARK                            x       y       z     vdW  Elec       q    Type
REMARK                         _______ _______ _______ _____ _____    ______ ____
ROOT
ATOM      1  C6  UNL     1      12.366  12.257  32.378  0.00  0.00    +0.284 C 
ATOM      2  O1  UNL     1      13.157  11.304  32.145  0.00  0.00    -0.267 OA
ATOM      3  N2  UNL     1      12.197  12.710  33.739  0.00  0.00    -0.290 N 
ATOM      4  C7  UNL     1      11.203  13.684  34.167  0.00  0.00    +0.108 C 
ATOM      5  C8  UNL     1      11.328  13.771  35.683  0.00  0.00    +0.021 C 
ATOM      6  C9  UNL     1      12.106  12.530  36.102  0.00  0.00    +0.025 C 
ATOM      7  C10 UNL     1      12.899  12.102  34.864  0.00  0.00    +0.094 C 
ENDROOT
BRANCH   1  13
ATOM      8  C1  UNL     1       8.920  13.095  28.972  0.00  0.00    +0.109 C 
ATOM      9  C2  UNL     1      10.159  13.257  29.785  0.00  0.00    +0.194 A 
ATOM     10  N1  UNL     1      11.079  14.216  29.552  0.00  0.00    -0.218 NA
ATOM     11  C3  UNL     1      12.019  13.972  30.487  0.00  0.00    +0.089 A 
ATOM     12  C4  UNL     1      13.261  14.792  30.636  0.00  0.00    +0.070 C 
ATOM     13  C5  UNL     1      11.638  12.876  31.246  0.00  0.00    +0.212 A 
ATOM     14  O3  UNL     1      10.487  12.462  30.777  0.00  0.00    -0.435 OA
ENDBRANCH   1  13
BRANCH   7  15
ATOM     15  C11 UNL     1      14.359  12.600  34.901  0.00  0.00    +0.130 C 
BRANCH  15  16
ATOM     16  N3  UNL     1      15.292  11.502  35.201  0.00  0.00    -0.303 N 
ATOM     17  C12 UNL     1      15.752  10.620  34.122  0.00  0.00    +0.132 C 
ATOM     18  C13 UNL     1      15.703  11.255  36.565  0.00  0.00    +0.219 C 
ATOM     19  O2  UNL     1      15.270  11.989  37.495  0.00  0.00    -0.275 OA
BRANCH  18  20
ATOM     20  C14 UNL     1      16.685  10.164  36.898  0.00  0.00    +0.085 C 
ATOM     21  C15 UNL     1      17.070  10.103  38.374  0.00  0.00    +0.023 C 
ATOM     22  C16 UNL     1      18.064  10.640  37.355  0.00  0.00    +0.050 C 
BRANCH  22  23
ATOM     23  C17 UNL     1      19.224   9.728  37.046  0.00  0.00    +0.039 A 
ATOM     24  C18 UNL     1      19.932   9.600  35.864  0.00  0.00    +0.133 A 
ATOM     25  N4  UNL     1      20.888   8.664  36.019  0.00  0.00    -0.244 NA
ATOM     26  C19 UNL     1      20.743   8.243  37.292  0.00  0.00    +0.196 A 
ATOM     27  N5  UNL     1      19.742   8.870  37.939  0.00  0.00    -0.348 N 
ATOM     28  H25 UNL     1      19.435   8.715  38.924  0.00  0.00    +0.166 HD
ENDBRANCH  22  23
ENDBRANCH  18  20
ENDBRANCH  15  16
ENDBRANCH   7  15
TORSDOF 5
ENDMDL
MODEL 9
REMARK VINA RESULT:    -4.083      1.909      9.333
REMARK INTER + INTRA:          -5.590
REMARK INTER:                  -5.238
REMARK INTRA:                  -0.353
REMARK UNBOUND:                -0.313
REMARK  Name = /home/qwerty/github/datacon2025hack/step_04_hit_selection/docking/ligands/lig_693.pdb
REMARK  8 active torsions:
REMARK  status: ('A' for Active; 'I' for Inactive)
REMARK    1  A    between atoms: C1_1  and  C2_2
REMARK    2  A    between atoms: C3_4  and  C4_5
REMARK    3  A    between atoms: C5_6  and  C6_7
REMARK    4  A    between atoms: C10_13  and  C11_14
REMARK    5  A    between atoms: C11_14  and  N3_15
REMARK    6  A    between atoms: N3_15  and  C12_16
REMARK    7  A    between atoms: C13_17  and  C14_19
REMARK    8  A    between atoms: C16_21  and  C17_22
REMARK                            x       y       z     vdW  Elec       q    Type
REMARK                         _______ _______ _______ _____ _____    ______ ____
ROOT
ATOM      1  C6  UNL     1      16.544  12.625  36.744  0.00  0.00    +0.284 C 
ATOM      2  O1  UNL     1      16.236  11.866  37.702  0.00  0.00    -0.267 OA
ATOM      3  N2  UNL     1      17.762  12.370  36.011  0.00  0.00    -0.290 N 
ATOM      4  C7  UNL     1      18.316  13.256  34.997  0.00  0.00    +0.108 C 
ATOM      5  C8  UNL     1      19.643  12.635  34.580  0.00  0.00    +0.021 C 
ATOM      6  C9  UNL     1      19.993  11.638  35.677  0.00  0.00    +0.025 C 
ATOM      7  C10 UNL     1      18.662  11.271  36.340  0.00  0.00    +0.094 C 
ENDROOT
BRANCH   1  13
ATOM      8  C1  UNL     1      14.669  17.165  36.513  0.00  0.00    +0.109 C 
ATOM      9  C2  UNL     1      14.832  15.701  36.287  0.00  0.00    +0.194 A 
ATOM     10  N1  UNL     1      13.951  14.954  35.588  0.00  0.00    -0.218 NA
ATOM     11  C3  UNL     1      14.473  13.714  35.664  0.00  0.00    +0.089 A 
ATOM     12  C4  UNL     1      13.842  12.518  35.025  0.00  0.00    +0.070 C 
ATOM     13  C5  UNL     1      15.643  13.752  36.407  0.00  0.00    +0.212 A 
ATOM     14  O3  UNL     1      15.826  14.996  36.776  0.00  0.00    -0.435 OA
ENDBRANCH   1  13
BRANCH   7  15
ATOM     15  C11 UNL     1      18.087   9.943  35.804  0.00  0.00    +0.130 C 
BRANCH  15  16
ATOM     16  N3  UNL     1      19.156   9.045  35.341  0.00  0.00    -0.303 N 
ATOM     17  C12 UNL     1      19.408   8.889  33.903  0.00  0.00    +0.132 C 
ATOM     18  C13 UNL     1      19.913   8.270  36.299  0.00  0.00    +0.219 C 
ATOM     19  O2  UNL     1      19.664   8.374  37.530  0.00  0.00    -0.275 OA
BRANCH  18  20
ATOM     20  C14 UNL     1      21.039   7.372  35.859  0.00  0.00    +0.085 C 
ATOM     21  C15 UNL     1      21.984   6.962  36.986  0.00  0.00    +0.023 C 
ATOM     22  C16 UNL     1      22.438   7.981  35.951  0.00  0.00    +0.050 C 
BRANCH  22  23
ATOM     23  C17 UNL     1      23.455   7.478  34.958  0.00  0.00    +0.039 A 
ATOM     24  C18 UNL     1      24.047   6.230  34.885  0.00  0.00    +0.133 A 
ATOM     25  N4  UNL     1      24.904   6.206  33.845  0.00  0.00    -0.244 NA
ATOM     26  C19 UNL     1      24.814   7.440  33.308  0.00  0.00    +0.196 A 
ATOM     27  N5  UNL     1      23.944   8.232  33.961  0.00  0.00    -0.348 N 
ATOM     28  H25 UNL     1      23.706   9.224  33.739  0.00  0.00    +0.166 HD
ENDBRANCH  22  23
ENDBRANCH  18  20
ENDBRANCH  15  16
ENDBRANCH   7  15
TORSDOF 5
ENDMDL
