REMARK  Name = /home/qwerty/github/datacon2025hack/step_04_hit_selection/docking/ligands/lig_788.pdb
REMARK  9 active torsions:
REMARK  status: ('A' for Active; 'I' for Inactive)
REMARK    1  A    between atoms: C1_1  and  C2_2
REMARK    2  A    between atoms: C2_2  and  C3_3
REMARK    3  A    between atoms: C2_2  and  C4_4
REMARK    4  A    between atoms: C7_7  and  C8_8
REMARK    5  A    between atoms: N1_10  and  C9_11
REMARK    6  A    between atoms: C11_13  and  C12_14
REMARK    7  A    between atoms: N3_21  and  C18_22
REMARK    8  A    between atoms: C21_25  and  N4_26
REMARK    9  A    between atoms: N5_29  and  C24_30
REMARK                            x       y       z     vdW  Elec       q    Type
REMARK                         _______ _______ _______ _____ _____    ______ ____
ROOT
ATOM      1  C9  UNL     1       1.491   2.083   0.004  0.00  0.00    +0.124 A 
ATOM      2  C10 UNL     1       1.499   3.450   0.173  0.00  0.00    +0.073 A 
ATOM      3  C11 UNL     1       0.204   3.835  -0.143  0.00  0.00    +0.095 A 
ATOM      4  N2  UNL     1      -0.528   2.742  -0.446  0.00  0.00    -0.169 NA
ATOM      5  N3  UNL     1       0.258   1.679  -0.372  0.00  0.00    -0.247 N 
ENDROOT
BRANCH   3   6
ATOM      6  C12 UNL     1      -0.348   5.210  -0.127  0.00  0.00    +0.002 A 
ATOM      7  C13 UNL     1      -1.718   5.419  -0.378  0.00  0.00    +0.010 A 
ATOM      8  C14 UNL     1      -2.251   6.711  -0.379  0.00  0.00    +0.001 A 
ATOM      9  C15 UNL     1      -1.426   7.809  -0.130  0.00  0.00    +0.000 A 
ATOM     10  C16 UNL     1      -0.066   7.616   0.125  0.00  0.00    +0.001 A 
ATOM     11  C17 UNL     1       0.473   6.326   0.127  0.00  0.00    +0.010 A 
ENDBRANCH   3   6
BRANCH   5  12
ATOM     12  C18 UNL     1      -0.248   0.299  -0.435  0.00  0.00    +0.109 C 
ATOM     13  C19 UNL     1      -1.354   0.164  -1.512  0.00  0.00    +0.028 C 
ATOM     14  C20 UNL     1      -2.753   0.264  -0.894  0.00  0.00    +0.021 C 
ATOM     15  C21 UNL     1      -3.030  -0.928   0.070  0.00  0.00    +0.057 C 
ATOM     16  C27 UNL     1      -1.743  -1.286   0.888  0.00  0.00    +0.021 C 
ATOM     17  C28 UNL     1      -0.732  -0.136   0.967  0.00  0.00    +0.028 C 
BRANCH  15  18
ATOM     18  N4  UNL     1      -4.181  -0.693   0.997  0.00  0.00    -0.297 NA
ATOM     19  C22 UNL     1      -4.663  -1.956   1.627  0.00  0.00    +0.100 C 
ATOM     20  C23 UNL     1      -5.899  -2.562   0.929  0.00  0.00    +0.099 C 
ATOM     21  N5  UNL     1      -5.911  -2.182  -0.492  0.00  0.00    -0.303 NA
ATOM     22  C24 UNL     1      -6.968  -2.909  -1.212  0.00  0.00    +0.105 C 
ATOM     23  C25 UNL     1      -6.096  -0.724  -0.638  0.00  0.00    +0.099 C 
ATOM     24  C26 UNL     1      -5.324   0.069   0.440  0.00  0.00    +0.100 C 
ENDBRANCH  15  18
ENDBRANCH   5  12
BRANCH   1  27
ATOM     25  C8  UNL     1       3.127   0.290  -0.640  0.00  0.00    +0.249 C 
ATOM     26  O1  UNL     1       2.776   0.367  -1.849  0.00  0.00    -0.270 OA
ATOM     27  N1  UNL     1       2.589   1.219   0.315  0.00  0.00    -0.267 N 
ATOM     28  H10 UNL     1       3.159   1.451   1.160  0.00  0.00    +0.157 HD
BRANCH  25  32
ATOM     29  C4  UNL     1       5.997  -2.701   0.540  0.00  0.00    -0.045 A 
ATOM     30  C5  UNL     1       5.153  -2.108   1.496  0.00  0.00    +0.004 A 
ATOM     31  C6  UNL     1       4.218  -1.140   1.116  0.00  0.00    +0.013 A 
ATOM     32  C7  UNL     1       4.113  -0.738  -0.228  0.00  0.00    +0.037 A 
ATOM     33  C29 UNL     1       4.944  -1.344  -1.186  0.00  0.00    +0.013 A 
ATOM     34  C30 UNL     1       5.876  -2.314  -0.807  0.00  0.00    +0.004 A 
BRANCH  29  36
ATOM     35  C1  UNL     1       6.676  -5.112   0.331  0.00  0.00    +0.012 C 
ATOM     36  C2  UNL     1       7.002  -3.754   0.965  0.00  0.00    +0.013 C 
ATOM     37  C3  UNL     1       8.435  -3.323   0.630  0.00  0.00    +0.012 C 
ENDBRANCH  29  36
ENDBRANCH  25  32
ENDBRANCH   1  27
TORSDOF 6
