MODEL 1
REMARK VINA RESULT:    -6.004      0.000      0.000
REMARK INTER + INTRA:          -7.610
REMARK INTER:                  -7.232
REMARK INTRA:                  -0.378
REMARK UNBOUND:                -0.378
REMARK  Name = /home/qwerty/github/datacon2025hack/step_04_hit_selection/docking/ligands/lig_525.pdb
REMARK  4 active torsions:
REMARK  status: ('A' for Active; 'I' for Inactive)
REMARK    1  A    between atoms: C1_2  and  C9_16
REMARK    2  A    between atoms: N1_3  and  C2_4
REMARK    3  A    between atoms: C4_7  and  C5_9
REMARK    4  A    between atoms: C7_12  and  O3_13
REMARK                            x       y       z     vdW  Elec       q    Type
REMARK                         _______ _______ _______ _____ _____    ______ ____
ROOT
ATOM      1  O1  UNL     1       7.620   9.853  27.989  0.00  0.00    -0.270 OA
ATOM      2  C1  UNL     1       8.215  10.795  27.398  0.00  0.00    +0.248 C 
ATOM      3  N1  UNL     1       8.367  10.761  25.973  0.00  0.00    -0.305 N 
ATOM      4  H1  UNL     1       9.043  11.419  25.524  0.00  0.00    +0.149 HD
ENDROOT
BRANCH   2   5
ATOM      5  C9  UNL     1       8.787  11.892  28.197  0.00  0.00    +0.083 A 
ATOM      6  C10 UNL     1       8.156  12.572  29.235  0.00  0.00    +0.148 A 
ATOM      7  N4  UNL     1       8.983  13.515  29.741  0.00  0.00    -0.174 NA
ATOM      8  N5  UNL     1      10.106  13.452  29.045  0.00  0.00    -0.236 N 
ATOM      9  C11 UNL     1      11.196  14.242  29.204  0.00  0.00    +0.132 A 
ATOM     10  C12 UNL     1      12.274  14.049  28.327  0.00  0.00    +0.130 A 
ATOM     11  N6  UNL     1      12.186  13.098  27.349  0.00  0.00    -0.260 NA
ATOM     12  C13 UNL     1      11.080  12.312  27.207  0.00  0.00    +0.139 A 
ATOM     13  C14 UNL     1      10.027  12.498  28.105  0.00  0.00    +0.097 A 
ENDBRANCH   2   5
BRANCH   3  14
ATOM     14  C2  UNL     1       7.634   9.793  25.154  0.00  0.00    +0.108 C 
ATOM     15  C3  UNL     1       8.541   8.886  24.384  0.00  0.00    +0.132 C 
ATOM     16  N2  UNL     1       8.180   9.396  23.046  0.00  0.00    -0.293 N 
ATOM     17  C4  UNL     1       8.492   9.189  21.665  0.00  0.00    +0.266 C 
ATOM     18  O2  UNL     1       7.910   9.901  20.803  0.00  0.00    -0.268 OA
ATOM     19  C8  UNL     1       7.280  10.299  23.790  0.00  0.00    +0.132 C 
BRANCH  17  20
ATOM     20  C5  UNL     1       9.471   8.180  21.206  0.00  0.00    +0.137 A 
ATOM     21  C6  UNL     1      10.860   8.346  21.208  0.00  0.00    +0.083 A 
ATOM     22  S1  UNL     1      11.559   6.940  20.602  0.00  0.00    -0.037 S 
ATOM     23  C7  UNL     1      10.082   6.189  20.365  0.00  0.00    +0.254 A 
ATOM     24  N3  UNL     1       9.049   6.973  20.735  0.00  0.00    -0.201 NA
BRANCH  23  25
ATOM     25  O3  UNL     1       9.925   4.907  19.850  0.00  0.00    -0.487 OA
ATOM     26  H6  UNL     1      10.079   4.725  18.866  0.00  0.00    +0.294 HD
ENDBRANCH  23  25
ENDBRANCH  17  20
ENDBRANCH   3  14
TORSDOF 4
ENDMDL
MODEL 2
REMARK VINA RESULT:    -5.908      6.481     11.348
REMARK INTER + INTRA:          -7.495
REMARK INTER:                  -7.007
REMARK INTRA:                  -0.488
REMARK UNBOUND:                -0.378
REMARK  Name = /home/qwerty/github/datacon2025hack/step_04_hit_selection/docking/ligands/lig_525.pdb
REMARK  4 active torsions:
REMARK  status: ('A' for Active; 'I' for Inactive)
REMARK    1  A    between atoms: C1_2  and  C9_16
REMARK    2  A    between atoms: N1_3  and  C2_4
REMARK    3  A    between atoms: C4_7  and  C5_9
REMARK    4  A    between atoms: C7_12  and  O3_13
REMARK                            x       y       z     vdW  Elec       q    Type
REMARK                         _______ _______ _______ _____ _____    ______ ____
ROOT
ATOM      1  O1  UNL     1      11.630  14.842  28.773  0.00  0.00    -0.270 OA
ATOM      2  C1  UNL     1      11.539  13.655  29.187  0.00  0.00    +0.248 C 
ATOM      3  N1  UNL     1      12.087  13.299  30.463  0.00  0.00    -0.305 N 
ATOM      4  H1  UNL     1      12.203  12.287  30.695  0.00  0.00    +0.149 HD
ENDROOT
BRANCH   2   5
ATOM      5  C9  UNL     1      10.910  12.642  28.323  0.00  0.00    +0.083 A 
ATOM      6  C10 UNL     1      11.361  12.231  27.071  0.00  0.00    +0.148 A 
ATOM      7  N4  UNL     1      10.536  11.283  26.570  0.00  0.00    -0.174 NA
ATOM      8  N5  UNL     1       9.580  11.098  27.464  0.00  0.00    -0.236 N 
ATOM      9  C11 UNL     1       8.526  10.252  27.350  0.00  0.00    +0.132 A 
ATOM     10  C12 UNL     1       7.587  10.238  28.392  0.00  0.00    +0.130 A 
ATOM     11  N6  UNL     1       7.752  11.072  29.462  0.00  0.00    -0.260 NA
ATOM     12  C13 UNL     1       8.821  11.915  29.557  0.00  0.00    +0.139 A 
ATOM     13  C14 UNL     1       9.762  11.898  28.525  0.00  0.00    +0.097 A 
ENDBRANCH   2   5
BRANCH   3  14
ATOM     14  C2  UNL     1      12.527  14.324  31.413  0.00  0.00    +0.108 C 
ATOM     15  C3  UNL     1      13.418  13.773  32.482  0.00  0.00    +0.132 C 
ATOM     16  N2  UNL     1      12.477  13.988  33.600  0.00  0.00    -0.293 N 
ATOM     17  C4  UNL     1      12.382  13.793  35.014  0.00  0.00    +0.266 C 
ATOM     18  O2  UNL     1      11.320  14.139  35.600  0.00  0.00    -0.268 OA
ATOM     19  C8  UNL     1      11.585  14.533  32.558  0.00  0.00    +0.132 C 
BRANCH  17  20
ATOM     20  C5  UNL     1      13.471  13.200  35.819  0.00  0.00    +0.137 A 
ATOM     21  C6  UNL     1      13.553  11.856  36.197  0.00  0.00    +0.083 A 
ATOM     22  S1  UNL     1      14.961  11.646  37.097  0.00  0.00    -0.037 S 
ATOM     23  C7  UNL     1      15.401  13.257  36.967  0.00  0.00    +0.254 A 
ATOM     24  N3  UNL     1      14.507  13.971  36.253  0.00  0.00    -0.201 NA
BRANCH  23  25
ATOM     25  O3  UNL     1      16.550  13.804  37.525  0.00  0.00    -0.487 OA
ATOM     26  H6  UNL     1      17.031  14.570  37.068  0.00  0.00    +0.294 HD
ENDBRANCH  23  25
ENDBRANCH  17  20
ENDBRANCH   3  14
TORSDOF 4
ENDMDL
MODEL 3
REMARK VINA RESULT:    -5.884     13.700     15.980
REMARK INTER + INTRA:          -7.466
REMARK INTER:                  -7.128
REMARK INTRA:                  -0.339
REMARK UNBOUND:                -0.378
REMARK  Name = /home/qwerty/github/datacon2025hack/step_04_hit_selection/docking/ligands/lig_525.pdb
REMARK  4 active torsions:
REMARK  status: ('A' for Active; 'I' for Inactive)
REMARK    1  A    between atoms: C1_2  and  C9_16
REMARK    2  A    between atoms: N1_3  and  C2_4
REMARK    3  A    between atoms: C4_7  and  C5_9
REMARK    4  A    between atoms: C7_12  and  O3_13
REMARK                            x       y       z     vdW  Elec       q    Type
REMARK                         _______ _______ _______ _____ _____    ______ ____
ROOT
ATOM      1  O1  UNL     1      21.082   7.274  22.883  0.00  0.00    -0.270 OA
ATOM      2  C1  UNL     1      21.781   6.268  22.584  0.00  0.00    +0.248 C 
ATOM      3  N1  UNL     1      22.124   5.311  23.595  0.00  0.00    -0.305 N 
ATOM      4  H1  UNL     1      22.875   4.613  23.392  0.00  0.00    +0.149 HD
ENDROOT
BRANCH   2   5
ATOM      5  C9  UNL     1      22.275   6.124  21.204  0.00  0.00    +0.083 A 
ATOM      6  C10 UNL     1      21.701   5.350  20.200  0.00  0.00    +0.148 A 
ATOM      7  N4  UNL     1      22.422   5.461  19.060  0.00  0.00    -0.174 NA
ATOM      8  N5  UNL     1      23.433   6.271  19.326  0.00  0.00    -0.236 N 
ATOM      9  C11 UNL     1      24.418   6.634  18.469  0.00  0.00    +0.132 A 
ATOM     10  C12 UNL     1      25.434   7.468  18.959  0.00  0.00    +0.130 A 
ATOM     11  N6  UNL     1      25.407   7.868  20.266  0.00  0.00    -0.260 NA
ATOM     12  C13 UNL     1      24.404   7.492  21.112  0.00  0.00    +0.139 A 
ATOM     13  C14 UNL     1      23.386   6.685  20.601  0.00  0.00    +0.097 A 
ENDBRANCH   2   5
BRANCH   3  14
ATOM     14  C2  UNL     1      21.477   5.330  24.909  0.00  0.00    +0.108 C 
ATOM     15  C3  UNL     1      22.132   4.405  25.887  0.00  0.00    +0.132 C 
ATOM     16  N2  UNL     1      20.998   3.466  26.003  0.00  0.00    -0.293 N 
ATOM     17  C4  UNL     1      20.630   2.260  26.678  0.00  0.00    +0.266 C 
ATOM     18  O2  UNL     1      19.488   1.773  26.461  0.00  0.00    -0.268 OA
ATOM     19  C8  UNL     1      20.338   4.367  25.038  0.00  0.00    +0.132 C 
BRANCH  17  20
ATOM     20  C5  UNL     1      21.531   1.556  27.615  0.00  0.00    +0.137 A 
ATOM     21  C6  UNL     1      22.415   2.179  28.503  0.00  0.00    +0.083 A 
ATOM     22  S1  UNL     1      23.228   0.982  29.364  0.00  0.00    -0.037 S 
ATOM     23  C7  UNL     1      22.429  -0.263  28.579  0.00  0.00    +0.254 A 
ATOM     24  N3  UNL     1      21.547   0.195  27.668  0.00  0.00    -0.201 NA
BRANCH  23  25
ATOM     25  O3  UNL     1      22.640  -1.614  28.831  0.00  0.00    -0.487 OA
ATOM     26  H6  UNL     1      23.567  -1.959  29.048  0.00  0.00    +0.294 HD
ENDBRANCH  23  25
ENDBRANCH  17  20
ENDBRANCH   3  14
TORSDOF 4
ENDMDL
MODEL 4
REMARK VINA RESULT:    -5.784     13.427     14.904
REMARK INTER + INTRA:          -7.345
REMARK INTER:                  -6.878
REMARK INTRA:                  -0.467
REMARK UNBOUND:                -0.378
REMARK  Name = /home/qwerty/github/datacon2025hack/step_04_hit_selection/docking/ligands/lig_525.pdb
REMARK  4 active torsions:
REMARK  status: ('A' for Active; 'I' for Inactive)
REMARK    1  A    between atoms: C1_2  and  C9_16
REMARK    2  A    between atoms: N1_3  and  C2_4
REMARK    3  A    between atoms: C4_7  and  C5_9
REMARK    4  A    between atoms: C7_12  and  O3_13
REMARK                            x       y       z     vdW  Elec       q    Type
REMARK                         _______ _______ _______ _____ _____    ______ ____
ROOT
ATOM      1  O1  UNL     1      22.407  13.259  20.544  0.00  0.00    -0.270 OA
ATOM      2  C1  UNL     1      23.484  13.174  21.193  0.00  0.00    +0.248 C 
ATOM      3  N1  UNL     1      24.311  12.011  21.056  0.00  0.00    -0.305 N 
ATOM      4  H1  UNL     1      25.074  11.851  21.752  0.00  0.00    +0.149 HD
ENDROOT
BRANCH   2   5
ATOM      5  C9  UNL     1      23.847  14.257  22.122  0.00  0.00    +0.083 A 
ATOM      6  C10 UNL     1      24.656  15.353  21.835  0.00  0.00    +0.148 A 
ATOM      7  N4  UNL     1      24.768  16.145  22.926  0.00  0.00    -0.174 NA
ATOM      8  N5  UNL     1      24.064  15.572  23.888  0.00  0.00    -0.236 N 
ATOM      9  C11 UNL     1      23.928  16.018  25.160  0.00  0.00    +0.132 A 
ATOM     10  C12 UNL     1      23.176  15.236  26.049  0.00  0.00    +0.130 A 
ATOM     11  N6  UNL     1      22.627  14.061  25.615  0.00  0.00    -0.260 NA
ATOM     12  C13 UNL     1      22.775  13.630  24.329  0.00  0.00    +0.139 A 
ATOM     13  C14 UNL     1      23.503  14.434  23.450  0.00  0.00    +0.097 A 
ENDBRANCH   2   5
BRANCH   3  14
ATOM     14  C2  UNL     1      24.071  11.030  19.994  0.00  0.00    +0.108 C 
ATOM     15  C3  UNL     1      23.136   9.941  20.418  0.00  0.00    +0.132 C 
ATOM     16  N2  UNL     1      24.133   8.852  20.382  0.00  0.00    -0.293 N 
ATOM     17  C4  UNL     1      24.238   7.444  20.620  0.00  0.00    +0.266 C 
ATOM     18  O2  UNL     1      25.359   6.889  20.462  0.00  0.00    -0.268 OA
ATOM     19  C8  UNL     1      25.069   9.913  19.965  0.00  0.00    +0.132 C 
BRANCH  17  20
ATOM     20  C5  UNL     1      23.092   6.614  21.047  0.00  0.00    +0.137 A 
ATOM     21  C6  UNL     1      22.226   5.932  20.186  0.00  0.00    +0.083 A 
ATOM     22  S1  UNL     1      21.082   5.124  21.120  0.00  0.00    -0.037 S 
ATOM     23  C7  UNL     1      21.731   5.670  22.564  0.00  0.00    +0.254 A 
ATOM     24  N3  UNL     1      22.807   6.459  22.371  0.00  0.00    -0.201 NA
BRANCH  23  25
ATOM     25  O3  UNL     1      21.229   5.352  23.821  0.00  0.00    -0.487 OA
ATOM     26  H6  UNL     1      21.469   5.913  24.629  0.00  0.00    +0.294 HD
ENDBRANCH  23  25
ENDBRANCH  17  20
ENDBRANCH   3  14
TORSDOF 4
ENDMDL
MODEL 5
REMARK VINA RESULT:    -5.765      6.008      8.999
REMARK INTER + INTRA:          -7.322
REMARK INTER:                  -7.093
REMARK INTRA:                  -0.230
REMARK UNBOUND:                -0.378
REMARK  Name = /home/qwerty/github/datacon2025hack/step_04_hit_selection/docking/ligands/lig_525.pdb
REMARK  4 active torsions:
REMARK  status: ('A' for Active; 'I' for Inactive)
REMARK    1  A    between atoms: C1_2  and  C9_16
REMARK    2  A    between atoms: N1_3  and  C2_4
REMARK    3  A    between atoms: C4_7  and  C5_9
REMARK    4  A    between atoms: C7_12  and  O3_13
REMARK                            x       y       z     vdW  Elec       q    Type
REMARK                         _______ _______ _______ _____ _____    ______ ____
ROOT
ATOM      1  O1  UNL     1      15.561  15.786  27.841  0.00  0.00    -0.270 OA
ATOM      2  C1  UNL     1      15.282  14.945  28.738  0.00  0.00    +0.248 C 
ATOM      3  N1  UNL     1      13.984  14.337  28.770  0.00  0.00    -0.305 N 
ATOM      4  H1  UNL     1      13.691  13.821  29.629  0.00  0.00    +0.149 HD
ENDROOT
BRANCH   2   5
ATOM      5  C9  UNL     1      16.287  14.640  29.771  0.00  0.00    +0.083 A 
ATOM      6  C10 UNL     1      16.333  13.498  30.566  0.00  0.00    +0.148 A 
ATOM      7  N4  UNL     1      17.396  13.557  31.400  0.00  0.00    -0.174 NA
ATOM      8  N5  UNL     1      18.008  14.704  31.159  0.00  0.00    -0.236 N 
ATOM      9  C11 UNL     1      19.108  15.178  31.794  0.00  0.00    +0.132 A 
ATOM     10  C12 UNL     1      19.578  16.447  31.424  0.00  0.00    +0.130 A 
ATOM     11  N6  UNL     1      18.916  17.159  30.464  0.00  0.00    -0.260 NA
ATOM     12  C13 UNL     1      17.811  16.663  29.835  0.00  0.00    +0.139 A 
ATOM     13  C14 UNL     1      17.372  15.387  30.195  0.00  0.00    +0.097 A 
ENDBRANCH   2   5
BRANCH   3  14
ATOM     14  C2  UNL     1      13.056  14.472  27.644  0.00  0.00    +0.108 C 
ATOM     15  C3  UNL     1      11.679  14.866  28.078  0.00  0.00    +0.132 C 
ATOM     16  N2  UNL     1      11.023  13.600  27.696  0.00  0.00    -0.293 N 
ATOM     17  C4  UNL     1       9.733  12.979  27.706  0.00  0.00    +0.266 C 
ATOM     18  O2  UNL     1       9.627  11.805  27.258  0.00  0.00    -0.268 OA
ATOM     19  C8  UNL     1      12.374  13.194  27.265  0.00  0.00    +0.132 C 
BRANCH  17  20
ATOM     20  C5  UNL     1       8.522  13.651  28.222  0.00  0.00    +0.137 A 
ATOM     21  C6  UNL     1       8.096  13.633  29.554  0.00  0.00    +0.083 A 
ATOM     22  S1  UNL     1       6.677  14.532  29.666  0.00  0.00    -0.037 S 
ATOM     23  C7  UNL     1       6.666  14.902  28.033  0.00  0.00    +0.254 A 
ATOM     24  N3  UNL     1       7.717  14.363  27.383  0.00  0.00    -0.201 NA
BRANCH  23  25
ATOM     25  O3  UNL     1       5.693  15.675  27.409  0.00  0.00    -0.487 OA
ATOM     26  H6  UNL     1       5.227  16.420  27.912  0.00  0.00    +0.294 HD
ENDBRANCH  23  25
ENDBRANCH  17  20
ENDBRANCH   3  14
TORSDOF 4
ENDMDL
MODEL 6
REMARK VINA RESULT:    -5.665     14.778     15.708
REMARK INTER + INTRA:          -7.202
REMARK INTER:                  -6.753
REMARK INTRA:                  -0.449
REMARK UNBOUND:                -0.378
REMARK  Name = /home/qwerty/github/datacon2025hack/step_04_hit_selection/docking/ligands/lig_525.pdb
REMARK  4 active torsions:
REMARK  status: ('A' for Active; 'I' for Inactive)
REMARK    1  A    between atoms: C1_2  and  C9_16
REMARK    2  A    between atoms: N1_3  and  C2_4
REMARK    3  A    between atoms: C4_7  and  C5_9
REMARK    4  A    between atoms: C7_12  and  O3_13
REMARK                            x       y       z     vdW  Elec       q    Type
REMARK                         _______ _______ _______ _____ _____    ______ ____
ROOT
ATOM      1  O1  UNL     1      23.118   5.798  35.475  0.00  0.00    -0.270 OA
ATOM      2  C1  UNL     1      22.056   6.059  34.848  0.00  0.00    +0.248 C 
ATOM      3  N1  UNL     1      21.514   5.101  33.930  0.00  0.00    -0.305 N 
ATOM      4  H1  UNL     1      20.773   5.409  33.261  0.00  0.00    +0.149 HD
ENDROOT
BRANCH   2   5
ATOM      5  C9  UNL     1      21.418   7.373  35.038  0.00  0.00    +0.083 A 
ATOM      6  C10 UNL     1      21.633   8.513  34.269  0.00  0.00    +0.148 A 
ATOM      7  N4  UNL     1      20.874   9.533  34.731  0.00  0.00    -0.174 NA
ATOM      8  N5  UNL     1      20.200   9.068  35.769  0.00  0.00    -0.236 N 
ATOM      9  C11 UNL     1      19.339   9.768  36.548  0.00  0.00    +0.132 A 
ATOM     10  C12 UNL     1      18.760   9.104  37.639  0.00  0.00    +0.130 A 
ATOM     11  N6  UNL     1      19.088   7.801  37.887  0.00  0.00    -0.260 NA
ATOM     12  C13 UNL     1      19.956   7.114  37.090  0.00  0.00    +0.139 A 
ATOM     13  C14 UNL     1      20.503   7.780  35.992  0.00  0.00    +0.097 A 
ENDBRANCH   2   5
BRANCH   3  14
ATOM     14  C2  UNL     1      22.016   3.725  33.884  0.00  0.00    +0.108 C 
ATOM     15  C3  UNL     1      22.242   3.241  32.486  0.00  0.00    +0.132 C 
ATOM     16  N2  UNL     1      21.174   2.220  32.497  0.00  0.00    -0.293 N 
ATOM     17  C4  UNL     1      20.585   1.232  31.647  0.00  0.00    +0.266 C 
ATOM     18  O2  UNL     1      19.628   0.545  32.096  0.00  0.00    -0.268 OA
ATOM     19  C8  UNL     1      20.938   2.686  33.877  0.00  0.00    +0.132 C 
BRANCH  17  20
ATOM     20  C5  UNL     1      21.045   0.984  30.264  0.00  0.00    +0.137 A 
ATOM     21  C6  UNL     1      20.959   1.899  29.210  0.00  0.00    +0.083 A 
ATOM     22  S1  UNL     1      21.607   1.180  27.833  0.00  0.00    -0.037 S 
ATOM     23  C7  UNL     1      21.966  -0.249  28.628  0.00  0.00    +0.254 A 
ATOM     24  N3  UNL     1      21.610  -0.210  29.928  0.00  0.00    -0.201 NA
BRANCH  23  25
ATOM     25  O3  UNL     1      22.563  -1.352  28.029  0.00  0.00    -0.487 OA
ATOM     26  H6  UNL     1      22.924  -2.112  28.593  0.00  0.00    +0.294 HD
ENDBRANCH  23  25
ENDBRANCH  17  20
ENDBRANCH   3  14
TORSDOF 4
ENDMDL
MODEL 7
REMARK VINA RESULT:    -5.540     12.071     13.629
REMARK INTER + INTRA:          -7.052
REMARK INTER:                  -6.623
REMARK INTRA:                  -0.429
REMARK UNBOUND:                -0.378
REMARK  Name = /home/qwerty/github/datacon2025hack/step_04_hit_selection/docking/ligands/lig_525.pdb
REMARK  4 active torsions:
REMARK  status: ('A' for Active; 'I' for Inactive)
REMARK    1  A    between atoms: C1_2  and  C9_16
REMARK    2  A    between atoms: N1_3  and  C2_4
REMARK    3  A    between atoms: C4_7  and  C5_9
REMARK    4  A    between atoms: C7_12  and  O3_13
REMARK                            x       y       z     vdW  Elec       q    Type
REMARK                         _______ _______ _______ _____ _____    ______ ____
ROOT
ATOM      1  O1  UNL     1      21.410   2.354  25.079  0.00  0.00    -0.270 OA
ATOM      2  C1  UNL     1      20.693   2.064  26.075  0.00  0.00    +0.248 C 
ATOM      3  N1  UNL     1      19.635   1.106  25.939  0.00  0.00    -0.305 N 
ATOM      4  H1  UNL     1      18.917   1.040  26.695  0.00  0.00    +0.149 HD
ENDROOT
BRANCH   2   5
ATOM      5  C9  UNL     1      20.929   2.758  27.352  0.00  0.00    +0.083 A 
ATOM      6  C10 UNL     1      21.056   4.133  27.532  0.00  0.00    +0.148 A 
ATOM      7  N4  UNL     1      21.262   4.411  28.840  0.00  0.00    -0.174 NA
ATOM      8  N5  UNL     1      21.277   3.254  29.479  0.00  0.00    -0.236 N 
ATOM      9  C11 UNL     1      21.484   3.071  30.806  0.00  0.00    +0.132 A 
ATOM     10  C12 UNL     1      21.514   1.753  31.286  0.00  0.00    +0.130 A 
ATOM     11  N6  UNL     1      21.352   0.714  30.413  0.00  0.00    -0.260 NA
ATOM     12  C13 UNL     1      21.144   0.920  29.081  0.00  0.00    +0.139 A 
ATOM     13  C14 UNL     1      21.090   2.237  28.623  0.00  0.00    +0.097 A 
ENDBRANCH   2   5
BRANCH   3  14
ATOM     14  C2  UNL     1      19.521   0.265  24.745  0.00  0.00    +0.108 C 
ATOM     15  C3  UNL     1      18.480   0.759  23.790  0.00  0.00    +0.132 C 
ATOM     16  N2  UNL     1      17.558  -0.382  23.955  0.00  0.00    -0.293 N 
ATOM     17  C4  UNL     1      16.291  -0.854  23.485  0.00  0.00    +0.266 C 
ATOM     18  O2  UNL     1      15.856  -1.951  23.928  0.00  0.00    -0.268 OA
ATOM     19  C8  UNL     1      18.574  -0.884  24.901  0.00  0.00    +0.132 C 
BRANCH  17  20
ATOM     20  C5  UNL     1      15.469  -0.110  22.508  0.00  0.00    +0.137 A 
ATOM     21  C6  UNL     1      14.158   0.326  22.724  0.00  0.00    +0.083 A 
ATOM     22  S1  UNL     1      13.633   1.127  21.339  0.00  0.00    -0.037 S 
ATOM     23  C7  UNL     1      15.081   0.887  20.532  0.00  0.00    +0.254 A 
ATOM     24  N3  UNL     1      15.974   0.210  21.283  0.00  0.00    -0.201 NA
BRANCH  23  25
ATOM     25  O3  UNL     1      15.344   1.331  19.242  0.00  0.00    -0.487 OA
ATOM     26  H6  UNL     1      14.608   1.358  18.546  0.00  0.00    +0.294 HD
ENDBRANCH  23  25
ENDBRANCH  17  20
ENDBRANCH   3  14
TORSDOF 4
ENDMDL
MODEL 8
REMARK VINA RESULT:    -5.436      1.849      2.062
REMARK INTER + INTRA:          -6.927
REMARK INTER:                  -6.478
REMARK INTRA:                  -0.448
REMARK UNBOUND:                -0.378
REMARK  Name = /home/qwerty/github/datacon2025hack/step_04_hit_selection/docking/ligands/lig_525.pdb
REMARK  4 active torsions:
REMARK  status: ('A' for Active; 'I' for Inactive)
REMARK    1  A    between atoms: C1_2  and  C9_16
REMARK    2  A    between atoms: N1_3  and  C2_4
REMARK    3  A    between atoms: C4_7  and  C5_9
REMARK    4  A    between atoms: C7_12  and  O3_13
REMARK                            x       y       z     vdW  Elec       q    Type
REMARK                         _______ _______ _______ _____ _____    ______ ____
ROOT
ATOM      1  O1  UNL     1       7.880  10.422  29.052  0.00  0.00    -0.270 OA
ATOM      2  C1  UNL     1       9.058  10.563  28.624  0.00  0.00    +0.248 C 
ATOM      3  N1  UNL     1       9.477   9.869  27.442  0.00  0.00    -0.305 N 
ATOM      4  H1  UNL     1      10.497   9.816  27.225  0.00  0.00    +0.149 HD
ENDROOT
BRANCH   2   5
ATOM      5  C9  UNL     1       9.997  11.406  29.382  0.00  0.00    +0.083 A 
ATOM      6  C10 UNL     1      10.430  11.190  30.688  0.00  0.00    +0.148 A 
ATOM      7  N4  UNL     1      11.294  12.165  31.057  0.00  0.00    -0.174 NA
ATOM      8  N5  UNL     1      11.404  12.987  30.027  0.00  0.00    -0.236 N 
ATOM      9  C11 UNL     1      12.150  14.118  29.978  0.00  0.00    +0.132 A 
ATOM     10  C12 UNL     1      12.094  14.885  28.805  0.00  0.00    +0.130 A 
ATOM     11  N6  UNL     1      11.292  14.483  27.773  0.00  0.00    -0.260 NA
ATOM     12  C13 UNL     1      10.550  13.340  27.843  0.00  0.00    +0.139 A 
ATOM     13  C14 UNL     1      10.638  12.573  29.006  0.00  0.00    +0.097 A 
ENDBRANCH   2   5
BRANCH   3  14
ATOM     14  C2  UNL     1       8.507   9.199  26.572  0.00  0.00    +0.108 C 
ATOM     15  C3  UNL     1       9.134   8.647  25.330  0.00  0.00    +0.132 C 
ATOM     16  N2  UNL     1       8.452   9.559  24.389  0.00  0.00    -0.293 N 
ATOM     17  C4  UNL     1       8.376   9.843  22.988  0.00  0.00    +0.266 C 
ATOM     18  O2  UNL     1       7.619  10.775  22.604  0.00  0.00    -0.268 OA
ATOM     19  C8  UNL     1       7.826  10.116  25.603  0.00  0.00    +0.132 C 
BRANCH  17  20
ATOM     20  C5  UNL     1       9.148   9.096  21.974  0.00  0.00    +0.137 A 
ATOM     21  C6  UNL     1       9.193   7.702  21.861  0.00  0.00    +0.083 A 
ATOM     22  S1  UNL     1      10.194   7.310  20.565  0.00  0.00    -0.037 S 
ATOM     23  C7  UNL     1      10.523   8.912  20.207  0.00  0.00    +0.254 A 
ATOM     24  N3  UNL     1       9.893   9.760  21.045  0.00  0.00    -0.201 NA
BRANCH  23  25
ATOM     25  O3  UNL     1      11.347   9.332  19.169  0.00  0.00    -0.487 OA
ATOM     26  H6  UNL     1      11.002   9.970  18.463  0.00  0.00    +0.294 HD
ENDBRANCH  23  25
ENDBRANCH  17  20
ENDBRANCH   3  14
TORSDOF 4
ENDMDL
MODEL 9
REMARK VINA RESULT:    -5.419      6.618     11.159
REMARK INTER + INTRA:          -6.906
REMARK INTER:                  -6.604
REMARK INTRA:                  -0.302
REMARK UNBOUND:                -0.378
REMARK  Name = /home/qwerty/github/datacon2025hack/step_04_hit_selection/docking/ligands/lig_525.pdb
REMARK  4 active torsions:
REMARK  status: ('A' for Active; 'I' for Inactive)
REMARK    1  A    between atoms: C1_2  and  C9_16
REMARK    2  A    between atoms: N1_3  and  C2_4
REMARK    3  A    between atoms: C4_7  and  C5_9
REMARK    4  A    between atoms: C7_12  and  O3_13
REMARK                            x       y       z     vdW  Elec       q    Type
REMARK                         _______ _______ _______ _____ _____    ______ ____
ROOT
ATOM      1  O1  UNL     1      13.777   1.075  20.611  0.00  0.00    -0.270 OA
ATOM      2  C1  UNL     1      13.575   1.392  21.815  0.00  0.00    +0.248 C 
ATOM      3  N1  UNL     1      13.067   2.694  22.135  0.00  0.00    -0.305 N 
ATOM      4  H1  UNL     1      13.114   3.022  23.126  0.00  0.00    +0.149 HD
ENDROOT
BRANCH   2   5
ATOM      5  C9  UNL     1      13.916   0.429  22.875  0.00  0.00    +0.083 A 
ATOM      6  C10 UNL     1      13.220   0.232  24.065  0.00  0.00    +0.148 A 
ATOM      7  N4  UNL     1      13.818  -0.737  24.796  0.00  0.00    -0.174 NA
ATOM      8  N5  UNL     1      14.870  -1.142  24.105  0.00  0.00    -0.236 N 
ATOM      9  C11 UNL     1      15.767  -2.084  24.486  0.00  0.00    +0.132 A 
ATOM     10  C12 UNL     1      16.849  -2.337  23.630  0.00  0.00    +0.130 A 
ATOM     11  N6  UNL     1      16.970  -1.629  22.467  0.00  0.00    -0.260 NA
ATOM     12  C13 UNL     1      16.055  -0.685  22.102  0.00  0.00    +0.139 A 
ATOM     13  C14 UNL     1      14.969  -0.464  22.952  0.00  0.00    +0.097 A 
ENDBRANCH   2   5
BRANCH   3  14
ATOM     14  C2  UNL     1      12.535   3.579  21.095  0.00  0.00    +0.108 C 
ATOM     15  C3  UNL     1      11.938   4.831  21.655  0.00  0.00    +0.132 C 
ATOM     16  N2  UNL     1      10.544   4.527  21.274  0.00  0.00    -0.293 N 
ATOM     17  C4  UNL     1       9.230   5.086  21.361  0.00  0.00    +0.266 C 
ATOM     18  O2  UNL     1       8.265   4.436  20.875  0.00  0.00    -0.268 OA
ATOM     19  C8  UNL     1      11.116   3.286  20.718  0.00  0.00    +0.132 C 
BRANCH  17  20
ATOM     20  C5  UNL     1       8.952   6.390  22.001  0.00  0.00    +0.137 A 
ATOM     21  C6  UNL     1       9.263   6.720  23.325  0.00  0.00    +0.083 A 
ATOM     22  S1  UNL     1       8.765   8.304  23.604  0.00  0.00    -0.037 S 
ATOM     23  C7  UNL     1       8.183   8.500  22.046  0.00  0.00    +0.254 A 
ATOM     24  N3  UNL     1       8.352   7.390  21.298  0.00  0.00    -0.201 NA
BRANCH  23  25
ATOM     25  O3  UNL     1       7.594   9.665  21.568  0.00  0.00    -0.487 OA
ATOM     26  H6  UNL     1       7.621  10.517  22.114  0.00  0.00    +0.294 HD
ENDBRANCH  23  25
ENDBRANCH  17  20
ENDBRANCH   3  14
TORSDOF 4
ENDMDL
