REMARK  Name = /home/qwerty/github/datacon2025hack/step_04_hit_selection/docking/ligands/lig_725.pdb
REMARK  5 active torsions:
REMARK  status: ('A' for Active; 'I' for Inactive)
REMARK    1  A    between atoms: C1_1  and  C2_2
REMARK    2  A    between atoms: C2_2  and  N1_3
REMARK    3  A    between atoms: C2_2  and  C15_18
REMARK    4  A    between atoms: C3_4  and  C4_6
REMARK    5  A    between atoms: C9_11  and  C10_12
REMARK                            x       y       z     vdW  Elec       q    Type
REMARK                         _______ _______ _______ _____ _____    ______ ____
ROOT
ATOM      1  N1  UNL     1      -0.696  -0.525   0.688  0.00  0.00    -0.305 N 
ATOM      2  C3  UNL     1       0.216  -1.536   1.144  0.00  0.00    +0.245 C 
ATOM      3  O1  UNL     1      -0.202  -2.704   1.375  0.00  0.00    -0.270 OA
ATOM      4  H5  UNL     1      -0.381   0.471   0.729  0.00  0.00    +0.150 HD
ENDROOT
BRANCH   2   5
ATOM      5  C4  UNL     1       1.638  -1.210   1.404  0.00  0.00    +0.044 A 
ATOM      6  C5  UNL     1       2.243  -1.730   2.562  0.00  0.00    +0.013 A 
ATOM      7  C6  UNL     1       3.557  -1.393   2.892  0.00  0.00    +0.001 A 
ATOM      8  C7  UNL     1       4.286  -0.536   2.071  0.00  0.00    +0.001 A 
ATOM      9  C8  UNL     1       3.712  -0.026   0.905  0.00  0.00    +0.009 A 
ATOM     10  C9  UNL     1       2.395  -0.366   0.548  0.00  0.00    -0.004 A 
BRANCH  10  11
ATOM     11  C10 UNL     1       1.871   0.123  -0.749  0.00  0.00    +0.001 A 
ATOM     12  C11 UNL     1       1.851   1.495  -1.039  0.00  0.00    +0.011 A 
ATOM     13  C12 UNL     1       1.355   1.943  -2.265  0.00  0.00    +0.020 A 
ATOM     14  C13 UNL     1       0.894   1.012  -3.197  0.00  0.00    +0.111 A 
ATOM     15  N2  UNL     1       0.932  -0.316  -2.909  0.00  0.00    -0.263 NA
ATOM     16  C14 UNL     1       1.405  -0.777  -1.721  0.00  0.00    +0.119 A 
ENDBRANCH  10  11
ENDBRANCH   2   5
BRANCH   1  18
ATOM     17  C1  UNL     1      -2.088  -1.610  -1.038  0.00  0.00    +0.033 C 
ATOM     18  C2  UNL     1      -2.074  -0.831   0.282  0.00  0.00    +0.103 C 
BRANCH  18  19
ATOM     19  C15 UNL     1      -2.887   0.442   0.150  0.00  0.00    +0.009 A 
ATOM     20  C16 UNL     1      -4.067   0.621   0.885  0.00  0.00    +0.119 A 
ATOM     21  N3  UNL     1      -4.789   1.764   0.749  0.00  0.00    -0.243 NA
ATOM     22  C17 UNL     1      -4.387   2.748  -0.096  0.00  0.00    +0.221 A 
ATOM     23  N4  UNL     1      -3.250   2.599  -0.823  0.00  0.00    -0.243 NA
ATOM     24  C18 UNL     1      -2.498   1.473  -0.719  0.00  0.00    +0.119 A 
ENDBRANCH  18  19
ENDBRANCH   1  18
TORSDOF 4
