REMARK  Name = /home/qwerty/github/datacon2025hack/step_04_hit_selection/docking/ligands/lig_87.pdb
REMARK  5 active torsions:
REMARK  status: ('A' for Active; 'I' for Inactive)
REMARK    1  A    between atoms: C1_1  and  C2_2
REMARK    2  A    between atoms: C6_8  and  C7_10
REMARK    3  A    between atoms: C11_14  and  C12_15
REMARK    4  A    between atoms: C12_15  and  N3_16
REMARK    5  A    between atoms: C19_24  and  C20_25
REMARK                            x       y       z     vdW  Elec       q    Type
REMARK                         _______ _______ _______ _____ _____    ______ ____
ROOT
ATOM      1  C1  UNL     1      -7.133  -3.296   0.561  0.00  0.00    +0.067 C 
ATOM      2  C2  UNL     1      -5.848  -2.541   0.575  0.00  0.00    +0.063 A 
ATOM      3  C3  UNL     1      -4.665  -2.972   1.170  0.00  0.00    +0.073 A 
ATOM      4  C4  UNL     1      -3.785  -1.966   0.855  0.00  0.00    +0.158 A 
ATOM      5  N1  UNL     1      -2.485  -1.858   1.213  0.00  0.00    -0.213 NA
ATOM      6  C5  UNL     1      -1.775  -0.758   0.820  0.00  0.00    +0.130 A 
ATOM      7  N2  UNL     1      -0.387  -0.619   1.169  0.00  0.00    -0.266 N 
ATOM      8  C6  UNL     1       0.308  -1.502   2.068  0.00  0.00    +0.249 C 
ATOM      9  O1  UNL     1      -0.345  -2.266   2.831  0.00  0.00    -0.270 OA
ATOM     10  C18 UNL     1      -2.403   0.242   0.042  0.00  0.00    +0.072 A 
ATOM     11  C19 UNL     1      -3.756   0.090  -0.318  0.00  0.00    +0.078 A 
ATOM     12  N4  UNL     1      -4.396  -1.030   0.119  0.00  0.00    -0.214 N 
ATOM     13  N5  UNL     1      -5.663  -1.361  -0.065  0.00  0.00    -0.170 NA
ATOM     14  H5  UNL     1       0.136   0.195   0.773  0.00  0.00    +0.157 HD
ENDROOT
BRANCH   8  15
ATOM     15  C7  UNL     1       1.789  -1.500   2.140  0.00  0.00    +0.037 A 
ATOM     16  C8  UNL     1       2.438  -1.925   3.312  0.00  0.00    +0.013 A 
ATOM     17  C9  UNL     1       3.832  -1.915   3.393  0.00  0.00    +0.001 A 
ATOM     18  C10 UNL     1       4.596  -1.493   2.304  0.00  0.00    +0.005 A 
ATOM     19  C11 UNL     1       3.968  -1.086   1.118  0.00  0.00    -0.033 A 
ATOM     20  C17 UNL     1       2.566  -1.094   1.039  0.00  0.00    +0.018 A 
BRANCH  19  21
ATOM     21  C12 UNL     1       4.800  -0.629  -0.053  0.00  0.00    +0.119 C 
BRANCH  21  22
ATOM     22  N3  UNL     1       5.473   0.648   0.259  0.00  0.00    -0.294 NA
ATOM     23  C13 UNL     1       6.655   0.838  -0.610  0.00  0.00    +0.113 C 
ATOM     24  C14 UNL     1       7.030   2.326  -0.713  0.00  0.00    +0.175 C 
ATOM     25  O2  UNL     1       6.006   3.136  -1.276  0.00  0.00    -0.377 OA
ATOM     26  C15 UNL     1       4.696   2.617  -1.085  0.00  0.00    +0.175 C 
ATOM     27  C16 UNL     1       4.540   1.802   0.212  0.00  0.00    +0.113 C 
ENDBRANCH  21  22
ENDBRANCH  19  21
ENDBRANCH   8  15
BRANCH  11  28
ATOM     28  C20 UNL     1      -4.443   1.107  -1.148  0.00  0.00    +0.001 A 
ATOM     29  C21 UNL     1      -4.281   2.477  -0.872  0.00  0.00    +0.010 A 
ATOM     30  C22 UNL     1      -4.920   3.437  -1.663  0.00  0.00    +0.001 A 
ATOM     31  C23 UNL     1      -5.719   3.040  -2.738  0.00  0.00    +0.000 A 
ATOM     32  C24 UNL     1      -5.882   1.682  -3.024  0.00  0.00    +0.001 A 
ATOM     33  C25 UNL     1      -5.247   0.719  -2.235  0.00  0.00    +0.010 A 
ENDBRANCH  11  28
TORSDOF 4
