REMARK  Name = /home/qwerty/github/datacon2025hack/step_04_hit_selection/docking/ligands/lig_504.pdb
REMARK  6 active torsions:
REMARK  status: ('A' for Active; 'I' for Inactive)
REMARK    1  A    between atoms: C1_1  and  C2_2
REMARK    2  A    between atoms: C2_2  and  C3_3
REMARK    3  A    between atoms: C2_2  and  C4_4
REMARK    4  A    between atoms: C5_6  and  C6_7
REMARK    5  A    between atoms: C9_12  and  C10_13
REMARK    6  A    between atoms: C14_19  and  C15_20
REMARK                            x       y       z     vdW  Elec       q    Type
REMARK                         _______ _______ _______ _____ _____    ______ ____
ROOT
ATOM      1  C6  UNL     1       3.640   2.797  -0.501  0.00  0.00    +0.265 C 
ATOM      2  O1  UNL     1       3.881   4.035  -0.514  0.00  0.00    -0.268 OA
ATOM      3  N2  UNL     1       2.277   2.339  -0.465  0.00  0.00    -0.296 N 
ATOM      4  C7  UNL     1       1.791   1.382  -1.467  0.00  0.00    +0.109 C 
ATOM      5  C8  UNL     1       0.812   0.401  -0.819  0.00  0.00    +0.032 C 
ATOM      6  C9  UNL     1      -0.313   1.162  -0.092  0.00  0.00    +0.078 C 
ATOM      7  C19 UNL     1       0.280   2.127   0.952  0.00  0.00    +0.032 C 
ATOM      8  C20 UNL     1       1.279   3.091   0.304  0.00  0.00    +0.109 C 
ENDROOT
BRANCH   6   9
ATOM      9  C10 UNL     1      -1.271   0.195   0.569  0.00  0.00    +0.219 C 
ATOM     10  O2  UNL     1      -0.807  -0.701   1.327  0.00  0.00    -0.275 OA
ATOM     11  N3  UNL     1      -2.697   0.272   0.358  0.00  0.00    -0.301 N 
ATOM     12  C11 UNL     1      -3.346   1.540  -0.013  0.00  0.00    +0.108 C 
ATOM     13  C12 UNL     1      -4.766   1.609   0.561  0.00  0.00    +0.020 C 
ATOM     14  C13 UNL     1      -5.639   0.406   0.150  0.00  0.00    +0.014 C 
ATOM     15  C14 UNL     1      -4.822  -0.840  -0.255  0.00  0.00    +0.072 C 
ATOM     16  C18 UNL     1      -3.509  -0.941   0.540  0.00  0.00    +0.119 C 
BRANCH  15  17
ATOM     17  C15 UNL     1      -5.646  -2.090  -0.105  0.00  0.00    +0.112 A 
ATOM     18  N4  UNL     1      -5.923  -2.664   1.087  0.00  0.00    -0.240 NA
ATOM     19  C16 UNL     1      -6.709  -3.712   0.770  0.00  0.00    +0.130 A 
ATOM     20  C17 UNL     1      -6.901  -3.748  -0.593  0.00  0.00    +0.104 A 
ATOM     21  N5  UNL     1      -6.235  -2.721  -1.139  0.00  0.00    -0.348 N 
ATOM     22  H22 UNL     1      -6.190  -2.466  -2.151  0.00  0.00    +0.166 HD
ENDBRANCH  15  17
ENDBRANCH   6   9
BRANCH   1  25
ATOM     23  C4  UNL     1       5.725  -0.181  -0.232  0.00  0.00    +0.082 A 
ATOM     24  N1  UNL     1       4.568   0.516  -0.215  0.00  0.00    -0.239 NA
ATOM     25  C5  UNL     1       4.759   1.837  -0.486  0.00  0.00    +0.133 A 
ATOM     26  C21 UNL     1       6.083   2.203  -0.721  0.00  0.00    +0.080 A 
ATOM     27  S1  UNL     1       7.030   0.819  -0.601  0.00  0.00    -0.080 S 
BRANCH  23  29
ATOM     28  C1  UNL     1       6.028  -2.378  -1.365  0.00  0.00    +0.014 C 
ATOM     29  C2  UNL     1       5.789  -1.670  -0.029  0.00  0.00    +0.038 C 
ATOM     30  C3  UNL     1       6.869  -2.042   0.993  0.00  0.00    +0.014 C 
ENDBRANCH  23  29
ENDBRANCH   1  25
TORSDOF 4
