REMARK  Name = /home/qwerty/github/datacon2025hack/step_04_hit_selection/docking/ligands/lig_376.pdb
REMARK  7 active torsions:
REMARK  status: ('A' for Active; 'I' for Inactive)
REMARK    1  A    between atoms: C1_1  and  C2_2
REMARK    2  A    between atoms: C2_2  and  C3_3
REMARK    3  A    between atoms: C2_2  and  C4_4
REMARK    4  A    between atoms: C7_7  and  C8_8
REMARK    5  A    between atoms: C8_8  and  C9_9
REMARK    6  A    between atoms: C9_9  and  N1_10
REMARK    7  A    between atoms: N2_13  and  C11_14
REMARK                            x       y       z     vdW  Elec       q    Type
REMARK                         _______ _______ _______ _____ _____    ______ ____
ROOT
ATOM      1  N1  UNL     1      -0.289  -0.106   1.383  0.00  0.00    -0.299 N 
ATOM      2  C10 UNL     1       0.638   0.248   0.348  0.00  0.00    +0.304 C 
ATOM      3  O1  UNL     1       1.143   1.403   0.318  0.00  0.00    -0.253 OA
ATOM      4  N2  UNL     1       0.956  -0.706  -0.673  0.00  0.00    -0.269 N 
ATOM      5  H14 UNL     1      -0.629  -1.093   1.438  0.00  0.00    +0.150 HD
ATOM      6  H15 UNL     1       0.316  -1.521  -0.802  0.00  0.00    +0.156 HD
ENDROOT
BRANCH   4   7
ATOM      7  C11 UNL     1       1.958  -0.468  -1.669  0.00  0.00    +0.040 A 
ATOM      8  C12 UNL     1       1.623  -0.544  -3.033  0.00  0.00    +0.024 A 
ATOM      9  C13 UNL     1       2.605  -0.352  -4.022  0.00  0.00    +0.002 A 
ATOM     10  C14 UNL     1       3.936  -0.105  -3.658  0.00  0.00    +0.005 A 
ATOM     11  C15 UNL     1       4.259  -0.051  -2.302  0.00  0.00    -0.024 A 
ATOM     12  C16 UNL     1       3.299  -0.223  -1.327  0.00  0.00    -0.004 A 
ATOM     13  C17 UNL     1       3.927  -0.219   0.022  0.00  0.00    +0.144 C 
ATOM     14  N3  UNL     1       5.345  -0.015  -0.272  0.00  0.00    -0.301 N 
ATOM     15  C18 UNL     1       6.368   0.061   0.728  0.00  0.00    +0.161 A 
ATOM     16  N4  UNL     1       7.673   0.250   0.440  0.00  0.00    -0.233 NA
ATOM     17  C19 UNL     1       8.435   0.283   1.566  0.00  0.00    +0.120 A 
ATOM     18  C20 UNL     1       7.737   0.118   2.757  0.00  0.00    +0.068 A 
ATOM     19  S1  UNL     1       6.107  -0.074   2.386  0.00  0.00    -0.061 S 
ATOM     20  C21 UNL     1       5.607   0.109  -1.704  0.00  0.00    +0.142 C 
ENDBRANCH   4   7
BRANCH   1  21
ATOM     21  C9  UNL     1      -0.755   0.848   2.389  0.00  0.00    +0.110 C 
BRANCH  21  22
ATOM     22  C8  UNL     1      -1.710   1.881   1.777  0.00  0.00    +0.054 C 
BRANCH  22  26
ATOM     23  C4  UNL     1      -5.086  -0.099  -0.069  0.00  0.00    -0.045 A 
ATOM     24  C5  UNL     1      -5.070   0.146   1.318  0.00  0.00    +0.004 A 
ATOM     25  C6  UNL     1      -3.984   0.796   1.910  0.00  0.00    +0.004 A 
ATOM     26  C7  UNL     1      -2.899   1.219   1.129  0.00  0.00    -0.046 A 
ATOM     27  C22 UNL     1      -2.906   0.967  -0.251  0.00  0.00    +0.004 A 
ATOM     28  C23 UNL     1      -3.991   0.317  -0.845  0.00  0.00    +0.004 A 
BRANCH  23  30
ATOM     29  C1  UNL     1      -6.395  -2.242  -0.197  0.00  0.00    +0.012 C 
ATOM     30  C2  UNL     1      -6.255  -0.810  -0.725  0.00  0.00    +0.013 C 
ATOM     31  C3  UNL     1      -7.558  -0.023  -0.541  0.00  0.00    +0.012 C 
ENDBRANCH  23  30
ENDBRANCH  22  26
ENDBRANCH  21  22
ENDBRANCH   1  21
TORSDOF 5
