REMARK  Name = /home/qwerty/github/datacon2025hack/step_04_hit_selection/docking/ligands/lig_733.pdb
REMARK  5 active torsions:
REMARK  status: ('A' for Active; 'I' for Inactive)
REMARK    1  A    between atoms: C1_1  and  C2_2
REMARK    2  A    between atoms: C5_5  and  N1_6
REMARK    3  A    between atoms: C9_10  and  N2_11
REMARK    4  A    between atoms: C14_18  and  C15_19
REMARK    5  A    between atoms: C19_23  and  C20_24
REMARK                            x       y       z     vdW  Elec       q    Type
REMARK                         _______ _______ _______ _____ _____    ______ ____
ROOT
ATOM      1  N2  UNL     1      -0.354   1.561  -1.516  0.00  0.00    -0.288 N 
ATOM      2  C10 UNL     1      -1.494   2.419  -1.349  0.00  0.00    +0.303 C 
ATOM      3  O1  UNL     1      -1.351   3.668  -1.392  0.00  0.00    -0.253 OA
ATOM      4  N3  UNL     1      -2.804   1.864  -1.128  0.00  0.00    -0.277 N 
ATOM      5  C11 UNL     1      -3.987   2.688  -0.944  0.00  0.00    +0.110 C 
ATOM      6  C12 UNL     1      -5.111   1.728  -0.571  0.00  0.00    +0.021 C 
ATOM      7  C13 UNL     1      -4.626   0.339  -0.975  0.00  0.00    +0.030 C 
ATOM      8  C14 UNL     1      -3.099   0.436  -1.057  0.00  0.00    +0.126 C 
ATOM      9  H13 UNL     1      -0.505   0.534  -1.625  0.00  0.00    +0.151 HD
ENDROOT
BRANCH   1  14
ATOM     10  N1  UNL     1       2.504   0.105  -0.765  0.00  0.00    -0.270 N 
ATOM     11  C6  UNL     1       2.973  -0.164  -2.132  0.00  0.00    +0.114 C 
ATOM     12  C7  UNL     1       1.979   0.350  -3.175  0.00  0.00    +0.022 C 
ATOM     13  C8  UNL     1       1.648   1.826  -2.921  0.00  0.00    +0.033 C 
ATOM     14  C9  UNL     1       1.027   2.046  -1.532  0.00  0.00    +0.161 C 
ATOM     15  C21 UNL     1       1.802   1.328  -0.460  0.00  0.00    +0.240 C 
ATOM     16  O2  UNL     1       1.723   1.740   0.733  0.00  0.00    -0.273 OA
BRANCH  10  21
ATOM     17  C1  UNL     1       4.053  -3.517   3.415  0.00  0.00    +0.044 C 
ATOM     18  C2  UNL     1       3.617  -2.551   2.350  0.00  0.00    -0.050 A 
ATOM     19  C3  UNL     1       2.668  -2.938   1.388  0.00  0.00    +0.005 A 
ATOM     20  C4  UNL     1       2.306  -2.060   0.363  0.00  0.00    +0.024 A 
ATOM     21  C5  UNL     1       2.889  -0.788   0.285  0.00  0.00    +0.036 A 
ATOM     22  C22 UNL     1       3.847  -0.403   1.236  0.00  0.00    +0.024 A 
ATOM     23  C23 UNL     1       4.214  -1.283   2.259  0.00  0.00    +0.005 A 
ENDBRANCH  10  21
ENDBRANCH   1  14
BRANCH   8  24
ATOM     24  C15 UNL     1      -2.441  -0.182   0.159  0.00  0.00    +0.062 A 
ATOM     25  C16 UNL     1      -1.796  -1.423   0.065  0.00  0.00    +0.025 A 
ATOM     26  C17 UNL     1      -1.202  -1.973   1.203  0.00  0.00    +0.004 A 
ATOM     27  C18 UNL     1      -1.258  -1.289   2.420  0.00  0.00    +0.023 A 
ATOM     28  C19 UNL     1      -1.906  -0.050   2.481  0.00  0.00    +0.039 A 
ATOM     29  C20 UNL     1      -2.011   0.693   3.775  0.00  0.00    +0.065 C 
ATOM     30  N4  UNL     1      -2.485   0.464   1.361  0.00  0.00    -0.255 NA
ENDBRANCH   8  24
TORSDOF 3
