REMARK  Name = /home/qwerty/github/datacon2025hack/step_04_hit_selection/docking/ligands/lig_643.pdb
REMARK  6 active torsions:
REMARK  status: ('A' for Active; 'I' for Inactive)
REMARK    1  A    between atoms: C1_1  and  C2_2
REMARK    2  A    between atoms: C4_4  and  N1_5
REMARK    3  A    between atoms: C11_13  and  N2_14
REMARK    4  A    between atoms: C12_15  and  C13_17
REMARK    5  A    between atoms: N3_19  and  C14_20
REMARK    6  A    between atoms: N4_28  and  C21_29
REMARK                            x       y       z     vdW  Elec       q    Type
REMARK                         _______ _______ _______ _____ _____    ______ ____
ROOT
ATOM      1  N2  UNL     1      -0.644   0.889  -0.875  0.00  0.00    -0.278 N 
ATOM      2  C12 UNL     1       0.444   0.114  -0.348  0.00  0.00    +0.303 C 
ATOM      3  O2  UNL     1       0.209  -0.943   0.300  0.00  0.00    -0.265 OA
ATOM      4  H15 UNL     1      -0.448   1.579  -1.635  0.00  0.00    +0.155 HD
ENDROOT
BRANCH   1  11
ATOM      5  C1  UNL     1      -1.672   1.009   1.904  0.00  0.00    +0.046 C 
ATOM      6  C2  UNL     1      -2.530   0.622   0.729  0.00  0.00    -0.027 A 
ATOM      7  C3  UNL     1      -3.875   0.284   0.953  0.00  0.00    +0.028 A 
ATOM      8  C4  UNL     1      -4.725  -0.043  -0.117  0.00  0.00    +0.030 A 
ATOM      9  C9  UNL     1      -4.216  -0.025  -1.423  0.00  0.00    +0.025 A 
ATOM     10  C10 UNL     1      -2.876   0.288  -1.655  0.00  0.00    +0.025 A 
ATOM     11  C11 UNL     1      -2.017   0.584  -0.589  0.00  0.00    +0.037 A 
BRANCH   8  12
ATOM     12  N1  UNL     1      -6.110  -0.366   0.116  0.00  0.00    -0.326 N 
ATOM     13  C5  UNL     1      -6.664  -1.630  -0.379  0.00  0.00    +0.133 C 
ATOM     14  C6  UNL     1      -8.157  -1.455  -0.673  0.00  0.00    +0.178 C 
ATOM     15  O1  UNL     1      -8.832  -0.919   0.449  0.00  0.00    -0.377 OA
ATOM     16  C7  UNL     1      -8.362   0.390   0.711  0.00  0.00    +0.178 C 
ATOM     17  C8  UNL     1      -6.886   0.368   1.120  0.00  0.00    +0.133 C 
ENDBRANCH   8  12
ENDBRANCH   1  11
BRANCH   2  18
ATOM     18  C13 UNL     1       1.839   0.530  -0.580  0.00  0.00    +0.303 C 
ATOM     19  O3  UNL     1       2.072   1.576  -1.244  0.00  0.00    -0.265 OA
ATOM     20  N3  UNL     1       2.926  -0.224  -0.016  0.00  0.00    -0.278 N 
ATOM     21  H16 UNL     1       2.718  -0.870   0.779  0.00  0.00    +0.155 HD
BRANCH  20  22
ATOM     22  C14 UNL     1       4.302  -0.049  -0.393  0.00  0.00    +0.035 A 
ATOM     23  C15 UNL     1       4.666   0.256  -1.732  0.00  0.00    +0.024 A 
ATOM     24  C16 UNL     1       6.017   0.397  -2.095  0.00  0.00    +0.015 A 
ATOM     25  C17 UNL     1       6.982   0.224  -1.108  0.00  0.00    +0.050 A 
ATOM     26  C18 UNL     1       6.640  -0.090   0.188  0.00  0.00    +0.051 A 
ATOM     27  C19 UNL     1       5.310  -0.245   0.575  0.00  0.00    +0.037 A 
ATOM     28  C20 UNL     1       7.876  -0.233   0.949  0.00  0.00    +0.254 C 
ATOM     29  O4  UNL     1       7.956  -0.566   2.161  0.00  0.00    -0.270 OA
ATOM     30  N4  UNL     1       9.004   0.033   0.111  0.00  0.00    -0.237 N 
ATOM     31  C21 UNL     1      10.374  -0.390   0.371  0.00  0.00    +0.142 C 
ATOM     32  C22 UNL     1       8.438   0.279  -1.179  0.00  0.00    +0.254 C 
ATOM     33  O5  UNL     1       9.114   0.479  -2.223  0.00  0.00    -0.270 OA
ENDBRANCH  20  22
ENDBRANCH   2  18
TORSDOF 4
