REMARK  Name = /home/qwerty/github/datacon2025hack/step_04_hit_selection/docking/ligands/lig_813.pdb
REMARK  6 active torsions:
REMARK  status: ('A' for Active; 'I' for Inactive)
REMARK    1  A    between atoms: C1_1  and  O1_2
REMARK    2  A    between atoms: O1_2  and  C2_3
REMARK    3  A    between atoms: C5_7  and  N1_8
REMARK    4  A    between atoms: C6_9  and  C7_11
REMARK    5  A    between atoms: N2_13  and  C8_14
REMARK    6  A    between atoms: C14_22  and  C15_23
REMARK                            x       y       z     vdW  Elec       q    Type
REMARK                         _______ _______ _______ _____ _____    ______ ____
ROOT
ATOM      1  N1  UNL     1       0.885  -0.520  -0.943  0.00  0.00    -0.276 N 
ATOM      2  C6  UNL     1      -0.133   0.178  -0.208  0.00  0.00    +0.303 C 
ATOM      3  O2  UNL     1       0.175   0.844   0.817  0.00  0.00    -0.265 OA
ATOM      4  H5  UNL     1       0.597  -1.280  -1.600  0.00  0.00    +0.155 HD
ENDROOT
BRANCH   1   9
ATOM      5  C2  UNL     1       5.026  -0.245  -0.008  0.00  0.00    +0.124 A 
ATOM      6  C3  UNL     1       4.303   0.913  -0.355  0.00  0.00    +0.067 A 
ATOM      7  C4  UNL     1       2.942   0.837  -0.670  0.00  0.00    +0.066 A 
ATOM      8 CL1  UNL     1       2.119   2.303  -1.190  0.00  0.00    -0.082 Cl
ATOM      9  C5  UNL     1       2.280  -0.404  -0.627  0.00  0.00    +0.053 A 
ATOM     10  C13 UNL     1       3.003  -1.560  -0.309  0.00  0.00    +0.031 A 
ATOM     11  C14 UNL     1       4.368  -1.489   0.008  0.00  0.00    -0.007 A 
ATOM     12  C15 UNL     1       5.124  -2.738   0.365  0.00  0.00    +0.047 C 
BRANCH   5  14
ATOM     13  C1  UNL     1       7.176   0.992   0.340  0.00  0.00    +0.277 C 
ATOM     14  O1  UNL     1       6.392  -0.196   0.317  0.00  0.00    -0.495 OA
ENDBRANCH   5  14
ENDBRANCH   1   9
BRANCH   2  15
ATOM     15  C7  UNL     1      -1.544   0.103  -0.632  0.00  0.00    +0.300 C 
ATOM     16  O3  UNL     1      -1.848  -0.555  -1.664  0.00  0.00    -0.265 OA
ATOM     17  N2  UNL     1      -2.569   0.781   0.114  0.00  0.00    -0.303 N 
ATOM     18  H6  UNL     1      -2.287   1.377   0.926  0.00  0.00    +0.149 HD
BRANCH  17  19
ATOM     19  C8  UNL     1      -3.986   0.702  -0.256  0.00  0.00    +0.091 C 
ATOM     20  C9  UNL     1      -4.568  -0.659   0.162  0.00  0.00    +0.033 C 
ATOM     21  C10 UNL     1      -6.017  -0.804  -0.313  0.00  0.00    +0.097 C 
ATOM     22  C11 UNL     1      -6.836   0.407   0.028  0.00  0.00    +0.213 C 
ATOM     23  O4  UNL     1      -8.090   0.307   0.104  0.00  0.00    -0.276 OA
ATOM     24  N3  UNL     1      -6.217   1.691   0.179  0.00  0.00    -0.314 N 
ATOM     25  C12 UNL     1      -4.781   1.832   0.420  0.00  0.00    +0.126 C 
ATOM     26  H12 UNL     1      -6.826   2.524   0.338  0.00  0.00    +0.149 HD
ENDBRANCH  17  19
ENDBRANCH   2  15
TORSDOF 4
