REMARK  Name = /home/qwerty/github/datacon2025hack/step_04_hit_selection/docking/ligands/lig_568.pdb
REMARK  3 active torsions:
REMARK  status: ('A' for Active; 'I' for Inactive)
REMARK    1  A    between atoms: N1_3  and  C2_4
REMARK    2  A    between atoms: C5_7  and  O2_8
REMARK    3  A    between atoms: N2_11  and  C8_12
REMARK                            x       y       z     vdW  Elec       q    Type
REMARK                         _______ _______ _______ _____ _____    ______ ____
ROOT
ATOM      1  O1  UNL     1      -0.159   0.331  -0.956  0.00  0.00    -0.252 OA
ATOM      2  C1  UNL     1      -0.279  -0.119   0.216  0.00  0.00    +0.308 C 
ATOM      3  N1  UNL     1       0.869  -0.227   1.072  0.00  0.00    -0.269 N 
ATOM      4  N2  UNL     1      -1.565  -0.528   0.706  0.00  0.00    -0.267 N 
ATOM      5  H1  UNL     1       0.697  -0.344   2.096  0.00  0.00    +0.156 HD
ATOM      6  H7  UNL     1      -1.586  -1.121   1.567  0.00  0.00    +0.156 HD
ENDROOT
BRANCH   4   7
ATOM      7  C8  UNL     1      -2.806  -0.271   0.025  0.00  0.00    +0.070 A 
ATOM      8  C9  UNL     1      -3.024   0.939  -0.660  0.00  0.00    +0.029 A 
ATOM      9  C10 UNL     1      -4.247   1.180  -1.294  0.00  0.00    +0.040 A 
ATOM     10  C11 UNL     1      -5.265   0.226  -1.241  0.00  0.00    +0.126 A 
ATOM     11  F1  UNL     1      -6.450   0.463  -1.855  0.00  0.00    -0.205 F 
ATOM     12  C12 UNL     1      -5.065  -0.970  -0.546  0.00  0.00    +0.078 A 
ATOM     13  C13 UNL     1      -3.845  -1.217   0.092  0.00  0.00    +0.147 A 
ATOM     14  F2  UNL     1      -3.669  -2.384   0.760  0.00  0.00    -0.203 F 
ENDBRANCH   4   7
BRANCH   3  15
ATOM     15  C2  UNL     1       2.226  -0.059   0.629  0.00  0.00    +0.035 A 
ATOM     16  C3  UNL     1       3.171   0.501   1.503  0.00  0.00    +0.027 A 
ATOM     17  C4  UNL     1       4.502   0.655   1.105  0.00  0.00    +0.047 A 
ATOM     18  C5  UNL     1       4.908   0.235  -0.168  0.00  0.00    +0.117 A 
ATOM     19  C6  UNL     1       3.978  -0.344  -1.037  0.00  0.00    +0.047 A 
ATOM     20  C7  UNL     1       2.645  -0.498  -0.641  0.00  0.00    +0.027 A 
BRANCH  18  21
ATOM     21  O2  UNL     1       6.231   0.383  -0.577  0.00  0.00    -0.507 OA
ATOM     22  H4  UNL     1       6.930   0.797   0.029  0.00  0.00    +0.292 HD
ENDBRANCH  18  21
ENDBRANCH   3  15
TORSDOF 3
