REMARK  Name = /home/qwerty/github/datacon2025hack/step_04_hit_selection/docking/ligands/lig_579.pdb
REMARK  3 active torsions:
REMARK  status: ('A' for Active; 'I' for Inactive)
REMARK    1  A    between atoms: C1_1  and  C2_2
REMARK    2  A    between atoms: C2_2  and  N1_3
REMARK    3  A    between atoms: C2_2  and  C10_18
REMARK                            x       y       z     vdW  Elec       q    Type
REMARK                         _______ _______ _______ _____ _____    ______ ____
ROOT
ATOM      1  N1  UNL     1      -0.867   0.876  -1.689  0.00  0.00    -0.292 N 
ATOM      2  C3  UNL     1      -0.216  -0.393  -1.515  0.00  0.00    +0.303 C 
ATOM      3  O1  UNL     1      -0.805  -1.448  -1.876  0.00  0.00    -0.253 OA
ATOM      4  N2  UNL     1       1.098  -0.475  -0.925  0.00  0.00    -0.283 N 
ATOM      5  C4  UNL     1       1.877  -1.714  -1.053  0.00  0.00    +0.128 C 
ATOM      6  C5  UNL     1       3.380  -1.412  -1.077  0.00  0.00    +0.126 C 
ATOM      7  N3  UNL     1       3.771  -0.495   0.003  0.00  0.00    -0.305 N 
ATOM      8  C6  UNL     1       5.166  -0.303   0.302  0.00  0.00    +0.182 A 
ATOM      9  N4  UNL     1       5.634   0.375   1.371  0.00  0.00    -0.191 NA
ATOM     10  C7  UNL     1       7.003   0.398   1.389  0.00  0.00    +0.222 A 
ATOM     11  N5  UNL     1       7.715   1.064   2.427  0.00  0.00    -0.327 N 
ATOM     12  N6  UNL     1       7.660  -0.232   0.374  0.00  0.00    -0.173 NA
ATOM     13  S1  UNL     1       6.460  -0.849  -0.594  0.00  0.00    +0.051 S 
ATOM     14  C8  UNL     1       2.745   0.154   0.828  0.00  0.00    +0.126 C 
ATOM     15  C9  UNL     1       1.569   0.605  -0.045  0.00  0.00    +0.128 C 
ATOM     16  H5  UNL     1      -0.318   1.752  -1.538  0.00  0.00    +0.151 HD
ATOM     17  H10 UNL     1       8.758   1.077   2.427  0.00  0.00    +0.145 HD
ATOM     18  H11 UNL     1       7.198   1.548   3.195  0.00  0.00    +0.145 HD
ENDROOT
BRANCH   1  20
ATOM     19  C1  UNL     1      -2.643   2.412  -2.435  0.00  0.00    +0.033 C 
ATOM     20  C2  UNL     1      -2.284   0.975  -2.046  0.00  0.00    +0.108 C 
BRANCH  20  21
ATOM     21  C10 UNL     1      -3.136   0.528  -0.891  0.00  0.00    +0.011 A 
ATOM     22  C11 UNL     1      -4.239  -0.321  -0.985  0.00  0.00    +0.021 A 
ATOM     23  C12 UNL     1      -4.854  -0.532   0.253  0.00  0.00    -0.010 A 
ATOM     24  C13 UNL     1      -5.975  -1.332   0.492  0.00  0.00    +0.009 A 
ATOM     25  C14 UNL     1      -6.466  -1.433   1.805  0.00  0.00    +0.001 A 
ATOM     26  C15 UNL     1      -5.839  -0.737   2.857  0.00  0.00    +0.001 A 
ATOM     27  C16 UNL     1      -4.716   0.065   2.607  0.00  0.00    +0.015 A 
ATOM     28  C17 UNL     1      -4.246   0.148   1.299  0.00  0.00    +0.020 A 
ATOM     29  S2  UNL     1      -2.937   1.023   0.718  0.00  0.00    -0.091 S 
ENDBRANCH  20  21
ENDBRANCH   1  20
TORSDOF 2
