REMARK  Name = /home/qwerty/github/datacon2025hack/step_04_hit_selection/docking/ligands/lig_126.pdb
REMARK  6 active torsions:
REMARK  status: ('A' for Active; 'I' for Inactive)
REMARK    1  A    between atoms: C1_1  and  O1_2
REMARK    2  A    between atoms: O1_2  and  C2_3
REMARK    3  A    between atoms: C7_10  and  N1_11
REMARK    4  A    between atoms: C8_12  and  C9_14
REMARK    5  A    between atoms: C11_16  and  C12_17
REMARK    6  A    between atoms: C13_18  and  C14_19
REMARK                            x       y       z     vdW  Elec       q    Type
REMARK                         _______ _______ _______ _____ _____    ______ ____
ROOT
ATOM      1  N1  UNL     1      -1.001   1.255  -0.027  0.00  0.00    -0.277 N 
ATOM      2  C8  UNL     1      -0.183   0.197  -0.555  0.00  0.00    +0.267 C 
ATOM      3  O2  UNL     1      -0.682  -0.643  -1.353  0.00  0.00    -0.268 OA
ATOM      4  H6  UNL     1      -0.531   2.111   0.344  0.00  0.00    +0.155 HD
ENDROOT
BRANCH   1  12
ATOM      5  C2  UNL     1      -3.228   0.174   0.150  0.00  0.00    +0.144 A 
ATOM      6  C3  UNL     1      -4.625   0.255  -0.018  0.00  0.00    +0.087 A 
ATOM      7  C4  UNL     1      -5.216   1.436  -0.476  0.00  0.00    +0.141 A 
ATOM      8  F1  UNL     1      -6.563   1.496  -0.626  0.00  0.00    -0.204 F 
ATOM      9  C5  UNL     1      -4.424   2.550  -0.764  0.00  0.00    +0.055 A 
ATOM     10 BR1  UNL     1      -5.224   4.176  -1.374  0.00  0.00    -0.047 Br
ATOM     11  C6  UNL     1      -3.037   2.478  -0.608  0.00  0.00    +0.045 A 
ATOM     12  C7  UNL     1      -2.429   1.290  -0.178  0.00  0.00    +0.077 A 
BRANCH   5  14
ATOM     13  C1  UNL     1      -3.300  -2.172   1.024  0.00  0.00    +0.277 C 
ATOM     14  O1  UNL     1      -2.611  -0.981   0.659  0.00  0.00    -0.493 OA
ENDBRANCH   5  14
ENDBRANCH   1  12
BRANCH   2  15
ATOM     15  C9  UNL     1       1.247   0.104  -0.188  0.00  0.00    +0.126 A 
ATOM     16  C10 UNL     1       2.072  -0.891  -0.735  0.00  0.00    +0.036 A 
ATOM     17  C11 UNL     1       3.424  -0.963  -0.364  0.00  0.00    -0.044 A 
ATOM     18  C12 UNL     1       4.301  -2.032  -0.962  0.00  0.00    +0.044 C 
ATOM     19  C13 UNL     1       3.940  -0.019   0.552  0.00  0.00    -0.029 A 
ATOM     20  C14 UNL     1       5.382  -0.047   0.986  0.00  0.00    +0.045 C 
ATOM     21  C15 UNL     1       3.075   0.953   1.077  0.00  0.00    +0.115 A 
ATOM     22  N2  UNL     1       1.772   0.990   0.700  0.00  0.00    -0.250 NA
ENDBRANCH   2  15
TORSDOF 3
