REMARK  Name = /home/qwerty/github/datacon2025hack/step_04_hit_selection/docking/ligands/lig_352.pdb
REMARK  3 active torsions:
REMARK  status: ('A' for Active; 'I' for Inactive)
REMARK    1  A    between atoms: C1_1  and  C2_2
REMARK    2  A    between atoms: C4_4  and  N1_5
REMARK    3  A    between atoms: N2_8  and  C6_9
REMARK                            x       y       z     vdW  Elec       q    Type
REMARK                         _______ _______ _______ _____ _____    ______ ____
ROOT
ATOM      1  N1  UNL     1       0.697  -0.904  -0.307  0.00  0.00    -0.269 N 
ATOM      2  C5  UNL     1      -0.475  -0.089  -0.159  0.00  0.00    +0.304 C 
ATOM      3  O1  UNL     1      -0.379   1.100   0.252  0.00  0.00    -0.252 OA
ATOM      4  N2  UNL     1      -1.766  -0.646  -0.441  0.00  0.00    -0.294 N 
ATOM      5  H5  UNL     1       0.562  -1.938  -0.373  0.00  0.00    +0.156 HD
ATOM      6  H6  UNL     1      -1.814  -1.627  -0.798  0.00  0.00    +0.151 HD
ENDROOT
BRANCH   1  10
ATOM      7  C1  UNL     1       5.504  -1.658   0.862  0.00  0.00    +0.044 C 
ATOM      8  C2  UNL     1       4.409  -0.785   0.324  0.00  0.00    -0.038 A 
ATOM      9  C3  UNL     1       3.069  -1.231   0.269  0.00  0.00    +0.027 A 
ATOM     10  C4  UNL     1       2.043  -0.401  -0.252  0.00  0.00    +0.037 A 
ATOM     11  C12 UNL     1       2.369   0.878  -0.763  0.00  0.00    +0.053 A 
ATOM     12  C13 UNL     1       3.698   1.286  -0.704  0.00  0.00    +0.094 A 
ATOM     13  N3  UNL     1       4.219   2.448  -1.136  0.00  0.00    -0.174 NA
ATOM     14  N4  UNL     1       5.523   2.392  -0.888  0.00  0.00    -0.284 N 
ATOM     15  C14 UNL     1       5.841   1.213  -0.308  0.00  0.00    +0.113 A 
ATOM     16  C15 UNL     1       4.677   0.488  -0.181  0.00  0.00    +0.023 A 
ATOM     17  H17 UNL     1       6.194   3.157  -1.118  0.00  0.00    +0.188 HD
ENDBRANCH   1  10
BRANCH   4  18
ATOM     18  C6  UNL     1      -2.997   0.137  -0.292  0.00  0.00    +0.106 C 
ATOM     19  C7  UNL     1      -3.355   0.327   1.186  0.00  0.00    +0.056 C 
ATOM     20  C8  UNL     1      -4.711  -0.388   1.240  0.00  0.00    +0.121 C 
ATOM     21  C9  UNL     1      -5.782   0.484   0.576  0.00  0.00    +0.034 C 
ATOM     22  C10 UNL     1      -5.430   0.286  -0.895  0.00  0.00    +0.036 C 
ATOM     23  C11 UNL     1      -4.227  -0.656  -0.771  0.00  0.00    +0.139 C 
ATOM     24  O2  UNL     1      -4.553  -1.441   0.337  0.00  0.00    -0.371 OA
ENDBRANCH   4  18
TORSDOF 2
