MODEL 1
REMARK VINA RESULT:    -6.988      0.000      0.000
REMARK INTER + INTRA:          -8.974
REMARK INTER:                  -9.031
REMARK INTRA:                   0.057
REMARK UNBOUND:                 0.057
REMARK  Name = /home/qwerty/github/datacon2025hack/step_04_hit_selection/docking/ligands/lig_32.pdb
REMARK  7 active torsions:
REMARK  status: ('A' for Active; 'I' for Inactive)
REMARK    1  A    between atoms: C1_1  and  C2_2
REMARK    2  A    between atoms: C2_2  and  C3_3
REMARK    3  A    between atoms: C2_2  and  N1_4
REMARK    4  A    between atoms: C7_9  and  N3_10
REMARK    5  A    between atoms: C8_11  and  C9_13
REMARK    6  A    between atoms: N4_15  and  C10_16
REMARK    7  A    between atoms: C14_21  and  C15_22
REMARK                            x       y       z     vdW  Elec       q    Type
REMARK                         _______ _______ _______ _____ _____    ______ ____
ROOT
ATOM      1  N3  UNL     1      18.089   9.969  36.041  0.00  0.00    -0.278 N 
ATOM      2  C8  UNL     1      18.729   9.317  37.151  0.00  0.00    +0.303 C 
ATOM      3  O1  UNL     1      18.286   9.472  38.321  0.00  0.00    -0.265 OA
ATOM      4  H10 UNL     1      18.636  10.092  35.159  0.00  0.00    +0.155 HD
ENDROOT
BRANCH   1  10
ATOM      5  N1  UNL     1      13.117  12.413  36.434  0.00  0.00    -0.261 N 
ATOM      6  N2  UNL     1      13.490  13.655  36.735  0.00  0.00    -0.178 NA
ATOM      7  C4  UNL     1      14.844  13.706  36.750  0.00  0.00    +0.143 A 
ATOM      8  C5  UNL     1      15.326  12.448  36.465  0.00  0.00    +0.021 A 
ATOM      9  C6  UNL     1      16.622  11.946  36.393  0.00  0.00    +0.035 A 
ATOM     10  C7  UNL     1      16.784  10.570  36.107  0.00  0.00    +0.035 A 
ATOM     11  C19 UNL     1      15.637   9.749  35.945  0.00  0.00    +0.025 A 
ATOM     12  C20 UNL     1      14.341  10.293  36.030  0.00  0.00    +0.030 A 
ATOM     13  C21 UNL     1      14.226  11.661  36.282  0.00  0.00    +0.069 A 
BRANCH   5  15
ATOM     14  C1  UNL     1      10.771  13.117  36.099  0.00  0.00    +0.032 C 
ATOM     15  C2  UNL     1      11.723  11.955  36.409  0.00  0.00    +0.102 C 
ATOM     16  C3  UNL     1      11.368  11.302  37.746  0.00  0.00    +0.032 C 
ENDBRANCH   5  15
ENDBRANCH   1  10
BRANCH   2  17
ATOM     17  C9  UNL     1      19.936   8.495  36.937  0.00  0.00    +0.303 C 
ATOM     18  O2  UNL     1      20.027   7.370  37.499  0.00  0.00    -0.265 OA
ATOM     19  N4  UNL     1      21.019   8.989  36.130  0.00  0.00    -0.278 N 
ATOM     20  H11 UNL     1      21.066  10.017  35.946  0.00  0.00    +0.155 HD
BRANCH  19  21
ATOM     21  C10 UNL     1      22.109   8.175  35.663  0.00  0.00    +0.034 A 
ATOM     22  C11 UNL     1      22.554   7.058  36.391  0.00  0.00    +0.026 A 
ATOM     23  C12 UNL     1      23.608   6.278  35.910  0.00  0.00    +0.040 A 
ATOM     24  C13 UNL     1      24.215   6.588  34.690  0.00  0.00    +0.127 A 
ATOM     25  F1  UNL     1      25.252   5.831  34.253  0.00  0.00    -0.205 F 
ATOM     26  C14 UNL     1      23.747   7.670  33.926  0.00  0.00    -0.007 A 
ATOM     27  C18 UNL     1      22.706   8.468  34.427  0.00  0.00    +0.030 A 
BRANCH  26  28
ATOM     28  C15 UNL     1      24.415   8.032  32.626  0.00  0.00    +0.022 C 
ATOM     29  C16 UNL     1      23.960   9.345  32.002  0.00  0.00    +0.009 C 
ATOM     30  C17 UNL     1      23.500   8.028  31.408  0.00  0.00    +0.009 C 
ENDBRANCH  26  28
ENDBRANCH  19  21
ENDBRANCH   2  17
TORSDOF 5
ENDMDL
MODEL 2
REMARK VINA RESULT:    -6.941      7.938     11.704
REMARK INTER + INTRA:          -8.913
REMARK INTER:                  -8.524
REMARK INTRA:                  -0.389
REMARK UNBOUND:                 0.057
REMARK  Name = /home/qwerty/github/datacon2025hack/step_04_hit_selection/docking/ligands/lig_32.pdb
REMARK  7 active torsions:
REMARK  status: ('A' for Active; 'I' for Inactive)
REMARK    1  A    between atoms: C1_1  and  C2_2
REMARK    2  A    between atoms: C2_2  and  C3_3
REMARK    3  A    between atoms: C2_2  and  N1_4
REMARK    4  A    between atoms: C7_9  and  N3_10
REMARK    5  A    between atoms: C8_11  and  C9_13
REMARK    6  A    between atoms: N4_15  and  C10_16
REMARK    7  A    between atoms: C14_21  and  C15_22
REMARK                            x       y       z     vdW  Elec       q    Type
REMARK                         _______ _______ _______ _____ _____    ______ ____
ROOT
ATOM      1  N3  UNL     1      22.194  11.916  29.317  0.00  0.00    -0.278 N 
ATOM      2  C8  UNL     1      22.723  13.244  29.160  0.00  0.00    +0.303 C 
ATOM      3  O1  UNL     1      23.297  13.816  30.126  0.00  0.00    -0.265 OA
ATOM      4  H10 UNL     1      21.465  11.593  28.641  0.00  0.00    +0.155 HD
ENDROOT
BRANCH   1  10
ATOM      5  N1  UNL     1      23.603   8.488  33.453  0.00  0.00    -0.261 N 
ATOM      6  N2  UNL     1      24.922   8.444  33.282  0.00  0.00    -0.178 NA
ATOM      7  C4  UNL     1      25.250   9.262  32.252  0.00  0.00    +0.143 A 
ATOM      8  C5  UNL     1      24.091   9.817  31.757  0.00  0.00    +0.021 A 
ATOM      9  C6  UNL     1      23.859  10.683  30.693  0.00  0.00    +0.035 A 
ATOM     10  C7  UNL     1      22.520  11.046  30.415  0.00  0.00    +0.035 A 
ATOM     11  C19 UNL     1      21.469  10.493  31.193  0.00  0.00    +0.025 A 
ATOM     12  C20 UNL     1      21.743   9.617  32.260  0.00  0.00    +0.030 A 
ATOM     13  C21 UNL     1      23.079   9.309  32.520  0.00  0.00    +0.069 A 
BRANCH   5  15
ATOM     14  C1  UNL     1      22.317   8.527  35.564  0.00  0.00    +0.032 C 
ATOM     15  C2  UNL     1      22.871   7.665  34.423  0.00  0.00    +0.102 C 
ATOM     16  C3  UNL     1      23.786   6.565  34.965  0.00  0.00    +0.032 C 
ENDBRANCH   5  15
ENDBRANCH   1  10
BRANCH   2  17
ATOM     17  C9  UNL     1      22.561  13.965  27.883  0.00  0.00    +0.303 C 
ATOM     18  O2  UNL     1      21.889  15.031  27.855  0.00  0.00    -0.265 OA
ATOM     19  N4  UNL     1      23.128  13.436  26.672  0.00  0.00    -0.278 N 
ATOM     20  H11 UNL     1      23.393  12.425  26.653  0.00  0.00    +0.155 HD
BRANCH  19  21
ATOM     21  C10 UNL     1      23.240  14.180  25.446  0.00  0.00    +0.034 A 
ATOM     22  C11 UNL     1      23.938  15.398  25.388  0.00  0.00    +0.026 A 
ATOM     23  C12 UNL     1      24.040  16.095  24.182  0.00  0.00    +0.040 A 
ATOM     24  C13 UNL     1      23.468  15.576  23.018  0.00  0.00    +0.127 A 
ATOM     25  F1  UNL     1      23.558  16.281  21.862  0.00  0.00    -0.205 F 
ATOM     26  C14 UNL     1      22.812  14.334  23.049  0.00  0.00    -0.007 A 
ATOM     27  C18 UNL     1      22.687  13.651  24.269  0.00  0.00    +0.030 A 
BRANCH  26  28
ATOM     28  C15 UNL     1      22.163  13.783  21.806  0.00  0.00    +0.022 C 
ATOM     29  C16 UNL     1      22.124  12.263  21.710  0.00  0.00    +0.009 C 
ATOM     30  C17 UNL     1      23.104  13.048  20.860  0.00  0.00    +0.009 C 
ENDBRANCH  26  28
ENDBRANCH  19  21
ENDBRANCH   2  17
TORSDOF 5
ENDMDL
MODEL 3
REMARK VINA RESULT:    -6.790     16.104     17.610
REMARK INTER + INTRA:          -8.718
REMARK INTER:                  -8.071
REMARK INTRA:                  -0.647
REMARK UNBOUND:                 0.057
REMARK  Name = /home/qwerty/github/datacon2025hack/step_04_hit_selection/docking/ligands/lig_32.pdb
REMARK  7 active torsions:
REMARK  status: ('A' for Active; 'I' for Inactive)
REMARK    1  A    between atoms: C1_1  and  C2_2
REMARK    2  A    between atoms: C2_2  and  C3_3
REMARK    3  A    between atoms: C2_2  and  N1_4
REMARK    4  A    between atoms: C7_9  and  N3_10
REMARK    5  A    between atoms: C8_11  and  C9_13
REMARK    6  A    between atoms: N4_15  and  C10_16
REMARK    7  A    between atoms: C14_21  and  C15_22
REMARK                            x       y       z     vdW  Elec       q    Type
REMARK                         _______ _______ _______ _____ _____    ______ ____
ROOT
ATOM      1  N3  UNL     1      16.989   7.512  19.117  0.00  0.00    -0.278 N 
ATOM      2  C8  UNL     1      16.760   6.719  20.294  0.00  0.00    +0.303 C 
ATOM      3  O1  UNL     1      17.412   6.945  21.349  0.00  0.00    -0.265 OA
ATOM      4  H10 UNL     1      16.693   7.121  18.194  0.00  0.00    +0.155 HD
ENDROOT
BRANCH   1  10
ATOM      5  N1  UNL     1      19.928  12.224  19.177  0.00  0.00    -0.261 N 
ATOM      6  N2  UNL     1      21.139  11.748  18.896  0.00  0.00    -0.178 NA
ATOM      7  C4  UNL     1      21.041  10.411  18.701  0.00  0.00    +0.143 A 
ATOM      8  C5  UNL     1      19.726  10.044  18.884  0.00  0.00    +0.021 A 
ATOM      9  C6  UNL     1      19.096   8.804  18.842  0.00  0.00    +0.035 A 
ATOM     10  C7  UNL     1      17.709   8.757  19.116  0.00  0.00    +0.035 A 
ATOM     11  C19 UNL     1      17.024   9.952  19.460  0.00  0.00    +0.025 A 
ATOM     12  C20 UNL     1      17.697  11.188  19.497  0.00  0.00    +0.030 A 
ATOM     13  C21 UNL     1      19.058  11.194  19.189  0.00  0.00    +0.069 A 
BRANCH   5  15
ATOM     14  C1  UNL     1      20.562  14.574  18.745  0.00  0.00    +0.032 C 
ATOM     15  C2  UNL     1      19.655  13.622  19.533  0.00  0.00    +0.102 C 
ATOM     16  C3  UNL     1      19.835  13.818  21.039  0.00  0.00    +0.032 C 
ENDBRANCH   5  15
ENDBRANCH   1  10
BRANCH   2  17
ATOM     17  C9  UNL     1      15.791   5.606  20.266  0.00  0.00    +0.303 C 
ATOM     18  O2  UNL     1      15.391   5.161  19.157  0.00  0.00    -0.265 OA
ATOM     19  N4  UNL     1      15.273   5.062  21.492  0.00  0.00    -0.278 N 
ATOM     20  H11 UNL     1      15.361   5.635  22.362  0.00  0.00    +0.155 HD
BRANCH  19  21
ATOM     21  C10 UNL     1      14.532   3.831  21.575  0.00  0.00    +0.034 A 
ATOM     22  C11 UNL     1      13.167   3.775  21.247  0.00  0.00    +0.026 A 
ATOM     23  C12 UNL     1      12.472   2.565  21.326  0.00  0.00    +0.040 A 
ATOM     24  C13 UNL     1      13.135   1.397  21.709  0.00  0.00    +0.127 A 
ATOM     25  F1  UNL     1      12.437   0.237  21.802  0.00  0.00    -0.205 F 
ATOM     26  C14 UNL     1      14.511   1.427  21.990  0.00  0.00    -0.007 A 
ATOM     27  C18 UNL     1      15.198   2.651  21.937  0.00  0.00    +0.030 A 
BRANCH  26  28
ATOM     28  C15 UNL     1      15.227   0.179  22.437  0.00  0.00    +0.022 C 
ATOM     29  C16 UNL     1      16.747   0.282  22.487  0.00  0.00    +0.009 C 
ATOM     30  C17 UNL     1      16.079  -0.493  21.367  0.00  0.00    +0.009 C 
ENDBRANCH  26  28
ENDBRANCH  19  21
ENDBRANCH   2  17
TORSDOF 5
ENDMDL
MODEL 4
REMARK VINA RESULT:    -6.788      9.617     10.926
REMARK INTER + INTRA:          -8.716
REMARK INTER:                  -8.036
REMARK INTRA:                  -0.680
REMARK UNBOUND:                 0.057
REMARK  Name = /home/qwerty/github/datacon2025hack/step_04_hit_selection/docking/ligands/lig_32.pdb
REMARK  7 active torsions:
REMARK  status: ('A' for Active; 'I' for Inactive)
REMARK    1  A    between atoms: C1_1  and  C2_2
REMARK    2  A    between atoms: C2_2  and  C3_3
REMARK    3  A    between atoms: C2_2  and  N1_4
REMARK    4  A    between atoms: C7_9  and  N3_10
REMARK    5  A    between atoms: C8_11  and  C9_13
REMARK    6  A    between atoms: N4_15  and  C10_16
REMARK    7  A    between atoms: C14_21  and  C15_22
REMARK                            x       y       z     vdW  Elec       q    Type
REMARK                         _______ _______ _______ _____ _____    ______ ____
ROOT
ATOM      1  N3  UNL     1      15.024  15.642  27.789  0.00  0.00    -0.278 N 
ATOM      2  C8  UNL     1      16.215  14.851  27.631  0.00  0.00    +0.303 C 
ATOM      3  O1  UNL     1      16.228  13.644  27.994  0.00  0.00    -0.265 OA
ATOM      4  H10 UNL     1      15.121  16.683  27.789  0.00  0.00    +0.155 HD
ENDROOT
BRANCH   1  10
ATOM      5  N1  UNL     1      10.083  13.430  29.026  0.00  0.00    -0.261 N 
ATOM      6  N2  UNL     1      10.154  13.426  30.355  0.00  0.00    -0.178 NA
ATOM      7  C4  UNL     1      11.333  13.983  30.724  0.00  0.00    +0.143 A 
ATOM      8  C5  UNL     1      12.023  14.328  29.583  0.00  0.00    +0.021 A 
ATOM      9  C6  UNL     1      13.282  14.889  29.396  0.00  0.00    +0.035 A 
ATOM     10  C7  UNL     1      13.725  15.091  28.067  0.00  0.00    +0.035 A 
ATOM     11  C19 UNL     1      12.902  14.683  26.986  0.00  0.00    +0.025 A 
ATOM     12  C20 UNL     1      11.634  14.115  27.215  0.00  0.00    +0.030 A 
ATOM     13  C21 UNL     1      11.222  13.962  28.540  0.00  0.00    +0.069 A 
BRANCH   5  15
ATOM     14  C1  UNL     1       8.032  13.905  27.730  0.00  0.00    +0.032 C 
ATOM     15  C2  UNL     1       8.986  12.827  28.258  0.00  0.00    +0.102 C 
ATOM     16  C3  UNL     1       8.238  11.816  29.128  0.00  0.00    +0.032 C 
ENDBRANCH   5  15
ENDBRANCH   1  10
BRANCH   2  17
ATOM     17  C9  UNL     1      17.444  15.456  27.083  0.00  0.00    +0.303 C 
ATOM     18  O2  UNL     1      17.521  16.709  26.970  0.00  0.00    -0.265 OA
ATOM     19  N4  UNL     1      18.530  14.623  26.642  0.00  0.00    -0.278 N 
ATOM     20  H11 UNL     1      18.330  13.616  26.446  0.00  0.00    +0.155 HD
BRANCH  19  21
ATOM     21  C10 UNL     1      19.846  15.115  26.334  0.00  0.00    +0.034 A 
ATOM     22  C11 UNL     1      20.845  15.203  27.319  0.00  0.00    +0.026 A 
ATOM     23  C12 UNL     1      22.118  15.675  26.991  0.00  0.00    +0.040 A 
ATOM     24  C13 UNL     1      22.416  16.043  25.677  0.00  0.00    +0.127 A 
ATOM     25  F1  UNL     1      23.652  16.521  25.385  0.00  0.00    -0.205 F 
ATOM     26  C14 UNL     1      21.444  15.911  24.671  0.00  0.00    -0.007 A 
ATOM     27  C18 UNL     1      20.158  15.463  25.011  0.00  0.00    +0.030 A 
BRANCH  26  28
ATOM     28  C15 UNL     1      21.746  16.337  23.258  0.00  0.00    +0.022 C 
ATOM     29  C16 UNL     1      20.908  15.660  22.180  0.00  0.00    +0.009 C 
ATOM     30  C17 UNL     1      22.357  15.255  22.376  0.00  0.00    +0.009 C 
ENDBRANCH  26  28
ENDBRANCH  19  21
ENDBRANCH   2  17
TORSDOF 5
ENDMDL
MODEL 5
REMARK VINA RESULT:    -6.766     16.030     17.389
REMARK INTER + INTRA:          -8.687
REMARK INTER:                  -8.030
REMARK INTRA:                  -0.657
REMARK UNBOUND:                 0.057
REMARK  Name = /home/qwerty/github/datacon2025hack/step_04_hit_selection/docking/ligands/lig_32.pdb
REMARK  7 active torsions:
REMARK  status: ('A' for Active; 'I' for Inactive)
REMARK    1  A    between atoms: C1_1  and  C2_2
REMARK    2  A    between atoms: C2_2  and  C3_3
REMARK    3  A    between atoms: C2_2  and  N1_4
REMARK    4  A    between atoms: C7_9  and  N3_10
REMARK    5  A    between atoms: C8_11  and  C9_13
REMARK    6  A    between atoms: N4_15  and  C10_16
REMARK    7  A    between atoms: C14_21  and  C15_22
REMARK                            x       y       z     vdW  Elec       q    Type
REMARK                         _______ _______ _______ _____ _____    ______ ____
ROOT
ATOM      1  N3  UNL     1       7.510   2.651  25.538  0.00  0.00    -0.278 N 
ATOM      2  C8  UNL     1       8.276   1.439  25.648  0.00  0.00    +0.303 C 
ATOM      3  O1  UNL     1       9.124   1.141  24.764  0.00  0.00    -0.265 OA
ATOM      4  H10 UNL     1       6.619   2.721  26.080  0.00  0.00    +0.155 HD
ENDROOT
BRANCH   1  10
ATOM      5  N1  UNL     1       8.770   6.666  21.913  0.00  0.00    -0.261 N 
ATOM      6  N2  UNL     1       8.263   6.143  20.800  0.00  0.00    -0.178 NA
ATOM      7  C4  UNL     1       7.677   4.960  21.107  0.00  0.00    +0.143 A 
ATOM      8  C5  UNL     1       7.844   4.735  22.456  0.00  0.00    +0.021 A 
ATOM      9  C6  UNL     1       7.475   3.668  23.269  0.00  0.00    +0.035 A 
ATOM     10  C7  UNL     1       7.832   3.725  24.637  0.00  0.00    +0.035 A 
ATOM     11  C19 UNL     1       8.577   4.832  25.120  0.00  0.00    +0.025 A 
ATOM     12  C20 UNL     1       8.935   5.892  24.265  0.00  0.00    +0.030 A 
ATOM     13  C21 UNL     1       8.537   5.810  22.930  0.00  0.00    +0.069 A 
BRANCH   5  15
ATOM     14  C1  UNL     1       8.665   9.106  22.290  0.00  0.00    +0.032 C 
ATOM     15  C2  UNL     1       9.557   7.905  21.958  0.00  0.00    +0.102 C 
ATOM     16  C3  UNL     1      10.275   8.111  20.624  0.00  0.00    +0.032 C 
ENDBRANCH   5  15
ENDBRANCH   1  10
BRANCH   2  17
ATOM     17  C9  UNL     1       8.048   0.512  26.774  0.00  0.00    +0.303 C 
ATOM     18  O2  UNL     1       7.309  -0.496  26.606  0.00  0.00    -0.265 OA
ATOM     19  N4  UNL     1       8.626   0.778  28.063  0.00  0.00    -0.278 N 
ATOM     20  H11 UNL     1       8.953   1.750  28.266  0.00  0.00    +0.155 HD
BRANCH  19  21
ATOM     21  C10 UNL     1       8.669  -0.180  29.136  0.00  0.00    +0.034 A 
ATOM     22  C11 UNL     1       9.747  -1.070  29.281  0.00  0.00    +0.026 A 
ATOM     23  C12 UNL     1       9.770  -1.983  30.338  0.00  0.00    +0.040 A 
ATOM     24  C13 UNL     1       8.732  -2.004  31.273  0.00  0.00    +0.127 A 
ATOM     25  F1  UNL     1       8.761  -2.915  32.278  0.00  0.00    -0.205 F 
ATOM     26  C14 UNL     1       7.673  -1.086  31.171  0.00  0.00    -0.007 A 
ATOM     27  C18 UNL     1       7.641  -0.189  30.091  0.00  0.00    +0.030 A 
BRANCH  26  28
ATOM     28  C15 UNL     1       6.533  -1.124  32.154  0.00  0.00    +0.022 C 
ATOM     29  C16 UNL     1       5.809   0.201  32.365  0.00  0.00    +0.009 C 
ATOM     30  C17 UNL     1       6.755  -0.320  33.430  0.00  0.00    +0.009 C 
ENDBRANCH  26  28
ENDBRANCH  19  21
ENDBRANCH   2  17
TORSDOF 5
ENDMDL
MODEL 6
REMARK VINA RESULT:    -6.723     16.190     18.188
REMARK INTER + INTRA:          -8.631
REMARK INTER:                  -8.332
REMARK INTRA:                  -0.299
REMARK UNBOUND:                 0.057
REMARK  Name = /home/qwerty/github/datacon2025hack/step_04_hit_selection/docking/ligands/lig_32.pdb
REMARK  7 active torsions:
REMARK  status: ('A' for Active; 'I' for Inactive)
REMARK    1  A    between atoms: C1_1  and  C2_2
REMARK    2  A    between atoms: C2_2  and  C3_3
REMARK    3  A    between atoms: C2_2  and  N1_4
REMARK    4  A    between atoms: C7_9  and  N3_10
REMARK    5  A    between atoms: C8_11  and  C9_13
REMARK    6  A    between atoms: N4_15  and  C10_16
REMARK    7  A    between atoms: C14_21  and  C15_22
REMARK                            x       y       z     vdW  Elec       q    Type
REMARK                         _______ _______ _______ _____ _____    ______ ____
ROOT
ATOM      1  N3  UNL     1      16.906   7.740  19.037  0.00  0.00    -0.278 N 
ATOM      2  C8  UNL     1      16.742   6.857  20.160  0.00  0.00    +0.303 C 
ATOM      3  O1  UNL     1      17.491   6.967  21.168  0.00  0.00    -0.265 OA
ATOM      4  H10 UNL     1      16.516   7.441  18.114  0.00  0.00    +0.155 HD
ENDROOT
BRANCH   1  10
ATOM      5  N1  UNL     1      20.035  12.323  19.254  0.00  0.00    -0.261 N 
ATOM      6  N2  UNL     1      21.233  11.801  19.002  0.00  0.00    -0.178 NA
ATOM      7  C4  UNL     1      21.086  10.471  18.783  0.00  0.00    +0.143 A 
ATOM      8  C5  UNL     1      19.752  10.157  18.922  0.00  0.00    +0.021 A 
ATOM      9  C6  UNL     1      19.072   8.946  18.843  0.00  0.00    +0.035 A 
ATOM     10  C7  UNL     1      17.676   8.954  19.076  0.00  0.00    +0.035 A 
ATOM     11  C19 UNL     1      17.032  10.171  19.417  0.00  0.00    +0.025 A 
ATOM     12  C20 UNL     1      17.754  11.377  19.493  0.00  0.00    +0.030 A 
ATOM     13  C21 UNL     1      19.123  11.330  19.225  0.00  0.00    +0.069 A 
BRANCH   5  15
ATOM     14  C1  UNL     1      20.730  14.656  18.824  0.00  0.00    +0.032 C 
ATOM     15  C2  UNL     1      19.810  13.726  19.623  0.00  0.00    +0.102 C 
ATOM     16  C3  UNL     1      20.025  13.907  21.127  0.00  0.00    +0.032 C 
ENDBRANCH   5  15
ENDBRANCH   1  10
BRANCH   2  17
ATOM     17  C9  UNL     1      15.727   5.787  20.125  0.00  0.00    +0.303 C 
ATOM     18  O2  UNL     1      16.025   4.666  19.630  0.00  0.00    -0.265 OA
ATOM     19  N4  UNL     1      14.396   6.031  20.610  0.00  0.00    -0.278 N 
ATOM     20  H11 UNL     1      14.083   7.024  20.711  0.00  0.00    +0.155 HD
BRANCH  19  21
ATOM     21  C10 UNL     1      13.425   4.996  20.848  0.00  0.00    +0.034 A 
ATOM     22  C11 UNL     1      13.806   3.731  21.326  0.00  0.00    +0.026 A 
ATOM     23  C12 UNL     1      12.842   2.746  21.558  0.00  0.00    +0.040 A 
ATOM     24  C13 UNL     1      11.489   3.019  21.339  0.00  0.00    +0.127 A 
ATOM     25  F1  UNL     1      10.572   2.042  21.548  0.00  0.00    -0.205 F 
ATOM     26  C14 UNL     1      11.088   4.296  20.911  0.00  0.00    -0.007 A 
ATOM     27  C18 UNL     1      12.063   5.273  20.652  0.00  0.00    +0.030 A 
BRANCH  26  28
ATOM     28  C15 UNL     1       9.636   4.589  20.640  0.00  0.00    +0.022 C 
ATOM     29  C16 UNL     1       9.256   6.065  20.651  0.00  0.00    +0.009 C 
ATOM     30  C17 UNL     1       8.867   5.177  21.817  0.00  0.00    +0.009 C 
ENDBRANCH  26  28
ENDBRANCH  19  21
ENDBRANCH   2  17
TORSDOF 5
ENDMDL
MODEL 7
REMARK VINA RESULT:    -6.701     12.943     14.759
REMARK INTER + INTRA:          -8.603
REMARK INTER:                  -7.961
REMARK INTRA:                  -0.642
REMARK UNBOUND:                 0.057
REMARK  Name = /home/qwerty/github/datacon2025hack/step_04_hit_selection/docking/ligands/lig_32.pdb
REMARK  7 active torsions:
REMARK  status: ('A' for Active; 'I' for Inactive)
REMARK    1  A    between atoms: C1_1  and  C2_2
REMARK    2  A    between atoms: C2_2  and  C3_3
REMARK    3  A    between atoms: C2_2  and  N1_4
REMARK    4  A    between atoms: C7_9  and  N3_10
REMARK    5  A    between atoms: C8_11  and  C9_13
REMARK    6  A    between atoms: N4_15  and  C10_16
REMARK    7  A    between atoms: C14_21  and  C15_22
REMARK                            x       y       z     vdW  Elec       q    Type
REMARK                         _______ _______ _______ _____ _____    ______ ____
ROOT
ATOM      1  N3  UNL     1       6.586   6.175  29.446  0.00  0.00    -0.278 N 
ATOM      2  C8  UNL     1       7.534   5.109  29.624  0.00  0.00    +0.303 C 
ATOM      3  O1  UNL     1       8.718   5.236  29.210  0.00  0.00    -0.265 OA
ATOM      4  H10 UNL     1       5.568   5.943  29.495  0.00  0.00    +0.155 HD
ENDROOT
BRANCH   1  10
ATOM      5  N1  UNL     1       8.102  11.293  27.911  0.00  0.00    -0.261 N 
ATOM      6  N2  UNL     1       8.293  11.099  26.608  0.00  0.00    -0.178 NA
ATOM      7  C4  UNL     1       7.990   9.812  26.315  0.00  0.00    +0.143 A 
ATOM      8  C5  UNL     1       7.615   9.181  27.481  0.00  0.00    +0.021 A 
ATOM      9  C6  UNL     1       7.248   7.866  27.746  0.00  0.00    +0.035 A 
ATOM     10  C7  UNL     1       6.949   7.519  29.085  0.00  0.00    +0.035 A 
ATOM     11  C19 UNL     1       7.069   8.500  30.105  0.00  0.00    +0.025 A 
ATOM     12  C20 UNL     1       7.448   9.820  29.798  0.00  0.00    +0.030 A 
ATOM     13  C21 UNL     1       7.704  10.128  28.461  0.00  0.00    +0.069 A 
BRANCH   5  15
ATOM     14  C1  UNL     1       7.991  13.758  27.772  0.00  0.00    +0.032 C 
ATOM     15  C2  UNL     1       8.410  12.546  28.611  0.00  0.00    +0.102 C 
ATOM     16  C3  UNL     1       9.902  12.601  28.943  0.00  0.00    +0.032 C 
ENDBRANCH   5  15
ENDBRANCH   1  10
BRANCH   2  17
ATOM     17  C9  UNL     1       7.119   3.840  30.253  0.00  0.00    +0.303 C 
ATOM     18  O2  UNL     1       5.891   3.575  30.362  0.00  0.00    -0.265 OA
ATOM     19  N4  UNL     1       8.103   2.932  30.777  0.00  0.00    -0.278 N 
ATOM     20  H11 UNL     1       9.063   3.301  30.965  0.00  0.00    +0.155 HD
BRANCH  19  21
ATOM     21  C10 UNL     1       7.817   1.579  31.173  0.00  0.00    +0.034 A 
ATOM     22  C11 UNL     1       7.999   0.502  30.289  0.00  0.00    +0.026 A 
ATOM     23  C12 UNL     1       7.724  -0.804  30.702  0.00  0.00    +0.040 A 
ATOM     24  C13 UNL     1       7.287  -1.052  32.006  0.00  0.00    +0.127 A 
ATOM     25  F1  UNL     1       7.002  -2.325  32.380  0.00  0.00    -0.205 F 
ATOM     26  C14 UNL     1       7.150   0.008  32.917  0.00  0.00    -0.007 A 
ATOM     27  C18 UNL     1       7.401   1.322  32.488  0.00  0.00    +0.030 A 
BRANCH  26  28
ATOM     28  C15 UNL     1       6.647  -0.246  34.314  0.00  0.00    +0.022 C 
ATOM     29  C16 UNL     1       7.037   0.803  35.348  0.00  0.00    +0.009 C 
ATOM     30  C17 UNL     1       7.730  -0.546  35.344  0.00  0.00    +0.009 C 
ENDBRANCH  26  28
ENDBRANCH  19  21
ENDBRANCH   2  17
TORSDOF 5
ENDMDL
MODEL 8
REMARK VINA RESULT:    -6.563     12.641     15.458
REMARK INTER + INTRA:          -8.424
REMARK INTER:                  -7.724
REMARK INTRA:                  -0.701
REMARK UNBOUND:                 0.057
REMARK  Name = /home/qwerty/github/datacon2025hack/step_04_hit_selection/docking/ligands/lig_32.pdb
REMARK  7 active torsions:
REMARK  status: ('A' for Active; 'I' for Inactive)
REMARK    1  A    between atoms: C1_1  and  C2_2
REMARK    2  A    between atoms: C2_2  and  C3_3
REMARK    3  A    between atoms: C2_2  and  N1_4
REMARK    4  A    between atoms: C7_9  and  N3_10
REMARK    5  A    between atoms: C8_11  and  C9_13
REMARK    6  A    between atoms: N4_15  and  C10_16
REMARK    7  A    between atoms: C14_21  and  C15_22
REMARK                            x       y       z     vdW  Elec       q    Type
REMARK                         _______ _______ _______ _____ _____    ______ ____
ROOT
ATOM      1  N3  UNL     1      20.320   5.773  24.177  0.00  0.00    -0.278 N 
ATOM      2  C8  UNL     1      21.134   6.209  23.074  0.00  0.00    +0.303 C 
ATOM      3  O1  UNL     1      22.352   5.890  23.020  0.00  0.00    -0.265 OA
ATOM      4  H10 UNL     1      19.435   6.293  24.372  0.00  0.00    +0.155 HD
ENDROOT
BRANCH   1  10
ATOM      5  N1  UNL     1      21.642   1.695  27.707  0.00  0.00    -0.261 N 
ATOM      6  N2  UNL     1      21.030   0.669  27.120  0.00  0.00    -0.178 NA
ATOM      7  C4  UNL     1      20.451   1.111  25.977  0.00  0.00    +0.143 A 
ATOM      8  C5  UNL     1      20.700   2.460  25.861  0.00  0.00    +0.021 A 
ATOM      9  C6  UNL     1      20.307   3.397  24.910  0.00  0.00    +0.035 A 
ATOM     10  C7  UNL     1      20.707   4.741  25.101  0.00  0.00    +0.035 A 
ATOM     11  C19 UNL     1      21.449   5.092  26.258  0.00  0.00    +0.025 A 
ATOM     12  C20 UNL     1      21.824   4.117  27.201  0.00  0.00    +0.030 A 
ATOM     13  C21 UNL     1      21.436   2.798  26.960  0.00  0.00    +0.069 A 
BRANCH   5  15
ATOM     14  C1  UNL     1      23.720   1.037  28.874  0.00  0.00    +0.032 C 
ATOM     15  C2  UNL     1      22.308   1.618  29.013  0.00  0.00    +0.102 C 
ATOM     16  C3  UNL     1      21.466   0.781  29.976  0.00  0.00    +0.032 C 
ENDBRANCH   5  15
ENDBRANCH   1  10
BRANCH   2  17
ATOM     17  C9  UNL     1      20.562   7.069  22.020  0.00  0.00    +0.303 C 
ATOM     18  O2  UNL     1      20.642   6.708  20.815  0.00  0.00    -0.265 OA
ATOM     19  N4  UNL     1      19.957   8.329  22.359  0.00  0.00    -0.278 N 
ATOM     20  H11 UNL     1      20.181   8.749  23.289  0.00  0.00    +0.155 HD
BRANCH  19  21
ATOM     21  C10 UNL     1      19.161   9.108  21.448  0.00  0.00    +0.034 A 
ATOM     22  C11 UNL     1      17.790   8.853  21.270  0.00  0.00    +0.026 A 
ATOM     23  C12 UNL     1      17.037   9.631  20.387  0.00  0.00    +0.040 A 
ATOM     24  C13 UNL     1      17.636  10.683  19.690  0.00  0.00    +0.127 A 
ATOM     25  F1  UNL     1      16.892  11.411  18.819  0.00  0.00    -0.205 F 
ATOM     26  C14 UNL     1      18.993  10.983  19.896  0.00  0.00    -0.007 A 
ATOM     27  C18 UNL     1      19.752  10.181  20.763  0.00  0.00    +0.030 A 
BRANCH  26  28
ATOM     28  C15 UNL     1      19.654  12.094  19.123  0.00  0.00    +0.022 C 
ATOM     29  C16 UNL     1      20.923  12.659  19.751  0.00  0.00    +0.009 C 
ATOM     30  C17 UNL     1      19.634  13.456  19.808  0.00  0.00    +0.009 C 
ENDBRANCH  26  28
ENDBRANCH  19  21
ENDBRANCH   2  17
TORSDOF 5
ENDMDL
MODEL 9
REMARK VINA RESULT:    -6.488     10.977     14.436
REMARK INTER + INTRA:          -8.327
REMARK INTER:                  -7.748
REMARK INTRA:                  -0.579
REMARK UNBOUND:                 0.057
REMARK  Name = /home/qwerty/github/datacon2025hack/step_04_hit_selection/docking/ligands/lig_32.pdb
REMARK  7 active torsions:
REMARK  status: ('A' for Active; 'I' for Inactive)
REMARK    1  A    between atoms: C1_1  and  C2_2
REMARK    2  A    between atoms: C2_2  and  C3_3
REMARK    3  A    between atoms: C2_2  and  N1_4
REMARK    4  A    between atoms: C7_9  and  N3_10
REMARK    5  A    between atoms: C8_11  and  C9_13
REMARK    6  A    between atoms: N4_15  and  C10_16
REMARK    7  A    between atoms: C14_21  and  C15_22
REMARK                            x       y       z     vdW  Elec       q    Type
REMARK                         _______ _______ _______ _____ _____    ______ ____
ROOT
ATOM      1  N3  UNL     1      22.288   4.073  25.073  0.00  0.00    -0.278 N 
ATOM      2  C8  UNL     1      21.210   4.288  24.145  0.00  0.00    +0.303 C 
ATOM      3  O1  UNL     1      20.078   3.776  24.359  0.00  0.00    -0.265 OA
ATOM      4  H10 UNL     1      23.266   4.222  24.734  0.00  0.00    +0.155 HD
ENDROOT
BRANCH   1  10
ATOM      5  N1  UNL     1      21.552   1.887  30.124  0.00  0.00    -0.261 N 
ATOM      6  N2  UNL     1      21.837   0.612  29.871  0.00  0.00    -0.178 NA
ATOM      7  C4  UNL     1      22.193   0.501  28.568  0.00  0.00    +0.143 A 
ATOM      8  C5  UNL     1      22.108   1.748  27.991  0.00  0.00    +0.021 A 
ATOM      9  C6  UNL     1      22.323   2.181  26.686  0.00  0.00    +0.035 A 
ATOM     10  C7  UNL     1      22.113   3.552  26.401  0.00  0.00    +0.035 A 
ATOM     11  C19 UNL     1      21.658   4.418  27.429  0.00  0.00    +0.025 A 
ATOM     12  C20 UNL     1      21.448   3.941  28.737  0.00  0.00    +0.030 A 
ATOM     13  C21 UNL     1      21.697   2.590  28.983  0.00  0.00    +0.069 A 
BRANCH   5  15
ATOM     14  C1  UNL     1      22.163   3.036  32.226  0.00  0.00    +0.032 C 
ATOM     15  C2  UNL     1      21.044   2.377  31.411  0.00  0.00    +0.102 C 
ATOM     16  C3  UNL     1      20.407   1.226  32.191  0.00  0.00    +0.032 C 
ENDBRANCH   5  15
ENDBRANCH   1  10
BRANCH   2  17
ATOM     17  C9  UNL     1      21.430   5.072  22.915  0.00  0.00    +0.303 C 
ATOM     18  O2  UNL     1      20.678   4.887  21.920  0.00  0.00    -0.265 OA
ATOM     19  N4  UNL     1      22.518   6.008  22.834  0.00  0.00    -0.278 N 
ATOM     20  H11 UNL     1      23.299   5.916  23.523  0.00  0.00    +0.155 HD
BRANCH  19  21
ATOM     21  C10 UNL     1      22.660   6.986  21.788  0.00  0.00    +0.034 A 
ATOM     22  C11 UNL     1      23.760   6.969  20.913  0.00  0.00    +0.026 A 
ATOM     23  C12 UNL     1      23.868   7.924  19.899  0.00  0.00    +0.040 A 
ATOM     24  C13 UNL     1      22.874   8.891  19.733  0.00  0.00    +0.127 A 
ATOM     25  F1  UNL     1      23.010   9.824  18.758  0.00  0.00    -0.205 F 
ATOM     26  C14 UNL     1      21.743   8.889  20.567  0.00  0.00    -0.007 A 
ATOM     27  C18 UNL     1      21.653   7.945  21.602  0.00  0.00    +0.030 A 
BRANCH  26  28
ATOM     28  C15 UNL     1      20.682   9.948  20.418  0.00  0.00    +0.022 C 
ATOM     29  C16 UNL     1      19.260   9.494  20.724  0.00  0.00    +0.009 C 
ATOM     30  C17 UNL     1      19.690   9.710  19.286  0.00  0.00    +0.009 C 
ENDBRANCH  26  28
ENDBRANCH  19  21
ENDBRANCH   2  17
TORSDOF 5
ENDMDL
