MODEL 1
REMARK VINA RESULT:    -5.883      0.000      0.000
REMARK INTER + INTRA:          -8.360
REMARK INTER:                  -7.602
REMARK INTRA:                  -0.758
REMARK UNBOUND:                -0.758
REMARK  Name = /home/qwerty/github/datacon2025hack/step_04_hit_selection/docking/ligands/lig_738.pdb
REMARK  7 active torsions:
REMARK  status: ('A' for Active; 'I' for Inactive)
REMARK    1  A    between atoms: C1_1  and  C2_2
REMARK    2  A    between atoms: C4_5  and  C5_6
REMARK    3  A    between atoms: N2_8  and  C6_9
REMARK    4  A    between atoms: C6_9  and  C7_10
REMARK    5  A    between atoms: C7_10  and  N3_11
REMARK    6  A    between atoms: C8_12  and  C9_14
REMARK    7  A    between atoms: C17_23  and  C18_24
REMARK                            x       y       z     vdW  Elec       q    Type
REMARK                         _______ _______ _______ _____ _____    ______ ____
ROOT
ATOM      1  C6  UNL     1      23.036   1.041  29.181  0.00  0.00    +0.050 C 
ATOM      2  C14 UNL     1      22.149  -0.208  29.070  0.00  0.00    +0.027 C 
ATOM      3  C15 UNL     1      23.400  -1.083  29.042  0.00  0.00    +0.004 C 
ATOM      4  C16 UNL     1      24.287   0.154  29.151  0.00  0.00    +0.027 C 
ENDROOT
BRANCH   1   7
ATOM      5  C5  UNL     1      21.765   2.612  30.820  0.00  0.00    +0.248 C 
ATOM      6  O1  UNL     1      20.703   2.586  30.142  0.00  0.00    -0.270 OA
ATOM      7  N2  UNL     1      22.883   1.779  30.453  0.00  0.00    -0.304 N 
ATOM      8  H5  UNL     1      23.636   1.668  31.169  0.00  0.00    +0.150 HD
BRANCH   5  13
ATOM      9  C1  UNL     1      22.134   6.241  35.255  0.00  0.00    +0.088 C 
ATOM     10  C2  UNL     1      22.066   5.272  34.122  0.00  0.00    +0.126 A 
ATOM     11  N1  UNL     1      22.628   5.582  32.928  0.00  0.00    -0.240 NA
ATOM     12  C3  UNL     1      22.547   4.732  31.873  0.00  0.00    +0.127 A 
ATOM     13  C4  UNL     1      21.863   3.513  31.994  0.00  0.00    +0.076 A 
ATOM     14  C17 UNL     1      21.279   3.212  33.247  0.00  0.00    +0.054 A 
ATOM     15  C18 UNL     1      20.537   1.932  33.503  0.00  0.00    +0.066 C 
ATOM     16  N4  UNL     1      21.390   4.104  34.268  0.00  0.00    -0.237 NA
ENDBRANCH   5  13
ENDBRANCH   1   7
BRANCH   1  17
ATOM     17  C7  UNL     1      22.935   1.974  27.952  0.00  0.00    +0.130 C 
BRANCH  17  18
ATOM     18  N3  UNL     1      21.608   1.883  27.342  0.00  0.00    -0.309 N 
ATOM     19  C8  UNL     1      21.376   2.135  25.948  0.00  0.00    +0.243 C 
ATOM     20  O2  UNL     1      22.179   2.865  25.305  0.00  0.00    -0.270 OA
ATOM     21  H8  UNL     1      20.826   1.519  27.931  0.00  0.00    +0.149 HD
BRANCH  19  22
ATOM     22  C9  UNL     1      20.202   1.545  25.259  0.00  0.00    +0.049 C 
ATOM     23  C10 UNL     1      19.735   0.336  25.623  0.00  0.00    +0.195 C 
ATOM     24  O3  UNL     1      18.627  -0.239  24.987  0.00  0.00    -0.499 OA
ATOM     25  C11 UNL     1      18.044   0.317  23.811  0.00  0.00    +0.228 C 
ATOM     26  C12 UNL     1      18.104   1.842  23.873  0.00  0.00    +0.046 C 
ATOM     27  C13 UNL     1      19.550   2.291  24.113  0.00  0.00    +0.047 C 
ENDBRANCH  19  22
ENDBRANCH  17  18
ENDBRANCH   1  17
TORSDOF 5
ENDMDL
MODEL 2
REMARK VINA RESULT:    -5.859     14.069     16.640
REMARK INTER + INTRA:          -8.329
REMARK INTER:                  -7.466
REMARK INTRA:                  -0.863
REMARK UNBOUND:                -0.758
REMARK  Name = /home/qwerty/github/datacon2025hack/step_04_hit_selection/docking/ligands/lig_738.pdb
REMARK  7 active torsions:
REMARK  status: ('A' for Active; 'I' for Inactive)
REMARK    1  A    between atoms: C1_1  and  C2_2
REMARK    2  A    between atoms: C4_5  and  C5_6
REMARK    3  A    between atoms: N2_8  and  C6_9
REMARK    4  A    between atoms: C6_9  and  C7_10
REMARK    5  A    between atoms: C7_10  and  N3_11
REMARK    6  A    between atoms: C8_12  and  C9_14
REMARK    7  A    between atoms: C17_23  and  C18_24
REMARK                            x       y       z     vdW  Elec       q    Type
REMARK                         _______ _______ _______ _____ _____    ______ ____
ROOT
ATOM      1  C6  UNL     1      12.416  14.076  30.993  0.00  0.00    +0.050 C 
ATOM      2  C14 UNL     1      13.368  15.135  30.417  0.00  0.00    +0.027 C 
ATOM      3  C15 UNL     1      14.545  14.191  30.648  0.00  0.00    +0.004 C 
ATOM      4  C16 UNL     1      13.605  13.134  31.223  0.00  0.00    +0.027 C 
ENDROOT
BRANCH   1   7
ATOM      5  C5  UNL     1      10.714  12.305  30.134  0.00  0.00    +0.248 C 
ATOM      6  O1  UNL     1      10.702  11.675  31.224  0.00  0.00    -0.270 OA
ATOM      7  N2  UNL     1      11.440  13.545  30.017  0.00  0.00    -0.304 N 
ATOM      8  H5  UNL     1      11.230  14.132  29.178  0.00  0.00    +0.150 HD
BRANCH   5  13
ATOM      9  C1  UNL     1       7.963  10.025  25.638  0.00  0.00    +0.088 C 
ATOM     10  C2  UNL     1       8.684  10.653  26.784  0.00  0.00    +0.126 A 
ATOM     11  N1  UNL     1       9.914  10.205  27.140  0.00  0.00    -0.240 NA
ATOM     12  C3  UNL     1      10.573  10.737  28.200  0.00  0.00    +0.127 A 
ATOM     13  C4  UNL     1       9.986  11.758  28.963  0.00  0.00    +0.076 A 
ATOM     14  C17 UNL     1       8.700  12.206  28.577  0.00  0.00    +0.054 A 
ATOM     15  C18 UNL     1       7.979  13.303  29.304  0.00  0.00    +0.066 C 
ATOM     16  N4  UNL     1       8.086  11.634  27.507  0.00  0.00    -0.237 NA
ENDBRANCH   5  13
ENDBRANCH   1   7
BRANCH   1  17
ATOM     17  C7  UNL     1      11.738  14.515  32.312  0.00  0.00    +0.130 C 
BRANCH  17  18
ATOM     18  N3  UNL     1      12.035  13.567  33.386  0.00  0.00    -0.309 N 
ATOM     19  C8  UNL     1      11.205  13.428  34.550  0.00  0.00    +0.243 C 
ATOM     20  O2  UNL     1      10.474  14.390  34.912  0.00  0.00    -0.270 OA
ATOM     21  H8  UNL     1      12.825  12.899  33.241  0.00  0.00    +0.149 HD
BRANCH  19  22
ATOM     22  C9  UNL     1      11.201  12.163  35.327  0.00  0.00    +0.049 C 
ATOM     23  C10 UNL     1      11.376  10.982  34.708  0.00  0.00    +0.195 C 
ATOM     24  O3  UNL     1      11.378   9.777  35.422  0.00  0.00    -0.499 OA
ATOM     25  C11 UNL     1      11.014   9.702  36.799  0.00  0.00    +0.228 C 
ATOM     26  C12 UNL     1      11.495  10.953  37.531  0.00  0.00    +0.046 C 
ATOM     27  C13 UNL     1      10.960  12.202  36.822  0.00  0.00    +0.047 C 
ENDBRANCH  19  22
ENDBRANCH  17  18
ENDBRANCH   1  17
TORSDOF 5
ENDMDL
MODEL 3
REMARK VINA RESULT:    -5.810     13.977     15.180
REMARK INTER + INTRA:          -8.266
REMARK INTER:                  -7.437
REMARK INTRA:                  -0.830
REMARK UNBOUND:                -0.758
REMARK  Name = /home/qwerty/github/datacon2025hack/step_04_hit_selection/docking/ligands/lig_738.pdb
REMARK  7 active torsions:
REMARK  status: ('A' for Active; 'I' for Inactive)
REMARK    1  A    between atoms: C1_1  and  C2_2
REMARK    2  A    between atoms: C4_5  and  C5_6
REMARK    3  A    between atoms: N2_8  and  C6_9
REMARK    4  A    between atoms: C6_9  and  C7_10
REMARK    5  A    between atoms: C7_10  and  N3_11
REMARK    6  A    between atoms: C8_12  and  C9_14
REMARK    7  A    between atoms: C17_23  and  C18_24
REMARK                            x       y       z     vdW  Elec       q    Type
REMARK                         _______ _______ _______ _____ _____    ______ ____
ROOT
ATOM      1  C6  UNL     1       8.041   9.057  26.421  0.00  0.00    +0.050 C 
ATOM      2  C14 UNL     1       7.108   7.984  27.000  0.00  0.00    +0.027 C 
ATOM      3  C15 UNL     1       8.201   6.937  26.800  0.00  0.00    +0.004 C 
ATOM      4  C16 UNL     1       9.133   7.998  26.223  0.00  0.00    +0.027 C 
ENDROOT
BRANCH   1   7
ATOM      5  C5  UNL     1       9.580  10.966  27.291  0.00  0.00    +0.248 C 
ATOM      6  O1  UNL     1      10.242  11.024  26.222  0.00  0.00    -0.270 OA
ATOM      7  N2  UNL     1       8.425  10.108  27.387  0.00  0.00    -0.304 N 
ATOM      8  H5  UNL     1       7.790  10.271  28.201  0.00  0.00    +0.150 HD
BRANCH   5  13
ATOM      9  C1  UNL     1      11.378  14.045  31.793  0.00  0.00    +0.088 C 
ATOM     10  C2  UNL     1      10.874  13.239  30.643  0.00  0.00    +0.126 A 
ATOM     11  N1  UNL     1      11.390  12.008  30.398  0.00  0.00    -0.240 NA
ATOM     12  C3  UNL     1      10.973  11.272  29.337  0.00  0.00    +0.127 A 
ATOM     13  C4  UNL     1      10.002  11.778  28.460  0.00  0.00    +0.076 A 
ATOM     14  C17 UNL     1       9.481  13.066  28.731  0.00  0.00    +0.054 A 
ATOM     15  C18 UNL     1       8.427  13.704  27.874  0.00  0.00    +0.066 C 
ATOM     16  N4  UNL     1       9.939  13.758  29.808  0.00  0.00    -0.237 NA
ENDBRANCH   5  13
ENDBRANCH   1   7
BRANCH   1  17
ATOM     17  C7  UNL     1       7.537   9.652  25.086  0.00  0.00    +0.130 C 
BRANCH  17  18
ATOM     18  N3  UNL     1       8.491   9.386  24.009  0.00  0.00    -0.309 N 
ATOM     19  C8  UNL     1       8.548  10.175  22.811  0.00  0.00    +0.243 C 
ATOM     20  O2  UNL     1       7.527  10.813  22.435  0.00  0.00    -0.270 OA
ATOM     21  H8  UNL     1       9.221   8.657  24.175  0.00  0.00    +0.149 HD
BRANCH  19  22
ATOM     22  C9  UNL     1       9.798  10.246  22.013  0.00  0.00    +0.049 C 
ATOM     23  C10 UNL     1      10.997  10.261  22.623  0.00  0.00    +0.195 C 
ATOM     24  O3  UNL     1      12.188  10.326  21.890  0.00  0.00    -0.499 OA
ATOM     25  C11 UNL     1      12.210  10.566  20.485  0.00  0.00    +0.228 C 
ATOM     26  C12 UNL     1      11.016   9.884  19.823  0.00  0.00    +0.046 C 
ATOM     27  C13 UNL     1       9.720  10.342  20.503  0.00  0.00    +0.047 C 
ENDBRANCH  19  22
ENDBRANCH  17  18
ENDBRANCH   1  17
TORSDOF 5
ENDMDL
MODEL 4
REMARK VINA RESULT:    -5.740     12.574     15.872
REMARK INTER + INTRA:          -8.176
REMARK INTER:                  -7.346
REMARK INTRA:                  -0.830
REMARK UNBOUND:                -0.758
REMARK  Name = /home/qwerty/github/datacon2025hack/step_04_hit_selection/docking/ligands/lig_738.pdb
REMARK  7 active torsions:
REMARK  status: ('A' for Active; 'I' for Inactive)
REMARK    1  A    between atoms: C1_1  and  C2_2
REMARK    2  A    between atoms: C4_5  and  C5_6
REMARK    3  A    between atoms: N2_8  and  C6_9
REMARK    4  A    between atoms: C6_9  and  C7_10
REMARK    5  A    between atoms: C7_10  and  N3_11
REMARK    6  A    between atoms: C8_12  and  C9_14
REMARK    7  A    between atoms: C17_23  and  C18_24
REMARK                            x       y       z     vdW  Elec       q    Type
REMARK                         _______ _______ _______ _____ _____    ______ ____
ROOT
ATOM      1  C6  UNL     1      11.951  12.091  35.903  0.00  0.00    +0.050 C 
ATOM      2  C14 UNL     1      12.295  10.677  36.395  0.00  0.00    +0.027 C 
ATOM      3  C15 UNL     1      11.262  10.821  37.508  0.00  0.00    +0.004 C 
ATOM      4  C16 UNL     1      10.915  12.227  37.027  0.00  0.00    +0.027 C 
ENDROOT
BRANCH   1   7
ATOM      5  C5  UNL     1      12.035  11.887  33.311  0.00  0.00    +0.248 C 
ATOM      6  O1  UNL     1      13.192  11.388  33.311  0.00  0.00    -0.270 OA
ATOM      7  N2  UNL     1      11.348  12.132  34.554  0.00  0.00    -0.304 N 
ATOM      8  H5  UNL     1      10.323  12.325  34.490  0.00  0.00    +0.150 HD
BRANCH   5  13
ATOM      9  C1  UNL     1       9.400  13.107  28.357  0.00  0.00    +0.088 C 
ATOM     10  C2  UNL     1      10.123  12.797  29.625  0.00  0.00    +0.126 A 
ATOM     11  N1  UNL     1      10.150  11.526  30.098  0.00  0.00    -0.240 NA
ATOM     12  C3  UNL     1      10.769  11.226  31.267  0.00  0.00    +0.127 A 
ATOM     13  C4  UNL     1      11.387  12.234  32.022  0.00  0.00    +0.076 A 
ATOM     14  C17 UNL     1      11.342  13.554  31.514  0.00  0.00    +0.054 A 
ATOM     15  C18 UNL     1      11.981  14.712  32.223  0.00  0.00    +0.066 C 
ATOM     16  N4  UNL     1      10.704  13.795  30.337  0.00  0.00    -0.237 NA
ENDBRANCH   5  13
ENDBRANCH   1   7
BRANCH   1  17
ATOM     17  C7  UNL     1      13.122  13.091  36.046  0.00  0.00    +0.130 C 
BRANCH  17  18
ATOM     18  N3  UNL     1      14.407  12.401  35.929  0.00  0.00    -0.309 N 
ATOM     19  C8  UNL     1      15.599  12.863  36.583  0.00  0.00    +0.243 C 
ATOM     20  O2  UNL     1      15.706  14.080  36.897  0.00  0.00    -0.270 OA
ATOM     21  H8  UNL     1      14.422  11.482  35.432  0.00  0.00    +0.149 HD
BRANCH  19  22
ATOM     22  C9  UNL     1      16.703  11.921  36.893  0.00  0.00    +0.049 C 
ATOM     23  C10 UNL     1      17.972  12.226  36.564  0.00  0.00    +0.195 C 
ATOM     24  O3  UNL     1      19.029  11.353  36.848  0.00  0.00    -0.499 OA
ATOM     25  C11 UNL     1      18.819  10.026  37.326  0.00  0.00    +0.228 C 
ATOM     26  C12 UNL     1      17.614   9.996  38.263  0.00  0.00    +0.046 C 
ATOM     27  C13 UNL     1      16.394  10.591  37.550  0.00  0.00    +0.047 C 
ENDBRANCH  19  22
ENDBRANCH  17  18
ENDBRANCH   1  17
TORSDOF 5
ENDMDL
MODEL 5
REMARK VINA RESULT:    -5.735      4.515     10.002
REMARK INTER + INTRA:          -8.170
REMARK INTER:                  -7.367
REMARK INTRA:                  -0.803
REMARK UNBOUND:                -0.758
REMARK  Name = /home/qwerty/github/datacon2025hack/step_04_hit_selection/docking/ligands/lig_738.pdb
REMARK  7 active torsions:
REMARK  status: ('A' for Active; 'I' for Inactive)
REMARK    1  A    between atoms: C1_1  and  C2_2
REMARK    2  A    between atoms: C4_5  and  C5_6
REMARK    3  A    between atoms: N2_8  and  C6_9
REMARK    4  A    between atoms: C6_9  and  C7_10
REMARK    5  A    between atoms: C7_10  and  N3_11
REMARK    6  A    between atoms: C8_12  and  C9_14
REMARK    7  A    between atoms: C17_23  and  C18_24
REMARK                            x       y       z     vdW  Elec       q    Type
REMARK                         _______ _______ _______ _____ _____    ______ ____
ROOT
ATOM      1  C6  UNL     1      23.483   7.662  33.112  0.00  0.00    +0.050 C 
ATOM      2  C14 UNL     1      23.121   8.943  32.346  0.00  0.00    +0.027 C 
ATOM      3  C15 UNL     1      24.604   9.285  32.233  0.00  0.00    +0.004 C 
ATOM      4  C16 UNL     1      24.971   8.014  32.994  0.00  0.00    +0.027 C 
ENDROOT
BRANCH   1   7
ATOM      5  C5  UNL     1      21.797   5.888  32.228  0.00  0.00    +0.248 C 
ATOM      6  O1  UNL     1      20.792   6.600  32.490  0.00  0.00    -0.270 OA
ATOM      7  N2  UNL     1      23.128   6.414  32.403  0.00  0.00    -0.304 N 
ATOM      8  H5  UNL     1      23.905   5.874  31.959  0.00  0.00    +0.150 HD
BRANCH   5  13
ATOM      9  C1  UNL     1      20.964   0.468  30.523  0.00  0.00    +0.088 C 
ATOM     10  C2  UNL     1      21.219   1.875  30.948  0.00  0.00    +0.126 A 
ATOM     11  N1  UNL     1      21.420   2.164  32.258  0.00  0.00    -0.240 NA
ATOM     12  C3  UNL     1      21.618   3.440  32.672  0.00  0.00    +0.127 A 
ATOM     13  C4  UNL     1      21.605   4.497  31.749  0.00  0.00    +0.076 A 
ATOM     14  C17 UNL     1      21.387   4.174  30.388  0.00  0.00    +0.054 A 
ATOM     15  C18 UNL     1      21.369   5.216  29.308  0.00  0.00    +0.066 C 
ATOM     16  N4  UNL     1      21.192   2.876  30.032  0.00  0.00    -0.237 NA
ENDBRANCH   5  13
ENDBRANCH   1   7
BRANCH   1  17
ATOM     17  C7  UNL     1      22.983   7.661  34.575  0.00  0.00    +0.130 C 
BRANCH  17  18
ATOM     18  N3  UNL     1      21.765   8.461  34.704  0.00  0.00    -0.309 N 
ATOM     19  C8  UNL     1      21.206   8.824  35.976  0.00  0.00    +0.243 C 
ATOM     20  O2  UNL     1      21.458   8.120  36.992  0.00  0.00    -0.270 OA
ATOM     21  H8  UNL     1      21.352   8.865  33.833  0.00  0.00    +0.149 HD
BRANCH  19  22
ATOM     22  C9  UNL     1      20.337  10.021  36.105  0.00  0.00    +0.049 C 
ATOM     23  C10 UNL     1      19.228   9.979  36.866  0.00  0.00    +0.195 C 
ATOM     24  O3  UNL     1      18.395  11.096  37.002  0.00  0.00    -0.499 OA
ATOM     25  C11 UNL     1      18.556  12.273  36.214  0.00  0.00    +0.228 C 
ATOM     26  C12 UNL     1      20.040  12.531  35.964  0.00  0.00    +0.046 C 
ATOM     27  C13 UNL     1      20.681  11.285  35.343  0.00  0.00    +0.047 C 
ENDBRANCH  19  22
ENDBRANCH  17  18
ENDBRANCH   1  17
TORSDOF 5
ENDMDL
MODEL 6
REMARK VINA RESULT:    -5.724      2.205      3.411
REMARK INTER + INTRA:          -8.155
REMARK INTER:                  -7.289
REMARK INTRA:                  -0.866
REMARK UNBOUND:                -0.758
REMARK  Name = /home/qwerty/github/datacon2025hack/step_04_hit_selection/docking/ligands/lig_738.pdb
REMARK  7 active torsions:
REMARK  status: ('A' for Active; 'I' for Inactive)
REMARK    1  A    between atoms: C1_1  and  C2_2
REMARK    2  A    between atoms: C4_5  and  C5_6
REMARK    3  A    between atoms: N2_8  and  C6_9
REMARK    4  A    between atoms: C6_9  and  C7_10
REMARK    5  A    between atoms: C7_10  and  N3_11
REMARK    6  A    between atoms: C8_12  and  C9_14
REMARK    7  A    between atoms: C17_23  and  C18_24
REMARK                            x       y       z     vdW  Elec       q    Type
REMARK                         _______ _______ _______ _____ _____    ______ ____
ROOT
ATOM      1  C6  UNL     1      22.189   0.374  28.934  0.00  0.00    +0.050 C 
ATOM      2  C14 UNL     1      23.088  -0.871  28.974  0.00  0.00    +0.027 C 
ATOM      3  C15 UNL     1      24.321   0.029  28.969  0.00  0.00    +0.004 C 
ATOM      4  C16 UNL     1      23.434   1.270  28.928  0.00  0.00    +0.027 C 
ENDROOT
BRANCH   1   7
ATOM      5  C5  UNL     1      20.628   1.748  30.497  0.00  0.00    +0.248 C 
ATOM      6  O1  UNL     1      20.478   2.676  29.659  0.00  0.00    -0.270 OA
ATOM      7  N2  UNL     1      21.354   0.555  30.141  0.00  0.00    -0.304 N 
ATOM      8  H5  UNL     1      21.250  -0.263  30.783  0.00  0.00    +0.150 HD
BRANCH   5  13
ATOM      9  C1  UNL     1      18.367   2.156  35.760  0.00  0.00    +0.088 C 
ATOM     10  C2  UNL     1      18.948   2.092  34.387  0.00  0.00    +0.126 A 
ATOM     11  N1  UNL     1      18.267   1.476  33.389  0.00  0.00    -0.240 NA
ATOM     12  C3  UNL     1      18.791   1.374  32.142  0.00  0.00    +0.127 A 
ATOM     13  C4  UNL     1      20.064   1.895  31.862  0.00  0.00    +0.076 A 
ATOM     14  C17 UNL     1      20.760   2.528  32.919  0.00  0.00    +0.054 A 
ATOM     15  C18 UNL     1      22.119   3.138  32.736  0.00  0.00    +0.066 C 
ATOM     16  N4  UNL     1      20.185   2.598  34.149  0.00  0.00    -0.237 NA
ENDBRANCH   5  13
ENDBRANCH   1   7
BRANCH   1  17
ATOM     17  C7  UNL     1      21.362   0.490  27.633  0.00  0.00    +0.130 C 
BRANCH  17  18
ATOM     18  N3  UNL     1      21.624   1.766  26.967  0.00  0.00    -0.309 N 
ATOM     19  C8  UNL     1      20.907   2.194  25.798  0.00  0.00    +0.243 C 
ATOM     20  O2  UNL     1      20.368   1.334  25.049  0.00  0.00    -0.270 OA
ATOM     21  H8  UNL     1      22.288   2.428  27.428  0.00  0.00    +0.149 HD
BRANCH  19  22
ATOM     22  C9  UNL     1      20.796   3.636  25.467  0.00  0.00    +0.049 C 
ATOM     23  C10 UNL     1      20.404   4.522  26.400  0.00  0.00    +0.195 C 
ATOM     24  O3  UNL     1      20.294   5.888  26.109  0.00  0.00    -0.499 OA
ATOM     25  C11 UNL     1      20.405   6.400  24.783  0.00  0.00    +0.228 C 
ATOM     26  C12 UNL     1      21.443   5.598  24.003  0.00  0.00    +0.046 C 
ATOM     27  C13 UNL     1      21.089   4.107  24.057  0.00  0.00    +0.047 C 
ENDBRANCH  19  22
ENDBRANCH  17  18
ENDBRANCH   1  17
TORSDOF 5
ENDMDL
MODEL 7
REMARK VINA RESULT:    -5.688      9.053     12.967
REMARK INTER + INTRA:          -8.109
REMARK INTER:                  -7.634
REMARK INTRA:                  -0.475
REMARK UNBOUND:                -0.758
REMARK  Name = /home/qwerty/github/datacon2025hack/step_04_hit_selection/docking/ligands/lig_738.pdb
REMARK  7 active torsions:
REMARK  status: ('A' for Active; 'I' for Inactive)
REMARK    1  A    between atoms: C1_1  and  C2_2
REMARK    2  A    between atoms: C4_5  and  C5_6
REMARK    3  A    between atoms: N2_8  and  C6_9
REMARK    4  A    between atoms: C6_9  and  C7_10
REMARK    5  A    between atoms: C7_10  and  N3_11
REMARK    6  A    between atoms: C8_12  and  C9_14
REMARK    7  A    between atoms: C17_23  and  C18_24
REMARK                            x       y       z     vdW  Elec       q    Type
REMARK                         _______ _______ _______ _____ _____    ______ ____
ROOT
ATOM      1  C6  UNL     1      18.427  11.041  36.613  0.00  0.00    +0.050 C 
ATOM      2  C14 UNL     1      19.559  12.073  36.508  0.00  0.00    +0.027 C 
ATOM      3  C15 UNL     1      19.938  11.507  35.142  0.00  0.00    +0.004 C 
ATOM      4  C16 UNL     1      18.815  10.478  35.240  0.00  0.00    +0.027 C 
ENDROOT
BRANCH   1   7
ATOM      5  C5  UNL     1      15.859  10.981  36.198  0.00  0.00    +0.248 C 
ATOM      6  O1  UNL     1      15.847   9.743  35.971  0.00  0.00    -0.270 OA
ATOM      7  N2  UNL     1      17.071  11.630  36.632  0.00  0.00    -0.304 N 
ATOM      8  H5  UNL     1      16.970  12.594  37.022  0.00  0.00    +0.150 HD
BRANCH   5  13
ATOM      9  C1  UNL     1      11.053  14.073  35.630  0.00  0.00    +0.088 C 
ATOM     10  C2  UNL     1      12.289  13.245  35.745  0.00  0.00    +0.126 A 
ATOM     11  N1  UNL     1      12.461  12.427  36.813  0.00  0.00    -0.240 NA
ATOM     12  C3  UNL     1      13.592  11.691  36.958  0.00  0.00    +0.127 A 
ATOM     13  C4  UNL     1      14.620  11.774  36.006  0.00  0.00    +0.076 A 
ATOM     14  C17 UNL     1      14.422  12.639  34.903  0.00  0.00    +0.054 A 
ATOM     15  C18 UNL     1      15.441  12.798  33.813  0.00  0.00    +0.066 C 
ATOM     16  N4  UNL     1      13.268  13.353  34.812  0.00  0.00    -0.237 NA
ENDBRANCH   5  13
ENDBRANCH   1   7
BRANCH   1  17
ATOM     17  C7  UNL     1      18.632  10.021  37.757  0.00  0.00    +0.130 C 
BRANCH  17  18
ATOM     18  N3  UNL     1      19.924   9.347  37.622  0.00  0.00    -0.309 N 
ATOM     19  C8  UNL     1      20.044   7.925  37.458  0.00  0.00    +0.243 C 
ATOM     20  O2  UNL     1      19.120   7.170  37.869  0.00  0.00    -0.270 OA
ATOM     21  H8  UNL     1      20.778   9.943  37.539  0.00  0.00    +0.149 HD
BRANCH  19  22
ATOM     22  C9  UNL     1      21.243   7.338  36.810  0.00  0.00    +0.049 C 
ATOM     23  C10 UNL     1      22.330   7.029  37.540  0.00  0.00    +0.195 C 
ATOM     24  O3  UNL     1      23.472   6.473  36.950  0.00  0.00    -0.499 OA
ATOM     25  C11 UNL     1      23.631   6.373  35.536  0.00  0.00    +0.228 C 
ATOM     26  C12 UNL     1      22.285   6.070  34.882  0.00  0.00    +0.046 C 
ATOM     27  C13 UNL     1      21.257   7.123  35.310  0.00  0.00    +0.047 C 
ENDBRANCH  19  22
ENDBRANCH  17  18
ENDBRANCH   1  17
TORSDOF 5
ENDMDL
MODEL 8
REMARK VINA RESULT:    -5.676     12.033     14.942
REMARK INTER + INTRA:          -8.093
REMARK INTER:                  -7.157
REMARK INTRA:                  -0.936
REMARK UNBOUND:                -0.758
REMARK  Name = /home/qwerty/github/datacon2025hack/step_04_hit_selection/docking/ligands/lig_738.pdb
REMARK  7 active torsions:
REMARK  status: ('A' for Active; 'I' for Inactive)
REMARK    1  A    between atoms: C1_1  and  C2_2
REMARK    2  A    between atoms: C4_5  and  C5_6
REMARK    3  A    between atoms: N2_8  and  C6_9
REMARK    4  A    between atoms: C6_9  and  C7_10
REMARK    5  A    between atoms: C7_10  and  N3_11
REMARK    6  A    between atoms: C8_12  and  C9_14
REMARK    7  A    between atoms: C17_23  and  C18_24
REMARK                            x       y       z     vdW  Elec       q    Type
REMARK                         _______ _______ _______ _____ _____    ______ ____
ROOT
ATOM      1  C6  UNL     1      11.030   8.860  20.533  0.00  0.00    +0.050 C 
ATOM      2  C14 UNL     1      11.470   9.919  19.511  0.00  0.00    +0.027 C 
ATOM      3  C15 UNL     1      12.207  10.669  20.616  0.00  0.00    +0.004 C 
ATOM      4  C16 UNL     1      11.773   9.622  21.638  0.00  0.00    +0.027 C 
ENDROOT
BRANCH   1   7
ATOM      5  C5  UNL     1      12.078   6.603  21.291  0.00  0.00    +0.248 C 
ATOM      6  O1  UNL     1      11.851   6.818  22.511  0.00  0.00    -0.270 OA
ATOM      7  N2  UNL     1      11.588   7.514  20.287  0.00  0.00    -0.304 N 
ATOM      8  H5  UNL     1      11.604   7.171  19.299  0.00  0.00    +0.150 HD
BRANCH   5  13
ATOM      9  C1  UNL     1      15.260   2.047  19.843  0.00  0.00    +0.088 C 
ATOM     10  C2  UNL     1      14.416   3.230  20.180  0.00  0.00    +0.126 A 
ATOM     11  N1  UNL     1      14.988   4.450  20.338  0.00  0.00    -0.240 NA
ATOM     12  C3  UNL     1      14.246   5.533  20.680  0.00  0.00    +0.127 A 
ATOM     13  C4  UNL     1      12.865   5.410  20.892  0.00  0.00    +0.076 A 
ATOM     14  C17 UNL     1      12.289   4.127  20.727  0.00  0.00    +0.054 A 
ATOM     15  C18 UNL     1      10.821   3.875  20.910  0.00  0.00    +0.066 C 
ATOM     16  N4  UNL     1      13.083   3.077  20.386  0.00  0.00    -0.237 NA
ENDBRANCH   5  13
ENDBRANCH   1   7
BRANCH   1  17
ATOM     17  C7  UNL     1       9.501   8.823  20.757  0.00  0.00    +0.130 C 
BRANCH  17  18
ATOM     18  N3  UNL     1       9.170   8.006  21.925  0.00  0.00    -0.309 N 
ATOM     19  C8  UNL     1       8.147   6.998  21.903  0.00  0.00    +0.243 C 
ATOM     20  O2  UNL     1       7.212   7.078  21.060  0.00  0.00    -0.270 OA
ATOM     21  H8  UNL     1       9.777   8.098  22.771  0.00  0.00    +0.149 HD
BRANCH  19  22
ATOM     22  C9  UNL     1       8.183   5.865  22.861  0.00  0.00    +0.049 C 
ATOM     23  C10 UNL     1       8.797   5.998  24.051  0.00  0.00    +0.195 C 
ATOM     24  O3  UNL     1       8.842   4.942  24.970  0.00  0.00    -0.499 OA
ATOM     25  C11 UNL     1       8.413   3.622  24.642  0.00  0.00    +0.228 C 
ATOM     26  C12 UNL     1       7.211   3.685  23.704  0.00  0.00    +0.046 C 
ATOM     27  C13 UNL     1       7.558   4.539  22.479  0.00  0.00    +0.047 C 
ENDBRANCH  19  22
ENDBRANCH  17  18
ENDBRANCH   1  17
TORSDOF 5
ENDMDL
MODEL 9
REMARK VINA RESULT:    -5.630      2.010      3.343
REMARK INTER + INTRA:          -8.034
REMARK INTER:                  -7.257
REMARK INTRA:                  -0.777
REMARK UNBOUND:                -0.758
REMARK  Name = /home/qwerty/github/datacon2025hack/step_04_hit_selection/docking/ligands/lig_738.pdb
REMARK  7 active torsions:
REMARK  status: ('A' for Active; 'I' for Inactive)
REMARK    1  A    between atoms: C1_1  and  C2_2
REMARK    2  A    between atoms: C4_5  and  C5_6
REMARK    3  A    between atoms: N2_8  and  C6_9
REMARK    4  A    between atoms: C6_9  and  C7_10
REMARK    5  A    between atoms: C7_10  and  N3_11
REMARK    6  A    between atoms: C8_12  and  C9_14
REMARK    7  A    between atoms: C17_23  and  C18_24
REMARK                            x       y       z     vdW  Elec       q    Type
REMARK                         _______ _______ _______ _____ _____    ______ ____
ROOT
ATOM      1  C6  UNL     1      20.647   1.714  31.729  0.00  0.00    +0.050 C 
ATOM      2  C14 UNL     1      19.374   1.712  30.871  0.00  0.00    +0.027 C 
ATOM      3  C15 UNL     1      19.018   0.331  31.416  0.00  0.00    +0.004 C 
ATOM      4  C16 UNL     1      20.282   0.326  32.271  0.00  0.00    +0.027 C 
ENDROOT
BRANCH   1   7
ATOM      5  C5  UNL     1      20.732   4.179  32.557  0.00  0.00    +0.248 C 
ATOM      6  O1  UNL     1      20.548   4.653  31.405  0.00  0.00    -0.270 OA
ATOM      7  N2  UNL     1      20.667   2.756  32.778  0.00  0.00    -0.304 N 
ATOM      8  H5  UNL     1      20.596   2.441  33.772  0.00  0.00    +0.150 HD
BRANCH   5  13
ATOM      9  C1  UNL     1      21.765   7.626  37.033  0.00  0.00    +0.088 C 
ATOM     10  C2  UNL     1      21.500   6.764  35.844  0.00  0.00    +0.126 A 
ATOM     11  N1  UNL     1      20.260   6.253  35.637  0.00  0.00    -0.240 NA
ATOM     12  C3  UNL     1      20.005   5.438  34.583  0.00  0.00    +0.127 A 
ATOM     13  C4  UNL     1      21.028   5.094  33.688  0.00  0.00    +0.076 A 
ATOM     14  C17 UNL     1      22.315   5.632  33.925  0.00  0.00    +0.054 A 
ATOM     15  C18 UNL     1      23.484   5.350  33.027  0.00  0.00    +0.066 C 
ATOM     16  N4  UNL     1      22.513   6.442  34.999  0.00  0.00    -0.237 NA
ENDBRANCH   5  13
ENDBRANCH   1   7
BRANCH   1  17
ATOM     17  C7  UNL     1      21.948   1.707  30.894  0.00  0.00    +0.130 C 
BRANCH  17  18
ATOM     18  N3  UNL     1      21.725   2.321  29.585  0.00  0.00    -0.309 N 
ATOM     19  C8  UNL     1      22.456   1.934  28.411  0.00  0.00    +0.243 C 
ATOM     20  O2  UNL     1      23.593   1.402  28.532  0.00  0.00    -0.270 OA
ATOM     21  H8  UNL     1      20.930   2.993  29.492  0.00  0.00    +0.149 HD
BRANCH  19  22
ATOM     22  C9  UNL     1      21.884   2.155  27.059  0.00  0.00    +0.049 C 
ATOM     23  C10 UNL     1      20.836   1.425  26.635  0.00  0.00    +0.195 C 
ATOM     24  O3  UNL     1      20.280   1.618  25.364  0.00  0.00    -0.499 OA
ATOM     25  C11 UNL     1      20.889   2.450  24.380  0.00  0.00    +0.228 C 
ATOM     26  C12 UNL     1      21.539   3.658  25.051  0.00  0.00    +0.046 C 
ATOM     27  C13 UNL     1      22.511   3.181  26.137  0.00  0.00    +0.047 C 
ENDBRANCH  19  22
ENDBRANCH  17  18
ENDBRANCH   1  17
TORSDOF 5
ENDMDL
