REMARK  Name = /home/qwerty/github/datacon2025hack/step_04_hit_selection/docking/ligands/lig_96.pdb
REMARK  7 active torsions:
REMARK  status: ('A' for Active; 'I' for Inactive)
REMARK    1  A    between atoms: C1_1  and  O1_2
REMARK    2  A    between atoms: O1_2  and  C2_3
REMARK    3  A    between atoms: C2_3  and  C3_4
REMARK    4  A    between atoms: C7_9  and  C8_11
REMARK    5  A    between atoms: N2_13  and  C9_14
REMARK    6  A    between atoms: C14_19  and  N3_20
REMARK    7  A    between atoms: N3_20  and  C15_21
REMARK                            x       y       z     vdW  Elec       q    Type
REMARK                         _______ _______ _______ _____ _____    ______ ____
ROOT
ATOM      1  C9  UNL     1       1.360  -2.901  -0.550  0.00  0.00    +0.055 A 
ATOM      2  C10 UNL     1       0.851  -3.797  -1.503  0.00  0.00    +0.025 A 
ATOM      3  C11 UNL     1       1.697  -4.712  -2.134  0.00  0.00    +0.002 A 
ATOM      4  C12 UNL     1       3.053  -4.749  -1.810  0.00  0.00    +0.002 A 
ATOM      5  C13 UNL     1       3.571  -3.863  -0.862  0.00  0.00    +0.025 A 
ATOM      6  C14 UNL     1       2.739  -2.921  -0.241  0.00  0.00    +0.053 A 
ENDROOT
BRANCH   1   9
ATOM      7  C8  UNL     1      -0.363  -1.069  -0.496  0.00  0.00    +0.303 C 
ATOM      8  O3  UNL     1      -0.524  -1.131  -1.744  0.00  0.00    -0.265 OA
ATOM      9  N2  UNL     1       0.467  -2.035   0.166  0.00  0.00    -0.276 N 
ATOM     10  H13 UNL     1       0.593  -1.964   1.201  0.00  0.00    +0.155 HD
BRANCH   7  16
ATOM     11  C3  UNL     1      -2.119   2.296   0.452  0.00  0.00    +0.102 C 
ATOM     12  C4  UNL     1      -1.918   3.554  -0.395  0.00  0.00    +0.026 C 
ATOM     13  C5  UNL     1      -1.721   3.058  -1.821  0.00  0.00    +0.021 C 
ATOM     14  C6  UNL     1      -1.220   1.627  -1.692  0.00  0.00    +0.108 C 
ATOM     15  N1  UNL     1      -1.515   1.217  -0.324  0.00  0.00    -0.289 N 
ATOM     16  C7  UNL     1      -1.001   0.013   0.288  0.00  0.00    +0.302 C 
ATOM     17  O2  UNL     1      -1.070  -0.117   1.541  0.00  0.00    -0.265 OA
BRANCH  11  18
ATOM     18  C2  UNL     1      -3.611   2.013   0.695  0.00  0.00    +0.181 C 
BRANCH  18  20
ATOM     19  C1  UNL     1      -5.118   0.591   1.698  0.00  0.00    +0.194 C 
ATOM     20  O1  UNL     1      -3.750   0.871   1.513  0.00  0.00    -0.381 OA
ENDBRANCH  18  20
ENDBRANCH  11  18
ENDBRANCH   7  16
ENDBRANCH   1   9
BRANCH   6  21
ATOM     21  N3  UNL     1       3.312  -1.997   0.700  0.00  0.00    -0.309 N 
ATOM     22  H18 UNL     1       4.030  -2.355   1.370  0.00  0.00    +0.152 HD
BRANCH  21  23
ATOM     23  C15 UNL     1       2.979  -0.599   0.742  0.00  0.00    +0.103 A 
ATOM     24  C16 UNL     1       2.825   0.040   1.983  0.00  0.00    +0.147 A 
ATOM     25  F1  UNL     1       2.980  -0.657   3.136  0.00  0.00    -0.203 F 
ATOM     26  C17 UNL     1       2.463   1.390   2.040  0.00  0.00    +0.040 A 
ATOM     27  C18 UNL     1       2.272   2.116   0.862  0.00  0.00    +0.006 A 
ATOM     28  C19 UNL     1       2.448   1.496  -0.377  0.00  0.00    +0.040 A 
ATOM     29  C20 UNL     1       2.803   0.145  -0.443  0.00  0.00    +0.147 A 
ATOM     30  F2  UNL     1       2.990  -0.430  -1.657  0.00  0.00    -0.203 F 
ENDBRANCH  21  23
ENDBRANCH   6  21
TORSDOF 6
