REMARK  Name = /home/qwerty/github/datacon2025hack/step_04_hit_selection/docking/ligands/lig_547.pdb
REMARK  7 active torsions:
REMARK  status: ('A' for Active; 'I' for Inactive)
REMARK    1  A    between atoms: C1_1  and  C2_2
REMARK    2  A    between atoms: C4_4  and  C5_5
REMARK    3  A    between atoms: C7_7  and  C8_8
REMARK    4  A    between atoms: C8_8  and  N1_9
REMARK    5  A    between atoms: C11_12  and  C12_13
REMARK    6  A    between atoms: C12_13  and  N2_14
REMARK    7  A    between atoms: C13_15  and  C14_17
REMARK                            x       y       z     vdW  Elec       q    Type
REMARK                         _______ _______ _______ _____ _____    ______ ____
ROOT
ATOM      1  C12 UNL     1       0.519   1.773   1.706  0.00  0.00    +0.123 C 
ENDROOT
BRANCH   1   5
ATOM      2  N1  UNL     1      -0.393   0.518  -0.251  0.00  0.00    -0.294 NA
ATOM      3  C9  UNL     1      -0.268  -0.893   0.144  0.00  0.00    +0.086 C 
ATOM      4  C10 UNL     1      -0.507  -0.586   1.613  0.00  0.00    +0.036 C 
ATOM      5  C11 UNL     1      -0.603   0.867   1.162  0.00  0.00    +0.075 C 
BRANCH   2   6
ATOM      6  C8  UNL     1      -1.528   0.826  -1.159  0.00  0.00    +0.120 C 
BRANCH   6  13
ATOM      7  C1  UNL     1      -5.964   1.602   1.141  0.00  0.00    +0.044 C 
ATOM      8  C2  UNL     1      -5.044   0.701   0.371  0.00  0.00    -0.050 A 
ATOM      9  C3  UNL     1      -5.485  -0.559  -0.055  0.00  0.00    +0.006 A 
ATOM     10  C4  UNL     1      -4.648  -1.382  -0.821  0.00  0.00    -0.050 A 
ATOM     11  C5  UNL     1      -5.145  -2.705  -1.323  0.00  0.00    +0.044 C 
ATOM     12  C6  UNL     1      -3.372  -0.926  -1.183  0.00  0.00    +0.008 A 
ATOM     13  C7  UNL     1      -2.903   0.323  -0.738  0.00  0.00    -0.033 A 
ATOM     14  C21 UNL     1      -3.767   1.148   0.004  0.00  0.00    +0.008 A 
ENDBRANCH   6  13
ENDBRANCH   2   6
ENDBRANCH   1   5
BRANCH   1  15
ATOM     15  N2  UNL     1       1.853   1.269   1.370  0.00  0.00    -0.309 N 
ATOM     16  C13 UNL     1       2.485   1.529   0.105  0.00  0.00    +0.262 C 
ATOM     17  O1  UNL     1       1.946   2.325  -0.712  0.00  0.00    -0.269 OA
ATOM     18  H18 UNL     1       2.369   0.732   2.102  0.00  0.00    +0.149 HD
BRANCH  16  19
ATOM     19  C14 UNL     1       3.758   0.865  -0.246  0.00  0.00    +0.126 A 
ATOM     20  C15 UNL     1       4.407   1.143  -1.482  0.00  0.00    +0.035 A 
ATOM     21  C16 UNL     1       5.614   0.497  -1.804  0.00  0.00    +0.030 A 
ATOM     22  C17 UNL     1       6.125  -0.403  -0.878  0.00  0.00    +0.065 A 
ATOM     23  N3  UNL     1       7.247  -1.135  -0.958  0.00  0.00    -0.359 N 
ATOM     24  C18 UNL     1       7.300  -1.852   0.191  0.00  0.00    +0.085 A 
ATOM     25  C19 UNL     1       6.204  -1.572   1.006  0.00  0.00    +0.047 A 
ATOM     26  C20 UNL     1       5.477  -0.646   0.295  0.00  0.00    +0.089 A 
ATOM     27  N4  UNL     1       4.314  -0.035   0.624  0.00  0.00    -0.241 NA
ATOM     28  H21 UNL     1       7.937  -1.152  -1.742  0.00  0.00    +0.165 HD
ENDBRANCH  16  19
ENDBRANCH   1  15
TORSDOF 5
