REMARK  Name = /home/qwerty/github/datacon2025hack/step_04_hit_selection/docking/ligands/lig_115.pdb
REMARK  3 active torsions:
REMARK  status: ('A' for Active; 'I' for Inactive)
REMARK    1  A    between atoms: C1_2  and  C14_19
REMARK    2  A    between atoms: N1_3  and  C2_4
REMARK    3  A    between atoms: C6_8  and  C7_9
REMARK                            x       y       z     vdW  Elec       q    Type
REMARK                         _______ _______ _______ _____ _____    ______ ____
ROOT
ATOM      1  O1  UNL     1       0.213  -0.095   1.118  0.00  0.00    -0.270 OA
ATOM      2  C1  UNL     1      -0.289  -1.118   0.577  0.00  0.00    +0.248 C 
ATOM      3  N1  UNL     1       0.427  -2.364   0.610  0.00  0.00    -0.281 N 
ATOM      4  H1  UNL     1      -0.129  -3.249   0.612  0.00  0.00    +0.155 HD
ENDROOT
BRANCH   2   5
ATOM      5  C14 UNL     1      -1.634  -1.029  -0.042  0.00  0.00    +0.038 A 
ATOM      6  C15 UNL     1      -2.072  -2.011  -0.973  0.00  0.00    +0.015 A 
ATOM      7  C16 UNL     1      -3.344  -1.925  -1.569  0.00  0.00    +0.027 A 
ATOM      8  C17 UNL     1      -4.157  -0.851  -1.222  0.00  0.00    +0.047 A 
ATOM      9  N5  UNL     1      -5.392  -0.579  -1.688  0.00  0.00    -0.358 N 
ATOM     10  C18 UNL     1      -5.755   0.574  -1.083  0.00  0.00    +0.020 A 
ATOM     11  C19 UNL     1      -4.771   1.012  -0.213  0.00  0.00    -0.019 A 
ATOM     12  C20 UNL     1      -3.741   0.103  -0.326  0.00  0.00    +0.004 A 
ATOM     13  C21 UNL     1      -2.488   0.053   0.278  0.00  0.00    +0.023 A 
ATOM     14  C22 UNL     1      -4.831   2.298   0.554  0.00  0.00    +0.037 C 
ATOM     15  C23 UNL     1      -6.285   2.804   0.635  0.00  0.00    +0.005 C 
ATOM     16  C24 UNL     1      -7.000   2.713  -0.731  0.00  0.00    +0.006 C 
ATOM     17  C25 UNL     1      -7.079   1.259  -1.238  0.00  0.00    +0.053 C 
ATOM     18  H12 UNL     1      -5.949  -1.137  -2.374  0.00  0.00    +0.166 HD
ENDBRANCH   2   5
BRANCH   3  19
ATOM     19  C2  UNL     1       1.849  -2.462   0.801  0.00  0.00    +0.034 A 
ATOM     20  C3  UNL     1       2.381  -3.593   1.433  0.00  0.00    +0.023 A 
ATOM     21  C4  UNL     1       3.759  -3.719   1.613  0.00  0.00    +0.002 A 
ATOM     22  C5  UNL     1       4.623  -2.724   1.151  0.00  0.00    +0.010 A 
ATOM     23  C6  UNL     1       4.115  -1.589   0.492  0.00  0.00    +0.004 A 
ATOM     24  C13 UNL     1       2.723  -1.471   0.316  0.00  0.00    +0.033 A 
BRANCH  23  25
ATOM     25  C7  UNL     1       5.016  -0.527  -0.021  0.00  0.00    +0.091 A 
ATOM     26  C8  UNL     1       6.409  -0.506   0.057  0.00  0.00    +0.122 A 
ATOM     27  N2  UNL     1       6.813   0.629  -0.527  0.00  0.00    -0.290 N 
ATOM     28  C9  UNL     1       8.056   1.132  -0.717  0.00  0.00    +0.095 A 
ATOM     29  C10 UNL     1       8.167   2.366  -1.372  0.00  0.00    +0.038 A 
ATOM     30  C11 UNL     1       6.991   3.016  -1.797  0.00  0.00    +0.116 A 
ATOM     31  N3  UNL     1       5.768   2.453  -1.573  0.00  0.00    -0.220 NA
ATOM     32  C12 UNL     1       5.704   1.258  -0.935  0.00  0.00    +0.235 A 
ATOM     33  N4  UNL     1       4.570   0.592  -0.650  0.00  0.00    -0.210 NA
ENDBRANCH  23  25
ENDBRANCH   3  19
TORSDOF 3
