MODEL 1
REMARK VINA RESULT:    -7.396      0.000      0.000
REMARK INTER + INTRA:         -10.547
REMARK INTER:                  -9.557
REMARK INTRA:                  -0.990
REMARK UNBOUND:                -0.990
REMARK  Name = /home/qwerty/github/datacon2025hack/step_04_hit_selection/docking/ligands/lig_446.pdb
REMARK  6 active torsions:
REMARK  status: ('A' for Active; 'I' for Inactive)
REMARK    1  A    between atoms: C1_1  and  O1_2
REMARK    2  A    between atoms: O1_2  and  C2_3
REMARK    3  A    between atoms: C5_6  and  C6_7
REMARK    4  A    between atoms: N1_9  and  C7_10
REMARK    5  A    between atoms: C16_23  and  N4_24
REMARK    6  A    between atoms: C17_25  and  C18_27
REMARK                            x       y       z     vdW  Elec       q    Type
REMARK                         _______ _______ _______ _____ _____    ______ ____
ROOT
ATOM      1  C2  UNL     1      11.809  13.831  34.905  0.00  0.00    +0.141 A 
ATOM      2  C3  UNL     1      12.722  14.134  35.933  0.00  0.00    +0.048 A 
ATOM      3  C4  UNL     1      14.031  13.650  35.884  0.00  0.00    +0.017 A 
ATOM      4  C5  UNL     1      14.457  12.851  34.812  0.00  0.00    +0.039 A 
ATOM      5  C15 UNL     1      13.542  12.538  33.793  0.00  0.00    +0.040 A 
ATOM      6  C16 UNL     1      12.227  13.037  33.822  0.00  0.00    +0.077 A 
ENDROOT
BRANCH   4   7
ATOM      7  C6  UNL     1      15.838  12.314  34.765  0.00  0.00    +0.248 C 
ATOM      8  O2  UNL     1      16.185  11.572  33.803  0.00  0.00    -0.270 OA
ATOM      9  N1  UNL     1      16.793  12.634  35.792  0.00  0.00    -0.281 N 
ATOM     10  H6  UNL     1      16.646  13.500  36.357  0.00  0.00    +0.155 HD
BRANCH   9  11
ATOM     11  C7  UNL     1      18.098  12.043  35.814  0.00  0.00    +0.047 A 
ATOM     12  C8  UNL     1      19.133  12.689  35.125  0.00  0.00    +0.024 A 
ATOM     13  C9  UNL     1      20.405  12.121  35.057  0.00  0.00    +0.003 A 
ATOM     14  C10 UNL     1      20.661  10.900  35.681  0.00  0.00    +0.014 A 
ATOM     15  C11 UNL     1      19.646  10.248  36.400  0.00  0.00    +0.054 A 
ATOM     16  C12 UNL     1      18.363  10.824  36.492  0.00  0.00    +0.073 A 
ATOM     17  C13 UNL     1      17.362  10.131  37.347  0.00  0.00    +0.285 C 
ATOM     18  O3  UNL     1      16.241  10.645  37.597  0.00  0.00    -0.267 OA
ATOM     19  N2  UNL     1      17.692   8.867  37.941  0.00  0.00    -0.084 NA
ATOM     20  N3  UNL     1      18.844   8.333  37.815  0.00  0.00    -0.084 NA
ATOM     21  C14 UNL     1      19.897   8.958  37.074  0.00  0.00    +0.284 C 
ATOM     22  O4  UNL     1      21.022   8.398  37.004  0.00  0.00    -0.267 OA
ENDBRANCH   9  11
ENDBRANCH   4   7
BRANCH   6  23
ATOM     23  N4  UNL     1      11.292  12.696  32.781  0.00  0.00    -0.279 N 
ATOM     24  C17 UNL     1      11.190  13.420  31.543  0.00  0.00    +0.248 C 
ATOM     25  O5  UNL     1      11.630  14.600  31.471  0.00  0.00    -0.270 OA
ATOM     26  H11 UNL     1      10.583  11.955  32.976  0.00  0.00    +0.155 HD
BRANCH  24  27
ATOM     27  C18 UNL     1      10.531  12.814  30.360  0.00  0.00    +0.038 A 
ATOM     28  C19 UNL     1      10.798  11.478  30.010  0.00  0.00    +0.014 A 
ATOM     29  C20 UNL     1      10.177  10.898  28.900  0.00  0.00    +0.022 A 
ATOM     30  C21 UNL     1       9.277  11.638  28.128  0.00  0.00    +0.059 A 
ATOM     31 CL1  UNL     1       8.517  10.872  26.739  0.00  0.00    -0.082 Cl
ATOM     32  C22 UNL     1       8.993  12.969  28.473  0.00  0.00    +0.060 A 
ATOM     33 CL2  UNL     1       7.855  13.929  27.536  0.00  0.00    -0.082 Cl
ATOM     34  C23 UNL     1       9.616  13.550  29.585  0.00  0.00    +0.034 A 
ENDBRANCH  24  27
ENDBRANCH   6  23
BRANCH   1  36
ATOM     35  C1  UNL     1       9.623  14.245  36.055  0.00  0.00    +0.277 C 
ATOM     36  O1  UNL     1      10.488  14.308  34.926  0.00  0.00    -0.493 OA
ENDBRANCH   1  36
TORSDOF 5
ENDMDL
MODEL 2
REMARK VINA RESULT:    -7.247     14.820     16.313
REMARK INTER + INTRA:         -10.354
REMARK INTER:                  -9.450
REMARK INTRA:                  -0.904
REMARK UNBOUND:                -0.990
REMARK  Name = /home/qwerty/github/datacon2025hack/step_04_hit_selection/docking/ligands/lig_446.pdb
REMARK  6 active torsions:
REMARK  status: ('A' for Active; 'I' for Inactive)
REMARK    1  A    between atoms: C1_1  and  O1_2
REMARK    2  A    between atoms: O1_2  and  C2_3
REMARK    3  A    between atoms: C5_6  and  C6_7
REMARK    4  A    between atoms: N1_9  and  C7_10
REMARK    5  A    between atoms: C16_23  and  N4_24
REMARK    6  A    between atoms: C17_25  and  C18_27
REMARK                            x       y       z     vdW  Elec       q    Type
REMARK                         _______ _______ _______ _____ _____    ______ ____
ROOT
ATOM      1  C2  UNL     1       9.583   2.695  22.998  0.00  0.00    +0.141 A 
ATOM      2  C3  UNL     1       8.603   3.083  23.932  0.00  0.00    +0.048 A 
ATOM      3  C4  UNL     1       8.621   2.572  25.231  0.00  0.00    +0.017 A 
ATOM      4  C5  UNL     1       9.611   1.661  25.626  0.00  0.00    +0.039 A 
ATOM      5  C15 UNL     1      10.581   1.263  24.691  0.00  0.00    +0.040 A 
ATOM      6  C16 UNL     1      10.585   1.787  23.385  0.00  0.00    +0.077 A 
ENDROOT
BRANCH   4   7
ATOM      7  C6  UNL     1       9.622   1.095  26.997  0.00  0.00    +0.248 C 
ATOM      8  O2  UNL     1      10.331   1.639  27.889  0.00  0.00    -0.270 OA
ATOM      9  N1  UNL     1       8.827  -0.056  27.329  0.00  0.00    -0.281 N 
ATOM     10  H6  UNL     1       7.993  -0.275  26.739  0.00  0.00    +0.155 HD
BRANCH   9  11
ATOM     11  C7  UNL     1       8.904  -0.674  28.620  0.00  0.00    +0.047 A 
ATOM     12  C8  UNL     1       9.959  -1.561  28.872  0.00  0.00    +0.024 A 
ATOM     13  C9  UNL     1      10.042  -2.240  30.087  0.00  0.00    +0.003 A 
ATOM     14  C10 UNL     1       9.071  -2.041  31.069  0.00  0.00    +0.014 A 
ATOM     15  C11 UNL     1       8.020  -1.137  30.848  0.00  0.00    +0.054 A 
ATOM     16  C12 UNL     1       7.939  -0.428  29.632  0.00  0.00    +0.073 A 
ATOM     17  C13 UNL     1       6.856   0.583  29.501  0.00  0.00    +0.285 C 
ATOM     18  O3  UNL     1       6.794   1.356  28.510  0.00  0.00    -0.267 OA
ATOM     19  N2  UNL     1       5.883   0.718  30.546  0.00  0.00    -0.084 NA
ATOM     20  N3  UNL     1       5.940   0.040  31.626  0.00  0.00    -0.084 NA
ATOM     21  C14 UNL     1       6.986  -0.904  31.878  0.00  0.00    +0.284 C 
ATOM     22  O4  UNL     1       7.008  -1.528  32.971  0.00  0.00    -0.267 OA
ENDBRANCH   9  11
ENDBRANCH   4   7
BRANCH   6  23
ATOM     23  N4  UNL     1      11.573   1.361  22.429  0.00  0.00    -0.279 N 
ATOM     24  C17 UNL     1      12.924   1.853  22.415  0.00  0.00    +0.248 C 
ATOM     25  O5  UNL     1      13.196   2.947  22.979  0.00  0.00    -0.270 OA
ATOM     26  H11 UNL     1      11.267   0.745  21.643  0.00  0.00    +0.155 HD
BRANCH  24  27
ATOM     27  C18 UNL     1      13.996   1.112  21.705  0.00  0.00    +0.038 A 
ATOM     28  C19 UNL     1      14.235   1.352  20.341  0.00  0.00    +0.014 A 
ATOM     29  C20 UNL     1      15.246   0.661  19.666  0.00  0.00    +0.022 A 
ATOM     30  C21 UNL     1      16.037  -0.271  20.343  0.00  0.00    +0.059 A 
ATOM     31 CL1  UNL     1      17.299  -1.119  19.459  0.00  0.00    -0.082 Cl
ATOM     32  C22 UNL     1      15.816  -0.512  21.709  0.00  0.00    +0.060 A 
ATOM     33 CL2  UNL     1      16.799  -1.666  22.600  0.00  0.00    -0.082 Cl
ATOM     34  C23 UNL     1      14.802   0.179  22.383  0.00  0.00    +0.034 A 
ENDBRANCH  24  27
ENDBRANCH   6  23
BRANCH   1  36
ATOM     35  C1  UNL     1       9.012   4.434  21.288  0.00  0.00    +0.277 C 
ATOM     36  O1  UNL     1       9.593   3.197  21.685  0.00  0.00    -0.493 OA
ENDBRANCH   1  36
TORSDOF 5
ENDMDL
MODEL 3
REMARK VINA RESULT:    -7.166     14.329     16.183
REMARK INTER + INTRA:         -10.251
REMARK INTER:                  -9.307
REMARK INTRA:                  -0.944
REMARK UNBOUND:                -0.990
REMARK  Name = /home/qwerty/github/datacon2025hack/step_04_hit_selection/docking/ligands/lig_446.pdb
REMARK  6 active torsions:
REMARK  status: ('A' for Active; 'I' for Inactive)
REMARK    1  A    between atoms: C1_1  and  O1_2
REMARK    2  A    between atoms: O1_2  and  C2_3
REMARK    3  A    between atoms: C5_6  and  C6_7
REMARK    4  A    between atoms: N1_9  and  C7_10
REMARK    5  A    between atoms: C16_23  and  N4_24
REMARK    6  A    between atoms: C17_25  and  C18_27
REMARK                            x       y       z     vdW  Elec       q    Type
REMARK                         _______ _______ _______ _____ _____    ______ ____
ROOT
ATOM      1  C2  UNL     1       7.703   2.267  25.931  0.00  0.00    +0.141 A 
ATOM      2  C3  UNL     1       7.787   3.245  24.923  0.00  0.00    +0.048 A 
ATOM      3  C4  UNL     1       8.755   3.150  23.921  0.00  0.00    +0.017 A 
ATOM      4  C5  UNL     1       9.662   2.080  23.905  0.00  0.00    +0.039 A 
ATOM      5  C15 UNL     1       9.586   1.110  24.918  0.00  0.00    +0.040 A 
ATOM      6  C16 UNL     1       8.603   1.185  25.921  0.00  0.00    +0.077 A 
ENDROOT
BRANCH   4   7
ATOM      7  C6  UNL     1      10.708   1.984  22.858  0.00  0.00    +0.248 C 
ATOM      8  O2  UNL     1      10.379   1.690  21.675  0.00  0.00    -0.270 OA
ATOM      9  N1  UNL     1      12.089   2.235  23.167  0.00  0.00    -0.281 N 
ATOM     10  H6  UNL     1      12.316   2.817  24.004  0.00  0.00    +0.155 HD
BRANCH   9  11
ATOM     11  C7  UNL     1      13.123   2.049  22.191  0.00  0.00    +0.047 A 
ATOM     12  C8  UNL     1      13.210   2.962  21.132  0.00  0.00    +0.024 A 
ATOM     13  C9  UNL     1      14.153   2.788  20.119  0.00  0.00    +0.003 A 
ATOM     14  C10 UNL     1      15.024   1.699  20.154  0.00  0.00    +0.014 A 
ATOM     15  C11 UNL     1      14.972   0.787  21.220  0.00  0.00    +0.054 A 
ATOM     16  C12 UNL     1      14.038   0.966  22.259  0.00  0.00    +0.073 A 
ATOM     17  C13 UNL     1      14.100   0.019  23.405  0.00  0.00    +0.285 C 
ATOM     18  O3  UNL     1      13.399   0.187  24.437  0.00  0.00    -0.267 OA
ATOM     19  N2  UNL     1      15.010  -1.089  23.359  0.00  0.00    -0.084 NA
ATOM     20  N3  UNL     1      15.824  -1.266  22.392  0.00  0.00    -0.084 NA
ATOM     21  C14 UNL     1      15.891  -0.368  21.279  0.00  0.00    +0.284 C 
ATOM     22  O4  UNL     1      16.730  -0.578  20.364  0.00  0.00    -0.267 OA
ENDBRANCH   9  11
ENDBRANCH   4   7
BRANCH   6  23
ATOM     23  N4  UNL     1       8.544   0.194  26.964  0.00  0.00    -0.279 N 
ATOM     24  C17 UNL     1       9.322   0.270  28.171  0.00  0.00    +0.248 C 
ATOM     25  O5  UNL     1      10.361   0.985  28.200  0.00  0.00    -0.270 OA
ATOM     26  H11 UNL     1       7.990  -0.674  26.791  0.00  0.00    +0.155 HD
BRANCH  24  27
ATOM     27  C18 UNL     1       8.945  -0.518  29.370  0.00  0.00    +0.038 A 
ATOM     28  C19 UNL     1       9.841  -1.460  29.906  0.00  0.00    +0.014 A 
ATOM     29  C20 UNL     1       9.495  -2.203  31.038  0.00  0.00    +0.022 A 
ATOM     30  C21 UNL     1       8.256  -2.013  31.656  0.00  0.00    +0.059 A 
ATOM     31 CL1  UNL     1       7.858  -2.967  33.079  0.00  0.00    -0.082 Cl
ATOM     32  C22 UNL     1       7.356  -1.067  31.137  0.00  0.00    +0.060 A 
ATOM     33 CL2  UNL     1       5.794  -0.787  31.894  0.00  0.00    -0.082 Cl
ATOM     34  C23 UNL     1       7.704  -0.324  30.002  0.00  0.00    +0.034 A 
ENDBRANCH  24  27
ENDBRANCH   6  23
BRANCH   1  36
ATOM     35  C1  UNL     1       6.831   3.168  28.099  0.00  0.00    +0.277 C 
ATOM     36  O1  UNL     1       6.736   2.334  26.949  0.00  0.00    -0.493 OA
ENDBRANCH   1  36
TORSDOF 5
ENDMDL
MODEL 4
REMARK VINA RESULT:    -7.035      1.877      2.723
REMARK INTER + INTRA:         -10.081
REMARK INTER:                  -9.183
REMARK INTRA:                  -0.898
REMARK UNBOUND:                -0.990
REMARK  Name = /home/qwerty/github/datacon2025hack/step_04_hit_selection/docking/ligands/lig_446.pdb
REMARK  6 active torsions:
REMARK  status: ('A' for Active; 'I' for Inactive)
REMARK    1  A    between atoms: C1_1  and  O1_2
REMARK    2  A    between atoms: O1_2  and  C2_3
REMARK    3  A    between atoms: C5_6  and  C6_7
REMARK    4  A    between atoms: N1_9  and  C7_10
REMARK    5  A    between atoms: C16_23  and  N4_24
REMARK    6  A    between atoms: C17_25  and  C18_27
REMARK                            x       y       z     vdW  Elec       q    Type
REMARK                         _______ _______ _______ _____ _____    ______ ____
ROOT
ATOM      1  C2  UNL     1      12.306  13.057  35.607  0.00  0.00    +0.141 A 
ATOM      2  C3  UNL     1      13.212  13.034  36.684  0.00  0.00    +0.048 A 
ATOM      3  C4  UNL     1      14.141  11.999  36.808  0.00  0.00    +0.017 A 
ATOM      4  C5  UNL     1      14.186  10.963  35.863  0.00  0.00    +0.039 A 
ATOM      5  C15 UNL     1      13.273  10.978  34.795  0.00  0.00    +0.040 A 
ATOM      6  C16 UNL     1      12.346  12.026  34.649  0.00  0.00    +0.077 A 
ENDROOT
BRANCH   4   7
ATOM      7  C6  UNL     1      15.154   9.848  36.001  0.00  0.00    +0.248 C 
ATOM      8  O2  UNL     1      15.292   9.024  35.054  0.00  0.00    -0.270 OA
ATOM      9  N1  UNL     1      15.946   9.699  37.191  0.00  0.00    -0.281 N 
ATOM     10  H6  UNL     1      16.111  10.538  37.790  0.00  0.00    +0.155 HD
BRANCH   9  11
ATOM     11  C7  UNL     1      16.811   8.571  37.380  0.00  0.00    +0.047 A 
ATOM     12  C8  UNL     1      16.247   7.366  37.819  0.00  0.00    +0.024 A 
ATOM     13  C9  UNL     1      17.054   6.259  38.084  0.00  0.00    +0.003 A 
ATOM     14  C10 UNL     1      18.435   6.342  37.911  0.00  0.00    +0.014 A 
ATOM     15  C11 UNL     1      19.018   7.531  37.446  0.00  0.00    +0.054 A 
ATOM     16  C12 UNL     1      18.210   8.649  37.154  0.00  0.00    +0.073 A 
ATOM     17  C13 UNL     1      18.880   9.844  36.575  0.00  0.00    +0.285 C 
ATOM     18  O3  UNL     1      18.221  10.831  36.158  0.00  0.00    -0.267 OA
ATOM     19  N2  UNL     1      20.309   9.861  36.445  0.00  0.00    -0.084 NA
ATOM     20  N3  UNL     1      21.036   8.858  36.753  0.00  0.00    -0.084 NA
ATOM     21  C14 UNL     1      20.479   7.637  37.248  0.00  0.00    +0.284 C 
ATOM     22  O4  UNL     1      21.241   6.670  37.512  0.00  0.00    -0.267 OA
ENDBRANCH   9  11
ENDBRANCH   4   7
BRANCH   6  23
ATOM     23  N4  UNL     1      11.404  12.024  33.560  0.00  0.00    -0.279 N 
ATOM     24  C17 UNL     1      11.696  12.568  32.262  0.00  0.00    +0.248 C 
ATOM     25  O5  UNL     1      12.628  13.408  32.131  0.00  0.00    -0.270 OA
ATOM     26  H11 UNL     1      10.428  11.708  33.752  0.00  0.00    +0.155 HD
BRANCH  24  27
ATOM     27  C18 UNL     1      10.884  12.190  31.079  0.00  0.00    +0.038 A 
ATOM     28  C19 UNL     1      10.382  10.883  30.956  0.00  0.00    +0.014 A 
ATOM     29  C20 UNL     1       9.612  10.520  29.847  0.00  0.00    +0.022 A 
ATOM     30  C21 UNL     1       9.326  11.456  28.850  0.00  0.00    +0.059 A 
ATOM     31 CL1  UNL     1       8.354  10.961  27.470  0.00  0.00    -0.082 Cl
ATOM     32  C22 UNL     1       9.812  12.769  28.966  0.00  0.00    +0.060 A 
ATOM     33 CL2  UNL     1       9.462  13.981  27.740  0.00  0.00    -0.082 Cl
ATOM     34  C23 UNL     1      10.584  13.131  30.077  0.00  0.00    +0.034 A 
ENDBRANCH  24  27
ENDBRANCH   6  23
BRANCH   1  36
ATOM     35  C1  UNL     1      10.060  14.081  36.027  0.00  0.00    +0.277 C 
ATOM     36  O1  UNL     1      11.363  14.087  35.455  0.00  0.00    -0.493 OA
ENDBRANCH   1  36
TORSDOF 5
ENDMDL
MODEL 5
REMARK VINA RESULT:    -7.003      9.978     12.413
REMARK INTER + INTRA:         -10.040
REMARK INTER:                  -9.020
REMARK INTRA:                  -1.020
REMARK UNBOUND:                -0.990
REMARK  Name = /home/qwerty/github/datacon2025hack/step_04_hit_selection/docking/ligands/lig_446.pdb
REMARK  6 active torsions:
REMARK  status: ('A' for Active; 'I' for Inactive)
REMARK    1  A    between atoms: C1_1  and  O1_2
REMARK    2  A    between atoms: O1_2  and  C2_3
REMARK    3  A    between atoms: C5_6  and  C6_7
REMARK    4  A    between atoms: N1_9  and  C7_10
REMARK    5  A    between atoms: C16_23  and  N4_24
REMARK    6  A    between atoms: C17_25  and  C18_27
REMARK                            x       y       z     vdW  Elec       q    Type
REMARK                         _______ _______ _______ _____ _____    ______ ____
ROOT
ATOM      1  C2  UNL     1      19.987   2.176  28.077  0.00  0.00    +0.141 A 
ATOM      2  C3  UNL     1      19.958   1.450  29.283  0.00  0.00    +0.048 A 
ATOM      3  C4  UNL     1      20.559   1.963  30.434  0.00  0.00    +0.017 A 
ATOM      4  C5  UNL     1      21.206   3.207  30.407  0.00  0.00    +0.039 A 
ATOM      5  C15 UNL     1      21.248   3.925  29.201  0.00  0.00    +0.040 A 
ATOM      6  C16 UNL     1      20.628   3.428  28.040  0.00  0.00    +0.077 A 
ENDROOT
BRANCH   4   7
ATOM      7  C6  UNL     1      21.869   3.747  31.620  0.00  0.00    +0.248 C 
ATOM      8  O2  UNL     1      22.346   2.950  32.475  0.00  0.00    -0.270 OA
ATOM      9  N1  UNL     1      21.986   5.165  31.829  0.00  0.00    -0.281 N 
ATOM     10  H6  UNL     1      21.939   5.798  31.000  0.00  0.00    +0.155 HD
BRANCH   9  11
ATOM     11  C7  UNL     1      22.533   5.701  33.041  0.00  0.00    +0.047 A 
ATOM     12  C8  UNL     1      23.922   5.856  33.133  0.00  0.00    +0.024 A 
ATOM     13  C9  UNL     1      24.510   6.310  34.314  0.00  0.00    +0.003 A 
ATOM     14  C10 UNL     1      23.716   6.617  35.418  0.00  0.00    +0.014 A 
ATOM     15  C11 UNL     1      22.319   6.495  35.339  0.00  0.00    +0.054 A 
ATOM     16  C12 UNL     1      21.714   6.059  34.143  0.00  0.00    +0.073 A 
ATOM     17  C13 UNL     1      20.227   6.043  34.096  0.00  0.00    +0.285 C 
ATOM     18  O3  UNL     1      19.604   5.802  33.030  0.00  0.00    -0.267 OA
ATOM     19  N2  UNL     1      19.478   6.354  35.280  0.00  0.00    -0.084 NA
ATOM     20  N3  UNL     1      20.038   6.707  36.371  0.00  0.00    -0.084 NA
ATOM     21  C14 UNL     1      21.459   6.823  36.495  0.00  0.00    +0.284 C 
ATOM     22  O4  UNL     1      21.957   7.200  37.588  0.00  0.00    -0.267 OA
ENDBRANCH   9  11
ENDBRANCH   4   7
BRANCH   6  23
ATOM     23  N4  UNL     1      20.690   4.164  26.804  0.00  0.00    -0.279 N 
ATOM     24  C17 UNL     1      21.699   3.944  25.803  0.00  0.00    +0.248 C 
ATOM     25  O5  UNL     1      22.783   3.384  26.121  0.00  0.00    -0.270 OA
ATOM     26  H11 UNL     1      20.037   4.968  26.674  0.00  0.00    +0.155 HD
BRANCH  24  27
ATOM     27  C18 UNL     1      21.500   4.410  24.408  0.00  0.00    +0.038 A 
ATOM     28  C19 UNL     1      20.512   3.819  23.601  0.00  0.00    +0.014 A 
ATOM     29  C20 UNL     1      20.314   4.255  22.288  0.00  0.00    +0.022 A 
ATOM     30  C21 UNL     1      21.094   5.290  21.764  0.00  0.00    +0.059 A 
ATOM     31 CL1  UNL     1      20.815   5.810  20.107  0.00  0.00    -0.082 Cl
ATOM     32  C22 UNL     1      22.077   5.896  22.563  0.00  0.00    +0.060 A 
ATOM     33 CL2  UNL     1      23.068   7.211  21.945  0.00  0.00    -0.082 Cl
ATOM     34  C23 UNL     1      22.274   5.457  23.878  0.00  0.00    +0.034 A 
ENDBRANCH  24  27
ENDBRANCH   6  23
BRANCH   1  36
ATOM     35  C1  UNL     1      19.965   0.707  26.049  0.00  0.00    +0.277 C 
ATOM     36  O1  UNL     1      19.387   1.687  26.905  0.00  0.00    -0.493 OA
ENDBRANCH   1  36
TORSDOF 5
ENDMDL
MODEL 6
REMARK VINA RESULT:    -6.967      5.065      7.992
REMARK INTER + INTRA:          -9.993
REMARK INTER:                  -9.002
REMARK INTRA:                  -0.991
REMARK UNBOUND:                -0.990
REMARK  Name = /home/qwerty/github/datacon2025hack/step_04_hit_selection/docking/ligands/lig_446.pdb
REMARK  6 active torsions:
REMARK  status: ('A' for Active; 'I' for Inactive)
REMARK    1  A    between atoms: C1_1  and  O1_2
REMARK    2  A    between atoms: O1_2  and  C2_3
REMARK    3  A    between atoms: C5_6  and  C6_7
REMARK    4  A    between atoms: N1_9  and  C7_10
REMARK    5  A    between atoms: C16_23  and  N4_24
REMARK    6  A    between atoms: C17_25  and  C18_27
REMARK                            x       y       z     vdW  Elec       q    Type
REMARK                         _______ _______ _______ _____ _____    ______ ____
ROOT
ATOM      1  C2  UNL     1      17.402   6.919  37.540  0.00  0.00    +0.141 A 
ATOM      2  C3  UNL     1      18.600   6.181  37.577  0.00  0.00    +0.048 A 
ATOM      3  C4  UNL     1      19.735   6.635  36.903  0.00  0.00    +0.017 A 
ATOM      4  C5  UNL     1      19.700   7.833  36.173  0.00  0.00    +0.039 A 
ATOM      5  C15 UNL     1      18.501   8.564  36.125  0.00  0.00    +0.040 A 
ATOM      6  C16 UNL     1      17.357   8.126  36.818  0.00  0.00    +0.077 A 
ENDROOT
BRANCH   4   7
ATOM      7  C6  UNL     1      20.894   8.310  35.435  0.00  0.00    +0.248 C 
ATOM      8  O2  UNL     1      21.558   9.284  35.888  0.00  0.00    -0.270 OA
ATOM      9  N1  UNL     1      21.314   7.672  34.217  0.00  0.00    -0.281 N 
ATOM     10  H6  UNL     1      21.019   6.686  34.042  0.00  0.00    +0.155 HD
BRANCH   9  11
ATOM     11  C7  UNL     1      22.405   8.183  33.439  0.00  0.00    +0.047 A 
ATOM     12  C8  UNL     1      23.704   7.766  33.759  0.00  0.00    +0.024 A 
ATOM     13  C9  UNL     1      24.805   8.286  33.079  0.00  0.00    +0.003 A 
ATOM     14  C10 UNL     1      24.622   9.228  32.067  0.00  0.00    +0.014 A 
ATOM     15  C11 UNL     1      23.328   9.640  31.712  0.00  0.00    +0.054 A 
ATOM     16  C12 UNL     1      22.207   9.104  32.378  0.00  0.00    +0.073 A 
ATOM     17  C13 UNL     1      20.862   9.511  31.888  0.00  0.00    +0.285 C 
ATOM     18  O3  UNL     1      19.812   8.979  32.331  0.00  0.00    -0.267 OA
ATOM     19  N2  UNL     1      20.754  10.501  30.855  0.00  0.00    -0.084 NA
ATOM     20  N3  UNL     1      21.777  11.012  30.287  0.00  0.00    -0.084 NA
ATOM     21  C14 UNL     1      23.112  10.631  30.637  0.00  0.00    +0.284 C 
ATOM     22  O4  UNL     1      24.084  11.148  30.027  0.00  0.00    -0.267 OA
ENDBRANCH   9  11
ENDBRANCH   4   7
BRANCH   6  23
ATOM     23  N4  UNL     1      16.129   8.874  36.748  0.00  0.00    -0.279 N 
ATOM     24  C17 UNL     1      15.954  10.165  37.357  0.00  0.00    +0.248 C 
ATOM     25  O5  UNL     1      16.720  10.524  38.292  0.00  0.00    -0.270 OA
ATOM     26  H11 UNL     1      15.292   8.412  36.327  0.00  0.00    +0.155 HD
BRANCH  24  27
ATOM     27  C18 UNL     1      14.853  11.064  36.930  0.00  0.00    +0.038 A 
ATOM     28  C19 UNL     1      14.958  12.451  37.129  0.00  0.00    +0.014 A 
ATOM     29  C20 UNL     1      13.927  13.306  36.726  0.00  0.00    +0.022 A 
ATOM     30  C21 UNL     1      12.782  12.789  36.113  0.00  0.00    +0.059 A 
ATOM     31 CL1  UNL     1      11.508  13.896  35.620  0.00  0.00    -0.082 Cl
ATOM     32  C22 UNL     1      12.670  11.406  35.899  0.00  0.00    +0.060 A 
ATOM     33 CL2  UNL     1      11.252  10.719  35.117  0.00  0.00    -0.082 Cl
ATOM     34  C23 UNL     1      13.703  10.552  36.304  0.00  0.00    +0.034 A 
ENDBRANCH  24  27
ENDBRANCH   6  23
BRANCH   1  36
ATOM     35  C1  UNL     1      15.653   5.204  38.059  0.00  0.00    +0.277 C 
ATOM     36  O1  UNL     1      16.246   6.489  38.212  0.00  0.00    -0.493 OA
ENDBRANCH   1  36
TORSDOF 5
ENDMDL
MODEL 7
REMARK VINA RESULT:    -6.963      9.799     14.259
REMARK INTER + INTRA:          -9.987
REMARK INTER:                  -9.007
REMARK INTRA:                  -0.981
REMARK UNBOUND:                -0.990
REMARK  Name = /home/qwerty/github/datacon2025hack/step_04_hit_selection/docking/ligands/lig_446.pdb
REMARK  6 active torsions:
REMARK  status: ('A' for Active; 'I' for Inactive)
REMARK    1  A    between atoms: C1_1  and  O1_2
REMARK    2  A    between atoms: O1_2  and  C2_3
REMARK    3  A    between atoms: C5_6  and  C6_7
REMARK    4  A    between atoms: N1_9  and  C7_10
REMARK    5  A    between atoms: C16_23  and  N4_24
REMARK    6  A    between atoms: C17_25  and  C18_27
REMARK                            x       y       z     vdW  Elec       q    Type
REMARK                         _______ _______ _______ _____ _____    ______ ____
ROOT
ATOM      1  C2  UNL     1       8.207   8.942  22.397  0.00  0.00    +0.141 A 
ATOM      2  C3  UNL     1       8.015   7.915  21.453  0.00  0.00    +0.048 A 
ATOM      3  C4  UNL     1       8.696   6.703  21.575  0.00  0.00    +0.017 A 
ATOM      4  C5  UNL     1       9.588   6.489  22.637  0.00  0.00    +0.039 A 
ATOM      5  C15 UNL     1       9.790   7.518  23.572  0.00  0.00    +0.040 A 
ATOM      6  C16 UNL     1       9.093   8.735  23.471  0.00  0.00    +0.077 A 
ENDROOT
BRANCH   4   7
ATOM      7  C6  UNL     1      10.334   5.213  22.759  0.00  0.00    +0.248 C 
ATOM      8  O2  UNL     1      11.059   5.012  23.773  0.00  0.00    -0.270 OA
ATOM      9  N1  UNL     1      10.233   4.197  21.747  0.00  0.00    -0.281 N 
ATOM     10  H6  UNL     1       9.392   4.189  21.129  0.00  0.00    +0.155 HD
BRANCH   9  11
ATOM     11  C7  UNL     1      11.025   3.003  21.802  0.00  0.00    +0.047 A 
ATOM     12  C8  UNL     1      10.544   1.919  22.548  0.00  0.00    +0.024 A 
ATOM     13  C9  UNL     1      11.306   0.759  22.689  0.00  0.00    +0.003 A 
ATOM     14  C10 UNL     1      12.559   0.667  22.083  0.00  0.00    +0.014 A 
ATOM     15  C11 UNL     1      13.048   1.730  21.308  0.00  0.00    +0.054 A 
ATOM     16  C12 UNL     1      12.276   2.898  21.141  0.00  0.00    +0.073 A 
ATOM     17  C13 UNL     1      12.811   3.946  20.230  0.00  0.00    +0.285 C 
ATOM     18  O3  UNL     1      12.128   4.955  19.915  0.00  0.00    -0.267 OA
ATOM     19  N2  UNL     1      14.117   3.788  19.659  0.00  0.00    -0.084 NA
ATOM     20  N3  UNL     1      14.827   2.744  19.851  0.00  0.00    -0.084 NA
ATOM     21  C14 UNL     1      14.369   1.649  20.651  0.00  0.00    +0.284 C 
ATOM     22  O4  UNL     1      15.100   0.633  20.787  0.00  0.00    -0.267 OA
ENDBRANCH   9  11
ENDBRANCH   4   7
BRANCH   6  23
ATOM     23  N4  UNL     1       9.320   9.790  24.425  0.00  0.00    -0.279 N 
ATOM     24  C17 UNL     1       8.530   9.964  25.613  0.00  0.00    +0.248 C 
ATOM     25  O5  UNL     1       7.379   9.453  25.678  0.00  0.00    -0.270 OA
ATOM     26  H11 UNL     1      10.023  10.526  24.190  0.00  0.00    +0.155 HD
BRANCH  24  27
ATOM     27  C18 UNL     1       9.032  10.777  26.748  0.00  0.00    +0.038 A 
ATOM     28  C19 UNL     1       8.189  11.070  27.834  0.00  0.00    +0.014 A 
ATOM     29  C20 UNL     1       8.656  11.831  28.910  0.00  0.00    +0.022 A 
ATOM     30  C21 UNL     1       9.970  12.306  28.920  0.00  0.00    +0.059 A 
ATOM     31 CL1  UNL     1      10.520  13.260  30.291  0.00  0.00    -0.082 Cl
ATOM     32  C22 UNL     1      10.826  12.011  27.846  0.00  0.00    +0.060 A 
ATOM     33 CL2  UNL     1      12.491  12.577  27.828  0.00  0.00    -0.082 Cl
ATOM     34  C23 UNL     1      10.357  11.249  26.769  0.00  0.00    +0.034 A 
ENDBRANCH  24  27
ENDBRANCH   6  23
BRANCH   1  36
ATOM     35  C1  UNL     1       7.916  11.241  21.447  0.00  0.00    +0.277 C 
ATOM     36  O1  UNL     1       7.531  10.170  22.303  0.00  0.00    -0.493 OA
ENDBRANCH   1  36
TORSDOF 5
ENDMDL
MODEL 8
REMARK VINA RESULT:    -6.959     13.749     14.767
REMARK INTER + INTRA:          -9.982
REMARK INTER:                  -9.094
REMARK INTRA:                  -0.888
REMARK UNBOUND:                -0.990
REMARK  Name = /home/qwerty/github/datacon2025hack/step_04_hit_selection/docking/ligands/lig_446.pdb
REMARK  6 active torsions:
REMARK  status: ('A' for Active; 'I' for Inactive)
REMARK    1  A    between atoms: C1_1  and  O1_2
REMARK    2  A    between atoms: O1_2  and  C2_3
REMARK    3  A    between atoms: C5_6  and  C6_7
REMARK    4  A    between atoms: N1_9  and  C7_10
REMARK    5  A    between atoms: C16_23  and  N4_24
REMARK    6  A    between atoms: C17_25  and  C18_27
REMARK                            x       y       z     vdW  Elec       q    Type
REMARK                         _______ _______ _______ _____ _____    ______ ____
ROOT
ATOM      1  C2  UNL     1       9.746   3.150  22.306  0.00  0.00    +0.141 A 
ATOM      2  C3  UNL     1      10.002   1.766  22.298  0.00  0.00    +0.048 A 
ATOM      3  C4  UNL     1      11.305   1.285  22.439  0.00  0.00    +0.017 A 
ATOM      4  C5  UNL     1      12.382   2.172  22.585  0.00  0.00    +0.039 A 
ATOM      5  C15 UNL     1      12.129   3.554  22.579  0.00  0.00    +0.040 A 
ATOM      6  C16 UNL     1      10.818   4.050  22.459  0.00  0.00    +0.077 A 
ENDROOT
BRANCH   4   7
ATOM      7  C6  UNL     1      13.771   1.670  22.710  0.00  0.00    +0.248 C 
ATOM      8  O2  UNL     1      14.382   1.265  21.681  0.00  0.00    -0.270 OA
ATOM      9  N1  UNL     1      14.439   1.649  23.983  0.00  0.00    -0.281 N 
ATOM     10  H6  UNL     1      14.106   2.295  24.733  0.00  0.00    +0.155 HD
BRANCH   9  11
ATOM     11  C7  UNL     1      15.743   1.074  24.138  0.00  0.00    +0.047 A 
ATOM     12  C8  UNL     1      16.861   1.900  23.957  0.00  0.00    +0.024 A 
ATOM     13  C9  UNL     1      18.151   1.376  24.029  0.00  0.00    +0.003 A 
ATOM     14  C10 UNL     1      18.342   0.018  24.285  0.00  0.00    +0.014 A 
ATOM     15  C11 UNL     1      17.238  -0.822  24.496  0.00  0.00    +0.054 A 
ATOM     16  C12 UNL     1      15.930  -0.298  24.447  0.00  0.00    +0.073 A 
ATOM     17  C13 UNL     1      14.811  -1.223  24.774  0.00  0.00    +0.285 C 
ATOM     18  O3  UNL     1      13.628  -0.809  24.891  0.00  0.00    -0.267 OA
ATOM     19  N2  UNL     1      15.085  -2.611  25.008  0.00  0.00    -0.084 NA
ATOM     20  N3  UNL     1      16.270  -3.085  25.007  0.00  0.00    -0.084 NA
ATOM     21  C14 UNL     1      17.418  -2.262  24.776  0.00  0.00    +0.284 C 
ATOM     22  O4  UNL     1      18.567  -2.777  24.811  0.00  0.00    -0.267 OA
ENDBRANCH   9  11
ENDBRANCH   4   7
BRANCH   6  23
ATOM     23  N4  UNL     1      10.570   5.468  22.438  0.00  0.00    -0.279 N 
ATOM     24  C17 UNL     1      10.326   6.210  21.231  0.00  0.00    +0.248 C 
ATOM     25  O5  UNL     1      10.697   5.738  20.122  0.00  0.00    -0.270 OA
ATOM     26  H11 UNL     1      10.678   6.002  23.329  0.00  0.00    +0.155 HD
BRANCH  24  27
ATOM     27  C18 UNL     1       9.684   7.547  21.277  0.00  0.00    +0.038 A 
ATOM     28  C19 UNL     1       8.608   7.784  22.150  0.00  0.00    +0.014 A 
ATOM     29  C20 UNL     1       8.000   9.042  22.203  0.00  0.00    +0.022 A 
ATOM     30  C21 UNL     1       8.462  10.082  21.392  0.00  0.00    +0.059 A 
ATOM     31 CL1  UNL     1       7.672  11.651  21.488  0.00  0.00    -0.082 Cl
ATOM     32  C22 UNL     1       9.544   9.863  20.524  0.00  0.00    +0.060 A 
ATOM     33 CL2  UNL     1      10.164  11.150  19.499  0.00  0.00    -0.082 Cl
ATOM     34  C23 UNL     1      10.151   8.601  20.472  0.00  0.00    +0.034 A 
ENDBRANCH  24  27
ENDBRANCH   6  23
BRANCH   1  36
ATOM     35  C1  UNL     1       7.518   3.806  23.242  0.00  0.00    +0.277 C 
ATOM     36  O1  UNL     1       8.445   3.663  22.171  0.00  0.00    -0.493 OA
ENDBRANCH   1  36
TORSDOF 5
ENDMDL
MODEL 9
REMARK VINA RESULT:    -6.888     12.442     16.048
REMARK INTER + INTRA:          -9.891
REMARK INTER:                  -8.906
REMARK INTRA:                  -0.985
REMARK UNBOUND:                -0.990
REMARK  Name = /home/qwerty/github/datacon2025hack/step_04_hit_selection/docking/ligands/lig_446.pdb
REMARK  6 active torsions:
REMARK  status: ('A' for Active; 'I' for Inactive)
REMARK    1  A    between atoms: C1_1  and  O1_2
REMARK    2  A    between atoms: O1_2  and  C2_3
REMARK    3  A    between atoms: C5_6  and  C6_7
REMARK    4  A    between atoms: N1_9  and  C7_10
REMARK    5  A    between atoms: C16_23  and  N4_24
REMARK    6  A    between atoms: C17_25  and  C18_27
REMARK                            x       y       z     vdW  Elec       q    Type
REMARK                         _______ _______ _______ _____ _____    ______ ____
ROOT
ATOM      1  C2  UNL     1      20.788   2.815  29.764  0.00  0.00    +0.141 A 
ATOM      2  C3  UNL     1      21.541   2.872  28.577  0.00  0.00    +0.048 A 
ATOM      3  C4  UNL     1      21.093   2.229  27.421  0.00  0.00    +0.017 A 
ATOM      4  C5  UNL     1      19.889   1.511  27.426  0.00  0.00    +0.039 A 
ATOM      5  C15 UNL     1      19.143   1.442  28.615  0.00  0.00    +0.040 A 
ATOM      6  C16 UNL     1      19.574   2.103  29.779  0.00  0.00    +0.077 A 
ENDROOT
BRANCH   4   7
ATOM      7  C6  UNL     1      19.419   0.804  26.209  0.00  0.00    +0.248 C 
ATOM      8  O2  UNL     1      20.225   0.595  25.261  0.00  0.00    -0.270 OA
ATOM      9  N1  UNL     1      18.061   0.343  26.100  0.00  0.00    -0.281 N 
ATOM     10  H6  UNL     1      17.517   0.180  26.975  0.00  0.00    +0.155 HD
BRANCH   9  11
ATOM     11  C7  UNL     1      17.566  -0.251  24.892  0.00  0.00    +0.047 A 
ATOM     12  C8  UNL     1      17.615  -1.646  24.768  0.00  0.00    +0.024 A 
ATOM     13  C9  UNL     1      17.209  -2.268  23.588  0.00  0.00    +0.003 A 
ATOM     14  C10 UNL     1      16.746  -1.505  22.517  0.00  0.00    +0.014 A 
ATOM     15  C11 UNL     1      16.663  -0.108  22.629  0.00  0.00    +0.054 A 
ATOM     16  C12 UNL     1      17.049   0.530  23.825  0.00  0.00    +0.073 A 
ATOM     17  C13 UNL     1      16.846   2.001  23.912  0.00  0.00    +0.285 C 
ATOM     18  O3  UNL     1      17.033   2.629  24.986  0.00  0.00    -0.267 OA
ATOM     19  N2  UNL     1      16.384   2.721  22.761  0.00  0.00    -0.084 NA
ATOM     20  N3  UNL     1      16.076   2.138  21.667  0.00  0.00    -0.084 NA
ATOM     21  C14 UNL     1      16.167   0.718  21.509  0.00  0.00    +0.284 C 
ATOM     22  O4  UNL     1      15.828   0.193  20.416  0.00  0.00    -0.267 OA
ENDBRANCH   9  11
ENDBRANCH   4   7
BRANCH   6  23
ATOM     23  N4  UNL     1      18.812   2.013  30.997  0.00  0.00    -0.279 N 
ATOM     24  C17 UNL     1      19.055   1.022  32.010  0.00  0.00    +0.248 C 
ATOM     25  O5  UNL     1      19.674  -0.036  31.713  0.00  0.00    -0.270 OA
ATOM     26  H11 UNL     1      17.974   2.628  31.103  0.00  0.00    +0.155 HD
BRANCH  24  27
ATOM     27  C18 UNL     1      18.546   1.206  33.392  0.00  0.00    +0.038 A 
ATOM     28  C19 UNL     1      18.905   2.348  34.130  0.00  0.00    +0.014 A 
ATOM     29  C20 UNL     1      18.427   2.531  35.430  0.00  0.00    +0.022 A 
ATOM     30  C21 UNL     1      17.578   1.584  36.010  0.00  0.00    +0.059 A 
ATOM     31 CL1  UNL     1      16.997   1.851  37.648  0.00  0.00    -0.082 Cl
ATOM     32  C22 UNL     1      17.202   0.445  35.279  0.00  0.00    +0.060 A 
ATOM     33 CL2  UNL     1      16.125  -0.762  35.967  0.00  0.00    -0.082 Cl
ATOM     34  C23 UNL     1      17.684   0.262  33.977  0.00  0.00    +0.034 A 
ENDBRANCH  24  27
ENDBRANCH   6  23
BRANCH   1  36
ATOM     35  C1  UNL     1      22.187   2.937  31.838  0.00  0.00    +0.277 C 
ATOM     36  O1  UNL     1      21.212   3.457  30.941  0.00  0.00    -0.493 OA
ENDBRANCH   1  36
TORSDOF 5
ENDMDL
