REMARK  Name = /home/qwerty/github/datacon2025hack/step_04_hit_selection/docking/ligands/lig_642.pdb
REMARK  5 active torsions:
REMARK  status: ('A' for Active; 'I' for Inactive)
REMARK    1  A    between atoms: C1_1  and  C2_2
REMARK    2  A    between atoms: C3_3  and  N1_4
REMARK    3  A    between atoms: C4_5  and  C5_7
REMARK    4  A    between atoms: C8_12  and  C9_13
REMARK    5  A    between atoms: C19_23  and  C20_24
REMARK                            x       y       z     vdW  Elec       q    Type
REMARK                         _______ _______ _______ _____ _____    ______ ____
ROOT
ATOM      1  C1  UNL     1       1.786   1.994   0.122  0.00  0.00    +0.046 C 
ATOM      2  C2  UNL     1       2.069   0.817   1.028  0.00  0.00    -0.019 A 
ATOM      3  C3  UNL     1       1.007   0.188   1.725  0.00  0.00    +0.037 A 
ATOM      4  C16 UNL     1       1.274  -0.922   2.540  0.00  0.00    +0.023 A 
ATOM      5  C17 UNL     1       2.571  -1.410   2.672  0.00  0.00    +0.003 A 
ATOM      6  C18 UNL     1       3.624  -0.787   2.007  0.00  0.00    +0.012 A 
ATOM      7  C19 UNL     1       3.390   0.328   1.190  0.00  0.00    +0.024 A 
ENDROOT
BRANCH   7   8
ATOM      8  C20 UNL     1       4.546   0.981   0.541  0.00  0.00    +0.165 A 
ATOM      9  N3  UNL     1       4.847   2.284   0.708  0.00  0.00    -0.129 NA
ATOM     10  N4  UNL     1       5.921   2.531  -0.028  0.00  0.00    -0.134 NA
ATOM     11  C21 UNL     1       6.265   1.376  -0.632  0.00  0.00    +0.134 A 
ATOM     12  N5  UNL     1       5.417   0.379  -0.298  0.00  0.00    -0.311 N 
ATOM     13  C22 UNL     1       5.373  -0.979  -0.842  0.00  0.00    +0.125 C 
ATOM     14  C23 UNL     1       6.610  -1.789  -0.424  0.00  0.00    +0.022 C 
ATOM     15  C24 UNL     1       7.945  -1.029  -0.559  0.00  0.00    +0.002 C 
ATOM     16  C25 UNL     1       8.006  -0.136  -1.811  0.00  0.00    +0.008 C 
ATOM     17  C26 UNL     1       7.423   1.279  -1.596  0.00  0.00    +0.076 C 
ENDBRANCH   7   8
BRANCH   3  18
ATOM     18  N1  UNL     1      -0.333   0.703   1.642  0.00  0.00    -0.277 N 
ATOM     19  C4  UNL     1      -1.470  -0.131   1.359  0.00  0.00    +0.303 C 
ATOM     20  O1  UNL     1      -1.304  -1.354   1.109  0.00  0.00    -0.265 OA
ATOM     21  H4  UNL     1      -0.469   1.738   1.680  0.00  0.00    +0.155 HD
BRANCH  19  22
ATOM     22  C5  UNL     1      -2.832   0.451   1.363  0.00  0.00    +0.302 C 
ATOM     23  O2  UNL     1      -3.004   1.575   1.909  0.00  0.00    -0.265 OA
ATOM     24  N2  UNL     1      -3.962  -0.219   0.767  0.00  0.00    -0.293 N 
ATOM     25  C6  UNL     1      -3.880  -1.402  -0.077  0.00  0.00    +0.109 C 
ATOM     26  C7  UNL     1      -5.253  -1.556  -0.716  0.00  0.00    +0.028 C 
ATOM     27  C8  UNL     1      -6.201  -0.697   0.129  0.00  0.00    +0.038 C 
ATOM     28  C15 UNL     1      -5.311   0.317   0.851  0.00  0.00    +0.116 C 
BRANCH  27  29
ATOM     29  C9  UNL     1      -7.306  -0.053  -0.689  0.00  0.00    -0.043 A 
ATOM     30  C10 UNL     1      -7.011   0.854  -1.726  0.00  0.00    +0.004 A 
ATOM     31  C11 UNL     1      -8.040   1.433  -2.475  0.00  0.00    +0.000 A 
ATOM     32  C12 UNL     1      -9.371   1.114  -2.199  0.00  0.00    +0.000 A 
ATOM     33  C13 UNL     1      -9.677   0.214  -1.175  0.00  0.00    +0.000 A 
ATOM     34  C14 UNL     1      -8.651  -0.367  -0.422  0.00  0.00    +0.004 A 
ENDBRANCH  27  29
ENDBRANCH  19  22
ENDBRANCH   3  18
TORSDOF 4
