MODEL 1
REMARK VINA RESULT:    -7.224      0.000      0.000
REMARK INTER + INTRA:          -9.609
REMARK INTER:                  -8.913
REMARK INTRA:                  -0.696
REMARK UNBOUND:                -0.696
REMARK  Name = /home/qwerty/github/datacon2025hack/step_04_hit_selection/docking/ligands/lig_5.pdb
REMARK  5 active torsions:
REMARK  status: ('A' for Active; 'I' for Inactive)
REMARK    1  A    between atoms: C1_1  and  C2_2
REMARK    2  A    between atoms: C2_2  and  N1_3
REMARK    3  A    between atoms: C2_2  and  C11_16
REMARK    4  A    between atoms: C3_4  and  C4_6
REMARK    5  A    between atoms: C7_9  and  C8_10
REMARK                            x       y       z     vdW  Elec       q    Type
REMARK                         _______ _______ _______ _____ _____    ______ ____
ROOT
ATOM      1  N1  UNL     1      22.585   2.100  28.034  0.00  0.00    -0.305 N 
ATOM      2  C3  UNL     1      21.765   2.047  26.854  0.00  0.00    +0.245 C 
ATOM      3  O1  UNL     1      20.975   1.078  26.686  0.00  0.00    -0.270 OA
ATOM      4  H5  UNL     1      23.031   3.009  28.290  0.00  0.00    +0.150 HD
ENDROOT
BRANCH   2   5
ATOM      5  C4  UNL     1      21.818   3.126  25.838  0.00  0.00    +0.037 A 
ATOM      6  C5  UNL     1      22.716   4.200  25.966  0.00  0.00    +0.013 A 
ATOM      7  C6  UNL     1      22.761   5.207  24.997  0.00  0.00    +0.013 A 
ATOM      8  C7  UNL     1      21.901   5.169  23.888  0.00  0.00    +0.055 A 
ATOM      9  C9  UNL     1      21.031   4.077  23.739  0.00  0.00    +0.013 A 
ATOM     10  C10 UNL     1      20.986   3.069  24.706  0.00  0.00    +0.013 A 
BRANCH   8  11
ATOM     11  C8  UNL     1      21.985   6.230  22.819  0.00  0.00    +0.417 C 
ATOM     12  F1  UNL     1      23.251   6.788  22.783  0.00  0.00    -0.166 F 
ATOM     13  F2  UNL     1      21.073   7.242  23.062  0.00  0.00    -0.166 F 
ATOM     14  F3  UNL     1      21.709   5.660  21.590  0.00  0.00    -0.166 F 
ENDBRANCH   8  11
ENDBRANCH   2   5
BRANCH   1  16
ATOM     15  C1  UNL     1      24.202   0.737  29.300  0.00  0.00    +0.033 C 
ATOM     16  C2  UNL     1      22.728   0.951  28.937  0.00  0.00    +0.100 C 
BRANCH  16  17
ATOM     17  C11 UNL     1      21.894   1.144  30.190  0.00  0.00    -0.027 A 
ATOM     18  C12 UNL     1      22.200   2.183  31.111  0.00  0.00    +0.007 A 
ATOM     19  C13 UNL     1      21.433   2.361  32.277  0.00  0.00    +0.026 A 
ATOM     20  C14 UNL     1      20.371   1.489  32.497  0.00  0.00    +0.046 A 
ATOM     21  N2  UNL     1      19.522   1.483  33.538  0.00  0.00    -0.361 N 
ATOM     22  C15 UNL     1      18.670   0.457  33.312  0.00  0.00    +0.083 A 
ATOM     23  C16 UNL     1      18.981  -0.190  32.121  0.00  0.00    +0.027 A 
ATOM     24  C17 UNL     1      20.071   0.485  31.618  0.00  0.00    -0.000 A 
ATOM     25  C18 UNL     1      20.807   0.278  30.454  0.00  0.00    +0.015 A 
ATOM     26  H12 UNL     1      19.518   2.134  34.355  0.00  0.00    +0.165 HD
ENDBRANCH  16  17
ENDBRANCH   1  16
TORSDOF 4
ENDMDL
MODEL 2
REMARK VINA RESULT:    -7.163     14.366     15.495
REMARK INTER + INTRA:          -9.534
REMARK INTER:                  -8.838
REMARK INTRA:                  -0.695
REMARK UNBOUND:                -0.696
REMARK  Name = /home/qwerty/github/datacon2025hack/step_04_hit_selection/docking/ligands/lig_5.pdb
REMARK  5 active torsions:
REMARK  status: ('A' for Active; 'I' for Inactive)
REMARK    1  A    between atoms: C1_1  and  C2_2
REMARK    2  A    between atoms: C2_2  and  N1_3
REMARK    3  A    between atoms: C2_2  and  C11_16
REMARK    4  A    between atoms: C3_4  and  C4_6
REMARK    5  A    between atoms: C7_9  and  C8_10
REMARK                            x       y       z     vdW  Elec       q    Type
REMARK                         _______ _______ _______ _____ _____    ______ ____
ROOT
ATOM      1  N1  UNL     1       9.834  13.716  27.866  0.00  0.00    -0.305 N 
ATOM      2  C3  UNL     1      10.886  13.979  28.810  0.00  0.00    +0.245 C 
ATOM      3  O1  UNL     1      10.681  13.786  30.040  0.00  0.00    -0.270 OA
ATOM      4  H5  UNL     1      10.084  13.628  26.855  0.00  0.00    +0.150 HD
ENDROOT
BRANCH   2   5
ATOM      5  C4  UNL     1      12.216  14.456  28.360  0.00  0.00    +0.037 A 
ATOM      6  C5  UNL     1      12.441  14.820  27.022  0.00  0.00    +0.013 A 
ATOM      7  C6  UNL     1      13.698  15.275  26.612  0.00  0.00    +0.013 A 
ATOM      8  C7  UNL     1      14.759  15.363  27.528  0.00  0.00    +0.055 A 
ATOM      9  C9  UNL     1      14.524  15.037  28.873  0.00  0.00    +0.013 A 
ATOM     10  C10 UNL     1      13.268  14.583  29.284  0.00  0.00    +0.013 A 
BRANCH   8  11
ATOM     11  C8  UNL     1      16.100  15.900  27.095  0.00  0.00    +0.417 C 
ATOM     12  F1  UNL     1      17.020  14.873  26.970  0.00  0.00    -0.166 F 
ATOM     13  F2  UNL     1      16.586  16.806  28.020  0.00  0.00    -0.166 F 
ATOM     14  F3  UNL     1      15.963  16.533  25.873  0.00  0.00    -0.166 F 
ENDBRANCH   8  11
ENDBRANCH   2   5
BRANCH   1  16
ATOM     15  C1  UNL     1       7.472  14.237  27.391  0.00  0.00    +0.033 C 
ATOM     16  C2  UNL     1       8.450  13.468  28.287  0.00  0.00    +0.100 C 
BRANCH  16  17
ATOM     17  C11 UNL     1       8.137  11.984  28.264  0.00  0.00    -0.027 A 
ATOM     18  C12 UNL     1       8.236  11.241  27.055  0.00  0.00    +0.007 A 
ATOM     19  C13 UNL     1       7.941   9.866  27.028  0.00  0.00    +0.026 A 
ATOM     20  C14 UNL     1       7.551   9.260  28.219  0.00  0.00    +0.046 A 
ATOM     21  N2  UNL     1       7.226   7.971  28.411  0.00  0.00    -0.361 N 
ATOM     22  C15 UNL     1       6.916   7.861  29.723  0.00  0.00    +0.083 A 
ATOM     23  C16 UNL     1       7.046   9.087  30.366  0.00  0.00    +0.027 A 
ATOM     24  C17 UNL     1       7.452   9.967  29.386  0.00  0.00    -0.000 A 
ATOM     25  C18 UNL     1       7.735  11.329  29.451  0.00  0.00    +0.015 A 
ATOM     26  H12 UNL     1       7.215   7.209  27.698  0.00  0.00    +0.165 HD
ENDBRANCH  16  17
ENDBRANCH   1  16
TORSDOF 4
ENDMDL
MODEL 3
REMARK VINA RESULT:    -7.122      5.603      9.167
REMARK INTER + INTRA:          -9.482
REMARK INTER:                  -8.802
REMARK INTRA:                  -0.681
REMARK UNBOUND:                -0.696
REMARK  Name = /home/qwerty/github/datacon2025hack/step_04_hit_selection/docking/ligands/lig_5.pdb
REMARK  5 active torsions:
REMARK  status: ('A' for Active; 'I' for Inactive)
REMARK    1  A    between atoms: C1_1  and  C2_2
REMARK    2  A    between atoms: C2_2  and  N1_3
REMARK    3  A    between atoms: C2_2  and  C11_16
REMARK    4  A    between atoms: C3_4  and  C4_6
REMARK    5  A    between atoms: C7_9  and  C8_10
REMARK                            x       y       z     vdW  Elec       q    Type
REMARK                         _______ _______ _______ _____ _____    ______ ____
ROOT
ATOM      1  N1  UNL     1      21.104   0.500  30.028  0.00  0.00    -0.305 N 
ATOM      2  C3  UNL     1      21.056   1.286  31.231  0.00  0.00    +0.245 C 
ATOM      3  O1  UNL     1      21.929   2.175  31.430  0.00  0.00    -0.270 OA
ATOM      4  H5  UNL     1      20.253  -0.039  29.751  0.00  0.00    +0.150 HD
ENDROOT
BRANCH   2   5
ATOM      5  C4  UNL     1      19.985   1.080  32.235  0.00  0.00    +0.037 A 
ATOM      6  C5  UNL     1      19.041   0.049  32.089  0.00  0.00    +0.013 A 
ATOM      7  C6  UNL     1      18.041  -0.138  33.047  0.00  0.00    +0.013 A 
ATOM      8  C7  UNL     1      17.954   0.708  34.165  0.00  0.00    +0.055 A 
ATOM      9  C9  UNL     1      18.920   1.713  34.332  0.00  0.00    +0.013 A 
ATOM     10  C10 UNL     1      19.922   1.901  33.375  0.00  0.00    +0.013 A 
BRANCH   8  11
ATOM     11  C8  UNL     1      16.904   0.474  35.222  0.00  0.00    +0.417 C 
ATOM     12  F1  UNL     1      15.796   1.272  34.994  0.00  0.00    -0.166 F 
ATOM     13  F2  UNL     1      17.401   0.772  36.478  0.00  0.00    -0.166 F 
ATOM     14  F3  UNL     1      16.518  -0.853  35.193  0.00  0.00    -0.166 F 
ENDBRANCH   8  11
ENDBRANCH   2   5
BRANCH   1  16
ATOM     15  C1  UNL     1      22.709  -0.915  28.805  0.00  0.00    +0.033 C 
ATOM     16  C2  UNL     1      22.266   0.516  29.130  0.00  0.00    +0.100 C 
BRANCH  16  17
ATOM     17  C11 UNL     1      21.954   1.278  27.857  0.00  0.00    -0.027 A 
ATOM     18  C12 UNL     1      20.927   0.834  26.980  0.00  0.00    +0.007 A 
ATOM     19  C13 UNL     1      20.638   1.535  25.794  0.00  0.00    +0.026 A 
ATOM     20  C14 UNL     1      21.390   2.672  25.511  0.00  0.00    +0.046 A 
ATOM     21  N2  UNL     1      21.279   3.478  24.442  0.00  0.00    -0.361 N 
ATOM     22  C15 UNL     1      22.217   4.438  24.607  0.00  0.00    +0.083 A 
ATOM     23  C16 UNL     1      22.926   4.239  25.787  0.00  0.00    +0.027 A 
ATOM     24  C17 UNL     1      22.381   3.106  26.348  0.00  0.00    -0.000 A 
ATOM     25  C18 UNL     1      22.695   2.438  27.529  0.00  0.00    +0.015 A 
ATOM     26  H12 UNL     1      20.608   3.386  23.647  0.00  0.00    +0.165 HD
ENDBRANCH  16  17
ENDBRANCH   1  16
TORSDOF 4
ENDMDL
MODEL 4
REMARK VINA RESULT:    -6.911      4.690      9.437
REMARK INTER + INTRA:          -9.223
REMARK INTER:                  -8.549
REMARK INTRA:                  -0.674
REMARK UNBOUND:                -0.696
REMARK  Name = /home/qwerty/github/datacon2025hack/step_04_hit_selection/docking/ligands/lig_5.pdb
REMARK  5 active torsions:
REMARK  status: ('A' for Active; 'I' for Inactive)
REMARK    1  A    between atoms: C1_1  and  C2_2
REMARK    2  A    between atoms: C2_2  and  N1_3
REMARK    3  A    between atoms: C2_2  and  C11_16
REMARK    4  A    between atoms: C3_4  and  C4_6
REMARK    5  A    between atoms: C7_9  and  C8_10
REMARK                            x       y       z     vdW  Elec       q    Type
REMARK                         _______ _______ _______ _____ _____    ______ ____
ROOT
ATOM      1  N1  UNL     1      20.963   4.821  24.625  0.00  0.00    -0.305 N 
ATOM      2  C3  UNL     1      20.830   3.390  24.646  0.00  0.00    +0.245 C 
ATOM      3  O1  UNL     1      20.334   2.795  23.651  0.00  0.00    -0.270 OA
ATOM      4  H5  UNL     1      21.598   5.273  25.322  0.00  0.00    +0.150 HD
ENDROOT
BRANCH   2   5
ATOM      5  C4  UNL     1      21.286   2.598  25.814  0.00  0.00    +0.037 A 
ATOM      6  C5  UNL     1      22.367   3.025  26.604  0.00  0.00    +0.013 A 
ATOM      7  C6  UNL     1      22.782   2.273  27.706  0.00  0.00    +0.013 A 
ATOM      8  C7  UNL     1      22.134   1.071  28.035  0.00  0.00    +0.055 A 
ATOM      9  C9  UNL     1      21.029   0.663  27.271  0.00  0.00    +0.013 A 
ATOM     10  C10 UNL     1      20.612   1.416  26.169  0.00  0.00    +0.013 A 
BRANCH   8  11
ATOM     11  C8  UNL     1      22.551   0.286  29.254  0.00  0.00    +0.417 C 
ATOM     12  F1  UNL     1      23.134  -0.915  28.885  0.00  0.00    -0.166 F 
ATOM     13  F2  UNL     1      21.458   0.007  30.054  0.00  0.00    -0.166 F 
ATOM     14  F3  UNL     1      23.466   1.026  29.980  0.00  0.00    -0.166 F 
ENDBRANCH   8  11
ENDBRANCH   2   5
BRANCH   1  16
ATOM     15  C1  UNL     1      19.905   7.004  24.185  0.00  0.00    +0.033 C 
ATOM     16  C2  UNL     1      20.320   5.650  23.598  0.00  0.00    +0.100 C 
BRANCH  16  17
ATOM     17  C11 UNL     1      21.242   5.846  22.409  0.00  0.00    -0.027 A 
ATOM     18  C12 UNL     1      20.938   5.255  21.151  0.00  0.00    +0.007 A 
ATOM     19  C13 UNL     1      21.794   5.430  20.048  0.00  0.00    +0.026 A 
ATOM     20  C14 UNL     1      22.942   6.195  20.229  0.00  0.00    +0.046 A 
ATOM     21  N2  UNL     1      23.885   6.481  19.316  0.00  0.00    -0.361 N 
ATOM     22  C15 UNL     1      24.798   7.246  19.956  0.00  0.00    +0.083 A 
ATOM     23  C16 UNL     1      24.432   7.445  21.284  0.00  0.00    +0.027 A 
ATOM     24  C17 UNL     1      23.244   6.765  21.436  0.00  0.00    -0.000 A 
ATOM     25  C18 UNL     1      22.421   6.614  22.550  0.00  0.00    +0.015 A 
ATOM     26  H12 UNL     1      23.910   6.178  18.317  0.00  0.00    +0.165 HD
ENDBRANCH  16  17
ENDBRANCH   1  16
TORSDOF 4
ENDMDL
MODEL 5
REMARK VINA RESULT:    -6.885      0.713      2.043
REMARK INTER + INTRA:          -9.191
REMARK INTER:                  -8.486
REMARK INTRA:                  -0.705
REMARK UNBOUND:                -0.696
REMARK  Name = /home/qwerty/github/datacon2025hack/step_04_hit_selection/docking/ligands/lig_5.pdb
REMARK  5 active torsions:
REMARK  status: ('A' for Active; 'I' for Inactive)
REMARK    1  A    between atoms: C1_1  and  C2_2
REMARK    2  A    between atoms: C2_2  and  N1_3
REMARK    3  A    between atoms: C2_2  and  C11_16
REMARK    4  A    between atoms: C3_4  and  C4_6
REMARK    5  A    between atoms: C7_9  and  C8_10
REMARK                            x       y       z     vdW  Elec       q    Type
REMARK                         _______ _______ _______ _____ _____    ______ ____
ROOT
ATOM      1  N1  UNL     1      22.583   1.962  27.917  0.00  0.00    -0.305 N 
ATOM      2  C3  UNL     1      21.711   1.824  26.783  0.00  0.00    +0.245 C 
ATOM      3  O1  UNL     1      20.956   0.817  26.696  0.00  0.00    -0.270 OA
ATOM      4  H5  UNL     1      23.002   2.899  28.112  0.00  0.00    +0.150 HD
ENDROOT
BRANCH   2   5
ATOM      5  C4  UNL     1      21.670   2.858  25.721  0.00  0.00    +0.037 A 
ATOM      6  C5  UNL     1      20.792   2.742  24.629  0.00  0.00    +0.013 A 
ATOM      7  C6  UNL     1      20.758   3.727  23.638  0.00  0.00    +0.013 A 
ATOM      8  C7  UNL     1      21.609   4.842  23.710  0.00  0.00    +0.055 A 
ATOM      9  C9  UNL     1      22.458   4.978  24.820  0.00  0.00    +0.013 A 
ATOM     10  C10 UNL     1      22.492   3.994  25.812  0.00  0.00    +0.013 A 
BRANCH   8  11
ATOM     11  C8  UNL     1      21.537   5.928  22.665  0.00  0.00    +0.417 C 
ATOM     12  F1  UNL     1      20.495   5.690  21.786  0.00  0.00    -0.166 F 
ATOM     13  F2  UNL     1      22.712   5.985  21.937  0.00  0.00    -0.166 F 
ATOM     14  F3  UNL     1      21.331   7.145  23.289  0.00  0.00    -0.166 F 
ENDBRANCH   8  11
ENDBRANCH   2   5
BRANCH   1  16
ATOM     15  C1  UNL     1      24.313   0.734  29.172  0.00  0.00    +0.033 C 
ATOM     16  C2  UNL     1      22.818   0.862  28.861  0.00  0.00    +0.100 C 
BRANCH  16  17
ATOM     17  C11 UNL     1      22.024   1.068  30.137  0.00  0.00    -0.027 A 
ATOM     18  C12 UNL     1      20.934   0.213  30.459  0.00  0.00    +0.007 A 
ATOM     19  C13 UNL     1      20.191   0.404  31.639  0.00  0.00    +0.026 A 
ATOM     20  C14 UNL     1      20.558   1.455  32.475  0.00  0.00    +0.046 A 
ATOM     21  N2  UNL     1      19.987   1.810  33.638  0.00  0.00    -0.361 N 
ATOM     22  C15 UNL     1      20.684   2.882  34.079  0.00  0.00    +0.083 A 
ATOM     23  C16 UNL     1      21.703   3.208  33.190  0.00  0.00    +0.027 A 
ATOM     24  C17 UNL     1      21.604   2.283  32.173  0.00  0.00    -0.000 A 
ATOM     25  C18 UNL     1      22.361   2.124  31.015  0.00  0.00    +0.015 A 
ATOM     26  H12 UNL     1      19.173   1.354  34.108  0.00  0.00    +0.165 HD
ENDBRANCH  16  17
ENDBRANCH   1  16
TORSDOF 4
ENDMDL
MODEL 6
REMARK VINA RESULT:    -6.838      4.724      7.328
REMARK INTER + INTRA:          -9.133
REMARK INTER:                  -8.455
REMARK INTRA:                  -0.678
REMARK UNBOUND:                -0.696
REMARK  Name = /home/qwerty/github/datacon2025hack/step_04_hit_selection/docking/ligands/lig_5.pdb
REMARK  5 active torsions:
REMARK  status: ('A' for Active; 'I' for Inactive)
REMARK    1  A    between atoms: C1_1  and  C2_2
REMARK    2  A    between atoms: C2_2  and  N1_3
REMARK    3  A    between atoms: C2_2  and  C11_16
REMARK    4  A    between atoms: C3_4  and  C4_6
REMARK    5  A    between atoms: C7_9  and  C8_10
REMARK                            x       y       z     vdW  Elec       q    Type
REMARK                         _______ _______ _______ _____ _____    ______ ____
ROOT
ATOM      1  N1  UNL     1      18.257   1.736  33.396  0.00  0.00    -0.305 N 
ATOM      2  C3  UNL     1      19.670   2.001  33.408  0.00  0.00    +0.245 C 
ATOM      3  O1  UNL     1      20.202   2.503  34.435  0.00  0.00    -0.270 OA
ATOM      4  H5  UNL     1      17.877   1.096  32.664  0.00  0.00    +0.150 HD
ENDROOT
BRANCH   2   5
ATOM      5  C4  UNL     1      20.518   1.675  32.236  0.00  0.00    +0.037 A 
ATOM      6  C5  UNL     1      20.205   0.596  31.392  0.00  0.00    +0.013 A 
ATOM      7  C6  UNL     1      21.008   0.303  30.286  0.00  0.00    +0.013 A 
ATOM      8  C7  UNL     1      22.148   1.075  30.007  0.00  0.00    +0.055 A 
ATOM      9  C9  UNL     1      22.440   2.177  30.827  0.00  0.00    +0.013 A 
ATOM     10  C10 UNL     1      21.636   2.471  31.932  0.00  0.00    +0.013 A 
BRANCH   8  11
ATOM     11  C8  UNL     1      22.986   0.788  28.786  0.00  0.00    +0.417 C 
ATOM     12  F1  UNL     1      24.328   0.993  29.056  0.00  0.00    -0.166 F 
ATOM     13  F2  UNL     1      22.625   1.618  27.739  0.00  0.00    -0.166 F 
ATOM     14  F3  UNL     1      22.799  -0.527  28.405  0.00  0.00    -0.166 F 
ENDBRANCH   8  11
ENDBRANCH   2   5
BRANCH   1  16
ATOM     15  C1  UNL     1      15.984   2.581  33.840  0.00  0.00    +0.033 C 
ATOM     16  C2  UNL     1      17.358   2.252  34.436  0.00  0.00    +0.100 C 
BRANCH  16  17
ATOM     17  C11 UNL     1      17.220   1.256  35.572  0.00  0.00    -0.027 A 
ATOM     18  C12 UNL     1      17.726   1.558  36.866  0.00  0.00    +0.007 A 
ATOM     19  C13 UNL     1      17.606   0.635  37.921  0.00  0.00    +0.026 A 
ATOM     20  C14 UNL     1      16.980  -0.580  37.655  0.00  0.00    +0.046 A 
ATOM     21  N2  UNL     1      16.765  -1.592  38.511  0.00  0.00    -0.361 N 
ATOM     22  C15 UNL     1      16.130  -2.550  37.797  0.00  0.00    +0.083 A 
ATOM     23  C16 UNL     1      15.942  -2.141  36.480  0.00  0.00    +0.027 A 
ATOM     24  C17 UNL     1      16.492  -0.880  36.412  0.00  0.00    -0.000 A 
ATOM     25  C18 UNL     1      16.593   0.009  35.345  0.00  0.00    +0.015 A 
ATOM     26  H12 UNL     1      17.031  -1.635  39.520  0.00  0.00    +0.165 HD
ENDBRANCH  16  17
ENDBRANCH   1  16
TORSDOF 4
ENDMDL
MODEL 7
REMARK VINA RESULT:    -6.685      5.357      7.810
REMARK INTER + INTRA:          -8.944
REMARK INTER:                  -8.286
REMARK INTRA:                  -0.658
REMARK UNBOUND:                -0.696
REMARK  Name = /home/qwerty/github/datacon2025hack/step_04_hit_selection/docking/ligands/lig_5.pdb
REMARK  5 active torsions:
REMARK  status: ('A' for Active; 'I' for Inactive)
REMARK    1  A    between atoms: C1_1  and  C2_2
REMARK    2  A    between atoms: C2_2  and  N1_3
REMARK    3  A    between atoms: C2_2  and  C11_16
REMARK    4  A    between atoms: C3_4  and  C4_6
REMARK    5  A    between atoms: C7_9  and  C8_10
REMARK                            x       y       z     vdW  Elec       q    Type
REMARK                         _______ _______ _______ _____ _____    ______ ____
ROOT
ATOM      1  N1  UNL     1      19.209   3.069  34.081  0.00  0.00    -0.305 N 
ATOM      2  C3  UNL     1      18.940   2.318  32.885  0.00  0.00    +0.245 C 
ATOM      3  O1  UNL     1      17.753   1.994  32.607  0.00  0.00    -0.270 OA
ATOM      4  H5  UNL     1      20.133   3.548  34.170  0.00  0.00    +0.150 HD
ENDROOT
BRANCH   2   5
ATOM      5  C4  UNL     1      20.034   1.933  31.962  0.00  0.00    +0.037 A 
ATOM      6  C5  UNL     1      19.942   0.774  31.171  0.00  0.00    +0.013 A 
ATOM      7  C6  UNL     1      20.978   0.426  30.300  0.00  0.00    +0.013 A 
ATOM      8  C7  UNL     1      22.133   1.221  30.209  0.00  0.00    +0.055 A 
ATOM      9  C9  UNL     1      22.208   2.399  30.970  0.00  0.00    +0.013 A 
ATOM     10  C10 UNL     1      21.173   2.748  31.841  0.00  0.00    +0.013 A 
BRANCH   8  11
ATOM     11  C8  UNL     1      23.228   0.870  29.233  0.00  0.00    +0.417 C 
ATOM     12  F1  UNL     1      24.465   0.908  29.852  0.00  0.00    -0.166 F 
ATOM     13  F2  UNL     1      23.246   1.764  28.177  0.00  0.00    -0.166 F 
ATOM     14  F3  UNL     1      23.008  -0.404  28.742  0.00  0.00    -0.166 F 
ENDBRANCH   8  11
ENDBRANCH   2   5
BRANCH   1  16
ATOM     15  C1  UNL     1      18.097   2.024  36.017  0.00  0.00    +0.033 C 
ATOM     16  C2  UNL     1      18.195   3.266  35.125  0.00  0.00    +0.100 C 
BRANCH  16  17
ATOM     17  C11 UNL     1      18.510   4.495  35.957  0.00  0.00    -0.027 A 
ATOM     18  C12 UNL     1      17.752   4.796  37.122  0.00  0.00    +0.007 A 
ATOM     19  C13 UNL     1      18.037   5.938  37.893  0.00  0.00    +0.026 A 
ATOM     20  C14 UNL     1      19.080   6.760  37.477  0.00  0.00    +0.046 A 
ATOM     21  N2  UNL     1      19.512   7.889  38.062  0.00  0.00    -0.361 N 
ATOM     22  C15 UNL     1      20.538   8.330  37.298  0.00  0.00    +0.083 A 
ATOM     23  C16 UNL     1      20.756   7.476  36.222  0.00  0.00    +0.027 A 
ATOM     24  C17 UNL     1      19.814   6.480  36.357  0.00  0.00    -0.000 A 
ATOM     25  C18 UNL     1      19.561   5.359  35.569  0.00  0.00    +0.015 A 
ATOM     26  H12 UNL     1      19.138   8.336  38.928  0.00  0.00    +0.165 HD
ENDBRANCH  16  17
ENDBRANCH   1  16
TORSDOF 4
ENDMDL
MODEL 8
REMARK VINA RESULT:    -6.613     15.520     16.811
REMARK INTER + INTRA:          -8.855
REMARK INTER:                  -8.192
REMARK INTRA:                  -0.663
REMARK UNBOUND:                -0.696
REMARK  Name = /home/qwerty/github/datacon2025hack/step_04_hit_selection/docking/ligands/lig_5.pdb
REMARK  5 active torsions:
REMARK  status: ('A' for Active; 'I' for Inactive)
REMARK    1  A    between atoms: C1_1  and  C2_2
REMARK    2  A    between atoms: C2_2  and  N1_3
REMARK    3  A    between atoms: C2_2  and  C11_16
REMARK    4  A    between atoms: C3_4  and  C4_6
REMARK    5  A    between atoms: C7_9  and  C8_10
REMARK                            x       y       z     vdW  Elec       q    Type
REMARK                         _______ _______ _______ _____ _____    ______ ____
ROOT
ATOM      1  N1  UNL     1       8.448  11.604  28.376  0.00  0.00    -0.305 N 
ATOM      2  C3  UNL     1       8.108  10.443  27.600  0.00  0.00    +0.245 C 
ATOM      3  O1  UNL     1       8.224  10.475  26.344  0.00  0.00    -0.270 OA
ATOM      4  H5  UNL     1       8.598  11.490  29.403  0.00  0.00    +0.150 HD
ENDROOT
BRANCH   2   5
ATOM      5  C4  UNL     1       7.639   9.198  28.255  0.00  0.00    +0.037 A 
ATOM      6  C5  UNL     1       7.495   8.004  27.526  0.00  0.00    +0.013 A 
ATOM      7  C6  UNL     1       7.059   6.836  28.157  0.00  0.00    +0.013 A 
ATOM      8  C7  UNL     1       6.745   6.837  29.526  0.00  0.00    +0.055 A 
ATOM      9  C9  UNL     1       6.926   8.019  30.263  0.00  0.00    +0.013 A 
ATOM     10  C10 UNL     1       7.363   9.188  29.633  0.00  0.00    +0.013 A 
BRANCH   8  11
ATOM     11  C8  UNL     1       6.322   5.564  30.215  0.00  0.00    +0.417 C 
ATOM     12  F1  UNL     1       7.399   4.705  30.357  0.00  0.00    -0.166 F 
ATOM     13  F2  UNL     1       5.345   4.914  29.483  0.00  0.00    -0.166 F 
ATOM     14  F3  UNL     1       5.821   5.870  31.467  0.00  0.00    -0.166 F 
ENDBRANCH   8  11
ENDBRANCH   2   5
BRANCH   1  16
ATOM     15  C1  UNL     1       7.457  13.810  27.900  0.00  0.00    +0.033 C 
ATOM     16  C2  UNL     1       8.691  12.913  27.756  0.00  0.00    +0.100 C 
BRANCH  16  17
ATOM     17  C11 UNL     1       9.909  13.581  28.368  0.00  0.00    -0.027 A 
ATOM     18  C12 UNL     1      10.839  14.281  27.551  0.00  0.00    +0.007 A 
ATOM     19  C13 UNL     1      11.972  14.896  28.113  0.00  0.00    +0.026 A 
ATOM     20  C14 UNL     1      12.151  14.796  29.490  0.00  0.00    +0.046 A 
ATOM     21  N2  UNL     1      13.157  15.305  30.221  0.00  0.00    -0.361 N 
ATOM     22  C15 UNL     1      12.899  14.947  31.500  0.00  0.00    +0.083 A 
ATOM     23  C16 UNL     1      11.724  14.208  31.579  0.00  0.00    +0.027 A 
ATOM     24  C17 UNL     1      11.263  14.124  30.283  0.00  0.00    -0.000 A 
ATOM     25  C18 UNL     1      10.131  13.502  29.762  0.00  0.00    +0.015 A 
ATOM     26  H12 UNL     1      13.970  15.862  29.877  0.00  0.00    +0.165 HD
ENDBRANCH  16  17
ENDBRANCH   1  16
TORSDOF 4
ENDMDL
MODEL 9
REMARK VINA RESULT:    -6.517      5.505      9.117
REMARK INTER + INTRA:          -8.737
REMARK INTER:                  -8.057
REMARK INTRA:                  -0.680
REMARK UNBOUND:                -0.696
REMARK  Name = /home/qwerty/github/datacon2025hack/step_04_hit_selection/docking/ligands/lig_5.pdb
REMARK  5 active torsions:
REMARK  status: ('A' for Active; 'I' for Inactive)
REMARK    1  A    between atoms: C1_1  and  C2_2
REMARK    2  A    between atoms: C2_2  and  N1_3
REMARK    3  A    between atoms: C2_2  and  C11_16
REMARK    4  A    between atoms: C3_4  and  C4_6
REMARK    5  A    between atoms: C7_9  and  C8_10
REMARK                            x       y       z     vdW  Elec       q    Type
REMARK                         _______ _______ _______ _____ _____    ______ ____
ROOT
ATOM      1  N1  UNL     1      19.542   3.502  23.712  0.00  0.00    -0.305 N 
ATOM      2  C3  UNL     1      19.971   3.906  25.023  0.00  0.00    +0.245 C 
ATOM      3  O1  UNL     1      19.831   5.107  25.383  0.00  0.00    -0.270 OA
ATOM      4  H5  UNL     1      19.421   2.482  23.519  0.00  0.00    +0.150 HD
ENDROOT
BRANCH   2   5
ATOM      5  C4  UNL     1      20.559   2.928  25.969  0.00  0.00    +0.037 A 
ATOM      6  C5  UNL     1      20.127   1.590  25.992  0.00  0.00    +0.013 A 
ATOM      7  C6  UNL     1      20.695   0.676  26.884  0.00  0.00    +0.013 A 
ATOM      8  C7  UNL     1      21.698   1.082  27.781  0.00  0.00    +0.055 A 
ATOM      9  C9  UNL     1      22.157   2.408  27.731  0.00  0.00    +0.013 A 
ATOM     10  C10 UNL     1      21.591   3.322  26.839  0.00  0.00    +0.013 A 
BRANCH   8  11
ATOM     11  C8  UNL     1      22.344   0.083  28.709  0.00  0.00    +0.417 C 
ATOM     12  F1  UNL     1      23.624   0.487  29.046  0.00  0.00    -0.166 F 
ATOM     13  F2  UNL     1      22.427  -1.160  28.107  0.00  0.00    -0.166 F 
ATOM     14  F3  UNL     1      21.587  -0.023  29.861  0.00  0.00    -0.166 F 
ENDBRANCH   8  11
ENDBRANCH   2   5
BRANCH   1  16
ATOM     15  C1  UNL     1      20.405   4.881  21.860  0.00  0.00    +0.033 C 
ATOM     16  C2  UNL     1      19.173   4.476  22.676  0.00  0.00    +0.100 C 
BRANCH  16  17
ATOM     17  C11 UNL     1      18.095   3.915  21.769  0.00  0.00    -0.027 A 
ATOM     18  C12 UNL     1      17.612   4.670  20.664  0.00  0.00    +0.007 A 
ATOM     19  C13 UNL     1      16.608   4.156  19.824  0.00  0.00    +0.026 A 
ATOM     20  C14 UNL     1      16.104   2.890  20.110  0.00  0.00    +0.046 A 
ATOM     21  N2  UNL     1      15.150   2.221  19.442  0.00  0.00    -0.361 N 
ATOM     22  C15 UNL     1      15.002   1.044  20.092  0.00  0.00    +0.083 A 
ATOM     23  C16 UNL     1      15.867   0.968  21.179  0.00  0.00    +0.027 A 
ATOM     24  C17 UNL     1      16.561   2.157  21.171  0.00  0.00    -0.000 A 
ATOM     25  C18 UNL     1      17.553   2.633  22.025  0.00  0.00    +0.015 A 
ATOM     26  H12 UNL     1      14.630   2.539  18.594  0.00  0.00    +0.165 HD
ENDBRANCH  16  17
ENDBRANCH   1  16
TORSDOF 4
ENDMDL
