MODEL 1
REMARK VINA RESULT:    -5.984      0.000      0.000
REMARK INTER + INTRA:          -8.083
REMARK INTER:                  -7.384
REMARK INTRA:                  -0.700
REMARK UNBOUND:                -0.700
REMARK  Name = /home/qwerty/github/datacon2025hack/step_04_hit_selection/docking/ligands/lig_605.pdb
REMARK  6 active torsions:
REMARK  status: ('A' for Active; 'I' for Inactive)
REMARK    1  A    between atoms: C1_1  and  C2_2
REMARK    2  A    between atoms: C4_4  and  C5_5
REMARK    3  A    between atoms: N1_7  and  C6_8
REMARK    4  A    between atoms: C6_8  and  C7_9
REMARK    5  A    between atoms: C9_12  and  C10_14
REMARK    6  A    between atoms: C15_21  and  C16_22
REMARK                            x       y       z     vdW  Elec       q    Type
REMARK                         _______ _______ _______ _____ _____    ______ ____
ROOT
ATOM      1  C7  UNL     1      17.026  -2.140  23.855  0.00  0.00    +0.028 C 
ATOM      2  C8  UNL     1      17.228  -1.169  22.681  0.00  0.00    +0.113 C 
ATOM      3  N2  UNL     1      15.997  -0.400  22.591  0.00  0.00    -0.297 N 
ATOM      4  C9  UNL     1      15.781   0.598  21.577  0.00  0.00    +0.250 C 
ATOM      5  O2  UNL     1      16.541   0.634  20.572  0.00  0.00    -0.270 OA
ATOM      6  C14 UNL     1      14.941  -0.942  23.434  0.00  0.00    +0.111 C 
ATOM      7  C15 UNL     1      15.488  -2.277  23.939  0.00  0.00    +0.009 C 
ATOM      8  C16 UNL     1      14.914  -2.678  25.304  0.00  0.00    +0.009 C 
ENDROOT
BRANCH   4   9
ATOM      9  C10 UNL     1      14.679   1.578  21.675  0.00  0.00    +0.073 A 
ATOM     10  C11 UNL     1      13.534   1.446  20.879  0.00  0.00    +0.127 A 
ATOM     11  N3  UNL     1      12.534   2.362  20.968  0.00  0.00    -0.243 NA
ATOM     12  C12 UNL     1      12.631   3.421  21.812  0.00  0.00    +0.221 A 
ATOM     13  N4  UNL     1      13.742   3.583  22.576  0.00  0.00    -0.243 NA
ATOM     14  C13 UNL     1      14.763   2.689  22.523  0.00  0.00    +0.127 A 
ENDBRANCH   4   9
BRANCH   1  15
ATOM     15  C6  UNL     1      17.677  -1.594  25.147  0.00  0.00    +0.110 C 
BRANCH  15  18
ATOM     16  C5  UNL     1      19.043   0.506  25.626  0.00  0.00    +0.264 C 
ATOM     17  O1  UNL     1      18.400   0.717  26.690  0.00  0.00    -0.268 OA
ATOM     18  N1  UNL     1      18.749  -0.650  24.824  0.00  0.00    -0.310 N 
ATOM     19  H5  UNL     1      19.325  -0.852  23.977  0.00  0.00    +0.149 HD
BRANCH  16  23
ATOM     20  C1  UNL     1      22.883   3.766  25.583  0.00  0.00    +0.065 C 
ATOM     21  C2  UNL     1      21.729   2.897  25.202  0.00  0.00    +0.034 A 
ATOM     22  C3  UNL     1      20.958   2.147  26.064  0.00  0.00    +0.057 A 
ATOM     23  C4  UNL     1      20.090   1.464  25.227  0.00  0.00    +0.147 A 
ATOM     24  N5  UNL     1      20.349   1.784  23.943  0.00  0.00    -0.169 NA
ATOM     25  N6  UNL     1      21.348   2.651  23.938  0.00  0.00    -0.281 N 
ATOM     26  H20 UNL     1      21.768   3.058  23.072  0.00  0.00    +0.189 HD
ENDBRANCH  16  23
ENDBRANCH  15  18
ENDBRANCH   1  15
TORSDOF 4
ENDMDL
MODEL 2
REMARK VINA RESULT:    -5.819      6.473      9.301
REMARK INTER + INTRA:          -7.879
REMARK INTER:                  -7.300
REMARK INTRA:                  -0.579
REMARK UNBOUND:                -0.700
REMARK  Name = /home/qwerty/github/datacon2025hack/step_04_hit_selection/docking/ligands/lig_605.pdb
REMARK  6 active torsions:
REMARK  status: ('A' for Active; 'I' for Inactive)
REMARK    1  A    between atoms: C1_1  and  C2_2
REMARK    2  A    between atoms: C4_4  and  C5_5
REMARK    3  A    between atoms: N1_7  and  C6_8
REMARK    4  A    between atoms: C6_8  and  C7_9
REMARK    5  A    between atoms: C9_12  and  C10_14
REMARK    6  A    between atoms: C15_21  and  C16_22
REMARK                            x       y       z     vdW  Elec       q    Type
REMARK                         _______ _______ _______ _____ _____    ______ ____
ROOT
ATOM      1  C7  UNL     1      21.924   1.185  30.427  0.00  0.00    +0.028 C 
ATOM      2  C8  UNL     1      21.595   2.667  30.191  0.00  0.00    +0.113 C 
ATOM      3  N2  UNL     1      21.761   2.883  28.762  0.00  0.00    -0.297 N 
ATOM      4  C9  UNL     1      21.578   4.172  28.148  0.00  0.00    +0.250 C 
ATOM      5  O2  UNL     1      21.546   5.203  28.873  0.00  0.00    -0.270 OA
ATOM      6  C14 UNL     1      22.390   1.750  28.099  0.00  0.00    +0.111 C 
ATOM      7  C15 UNL     1      22.842   0.832  29.233  0.00  0.00    +0.009 C 
ATOM      8  C16 UNL     1      22.886  -0.646  28.823  0.00  0.00    +0.009 C 
ENDROOT
BRANCH   4   9
ATOM      9  C10 UNL     1      21.442   4.322  26.685  0.00  0.00    +0.073 A 
ATOM     10  C11 UNL     1      22.495   4.840  25.919  0.00  0.00    +0.127 A 
ATOM     11  N3  UNL     1      22.352   4.987  24.577  0.00  0.00    -0.243 NA
ATOM     12  C12 UNL     1      21.191   4.652  23.957  0.00  0.00    +0.221 A 
ATOM     13  N4  UNL     1      20.148   4.170  24.682  0.00  0.00    -0.243 NA
ATOM     14  C13 UNL     1      20.249   4.003  26.026  0.00  0.00    +0.127 A 
ENDBRANCH   4   9
BRANCH   1  15
ATOM     15  C6  UNL     1      20.635   0.333  30.498  0.00  0.00    +0.110 C 
BRANCH  15  18
ATOM     16  C5  UNL     1      18.891   1.021  32.228  0.00  0.00    +0.264 C 
ATOM     17  O1  UNL     1      18.218   1.628  31.352  0.00  0.00    -0.268 OA
ATOM     18  N1  UNL     1      20.096   0.329  31.860  0.00  0.00    -0.310 N 
ATOM     19  H5  UNL     1      20.615  -0.223  32.577  0.00  0.00    +0.149 HD
BRANCH  16  23
ATOM     20  C1  UNL     1      16.480   0.107  36.556  0.00  0.00    +0.065 C 
ATOM     21  C2  UNL     1      17.363   0.675  35.493  0.00  0.00    +0.034 A 
ATOM     22  C3  UNL     1      17.391   0.291  34.169  0.00  0.00    +0.057 A 
ATOM     23  C4  UNL     1      18.421   1.042  33.625  0.00  0.00    +0.147 A 
ATOM     24  N5  UNL     1      18.978   1.812  34.582  0.00  0.00    -0.169 NA
ATOM     25  N6  UNL     1      18.332   1.579  35.712  0.00  0.00    -0.281 N 
ATOM     26  H20 UNL     1      18.565   2.030  36.625  0.00  0.00    +0.189 HD
ENDBRANCH  16  23
ENDBRANCH  15  18
ENDBRANCH   1  15
TORSDOF 4
ENDMDL
MODEL 3
REMARK VINA RESULT:    -5.811      6.485      9.408
REMARK INTER + INTRA:          -7.870
REMARK INTER:                  -7.519
REMARK INTRA:                  -0.351
REMARK UNBOUND:                -0.700
REMARK  Name = /home/qwerty/github/datacon2025hack/step_04_hit_selection/docking/ligands/lig_605.pdb
REMARK  6 active torsions:
REMARK  status: ('A' for Active; 'I' for Inactive)
REMARK    1  A    between atoms: C1_1  and  C2_2
REMARK    2  A    between atoms: C4_4  and  C5_5
REMARK    3  A    between atoms: N1_7  and  C6_8
REMARK    4  A    between atoms: C6_8  and  C7_9
REMARK    5  A    between atoms: C9_12  and  C10_14
REMARK    6  A    between atoms: C15_21  and  C16_22
REMARK                            x       y       z     vdW  Elec       q    Type
REMARK                         _______ _______ _______ _____ _____    ______ ____
ROOT
ATOM      1  C7  UNL     1      20.996   2.279  31.988  0.00  0.00    +0.028 C 
ATOM      2  C8  UNL     1      22.121   2.185  30.946  0.00  0.00    +0.113 C 
ATOM      3  N2  UNL     1      21.462   1.893  29.682  0.00  0.00    -0.297 N 
ATOM      4  C9  UNL     1      22.192   1.691  28.458  0.00  0.00    +0.250 C 
ATOM      5  O2  UNL     1      23.435   1.483  28.506  0.00  0.00    -0.270 OA
ATOM      6  C14 UNL     1      20.056   1.558  29.854  0.00  0.00    +0.111 C 
ATOM      7  C15 UNL     1      19.865   1.428  31.364  0.00  0.00    +0.009 C 
ATOM      8  C16 UNL     1      18.437   1.761  31.815  0.00  0.00    +0.009 C 
ENDROOT
BRANCH   4   9
ATOM      9  C10 UNL     1      21.520   1.705  27.143  0.00  0.00    +0.073 A 
ATOM     10  C11 UNL     1      20.661   0.663  26.768  0.00  0.00    +0.127 A 
ATOM     11  N3  UNL     1      20.061   0.681  25.550  0.00  0.00    -0.243 NA
ATOM     12  C12 UNL     1      20.289   1.692  24.673  0.00  0.00    +0.221 A 
ATOM     13  N4  UNL     1      21.136   2.701  25.005  0.00  0.00    -0.243 NA
ATOM     14  C13 UNL     1      21.754   2.726  26.214  0.00  0.00    +0.127 A 
ENDBRANCH   4   9
BRANCH   1  15
ATOM     15  C6  UNL     1      20.601   3.751  32.249  0.00  0.00    +0.110 C 
BRANCH  15  18
ATOM     16  C5  UNL     1      22.370   5.261  33.295  0.00  0.00    +0.264 C 
ATOM     17  O1  UNL     1      21.919   5.040  34.451  0.00  0.00    -0.268 OA
ATOM     18  N1  UNL     1      21.773   4.623  32.153  0.00  0.00    -0.310 N 
ATOM     19  H5  UNL     1      22.190   4.762  31.206  0.00  0.00    +0.149 HD
BRANCH  16  23
ATOM     20  C1  UNL     1      25.301   9.253  32.372  0.00  0.00    +0.065 C 
ATOM     21  C2  UNL     1      24.791   7.893  32.718  0.00  0.00    +0.034 A 
ATOM     22  C3  UNL     1      23.480   7.473  32.637  0.00  0.00    +0.057 A 
ATOM     23  C4  UNL     1      23.511   6.183  33.143  0.00  0.00    +0.147 A 
ATOM     24  N5  UNL     1      24.769   5.869  33.516  0.00  0.00    -0.169 NA
ATOM     25  N6  UNL     1      25.537   6.915  33.258  0.00  0.00    -0.281 N 
ATOM     26  H20 UNL     1      26.561   6.956  33.462  0.00  0.00    +0.189 HD
ENDBRANCH  16  23
ENDBRANCH  15  18
ENDBRANCH   1  15
TORSDOF 4
ENDMDL
MODEL 4
REMARK VINA RESULT:    -5.687     10.267     13.944
REMARK INTER + INTRA:          -7.717
REMARK INTER:                  -7.016
REMARK INTRA:                  -0.701
REMARK UNBOUND:                -0.700
REMARK  Name = /home/qwerty/github/datacon2025hack/step_04_hit_selection/docking/ligands/lig_605.pdb
REMARK  6 active torsions:
REMARK  status: ('A' for Active; 'I' for Inactive)
REMARK    1  A    between atoms: C1_1  and  C2_2
REMARK    2  A    between atoms: C4_4  and  C5_5
REMARK    3  A    between atoms: N1_7  and  C6_8
REMARK    4  A    between atoms: C6_8  and  C7_9
REMARK    5  A    between atoms: C9_12  and  C10_14
REMARK    6  A    between atoms: C15_21  and  C16_22
REMARK                            x       y       z     vdW  Elec       q    Type
REMARK                         _______ _______ _______ _____ _____    ______ ____
ROOT
ATOM      1  C7  UNL     1      24.359   6.657  33.949  0.00  0.00    +0.028 C 
ATOM      2  C8  UNL     1      23.444   6.327  35.138  0.00  0.00    +0.113 C 
ATOM      3  N2  UNL     1      22.428   7.368  35.153  0.00  0.00    -0.297 N 
ATOM      4  C9  UNL     1      21.398   7.429  36.156  0.00  0.00    +0.250 C 
ATOM      5  O2  UNL     1      21.518   6.745  37.209  0.00  0.00    -0.270 OA
ATOM      6  C14 UNL     1      22.738   8.459  34.240  0.00  0.00    +0.111 C 
ATOM      7  C15 UNL     1      24.163   8.180  33.765  0.00  0.00    +0.009 C 
ATOM      8  C16 UNL     1      24.444   8.737  32.363  0.00  0.00    +0.009 C 
ENDROOT
BRANCH   4   9
ATOM      9  C10 UNL     1      20.206   8.286  35.993  0.00  0.00    +0.073 A 
ATOM     10  C11 UNL     1      20.069   9.468  36.732  0.00  0.00    +0.127 A 
ATOM     11  N3  UNL     1      18.962  10.240  36.584  0.00  0.00    -0.243 NA
ATOM     12  C12 UNL     1      17.966   9.877  35.734  0.00  0.00    +0.221 A 
ATOM     13  N4  UNL     1      18.065   8.724  35.025  0.00  0.00    -0.243 NA
ATOM     14  C13 UNL     1      19.157   7.924  35.138  0.00  0.00    +0.127 A 
ENDBRANCH   4   9
BRANCH   1  15
ATOM     15  C6  UNL     1      23.976   5.822  32.704  0.00  0.00    +0.110 C 
BRANCH  15  18
ATOM     16  C5  UNL     1      22.220   4.033  32.237  0.00  0.00    +0.264 C 
ATOM     17  O1  UNL     1      22.034   4.477  31.072  0.00  0.00    -0.268 OA
ATOM     18  N1  UNL     1      23.199   4.644  33.094  0.00  0.00    -0.310 N 
ATOM     19  H5  UNL     1      23.392   4.234  34.034  0.00  0.00    +0.149 HD
BRANCH  16  23
ATOM     20  C1  UNL     1      19.358  -0.105  32.483  0.00  0.00    +0.065 C 
ATOM     21  C2  UNL     1      20.153   1.115  32.813  0.00  0.00    +0.034 A 
ATOM     22  C3  UNL     1      20.724   1.982  31.905  0.00  0.00    +0.057 A 
ATOM     23  C4  UNL     1      21.415   2.886  32.696  0.00  0.00    +0.147 A 
ATOM     24  N5  UNL     1      21.271   2.558  33.997  0.00  0.00    -0.169 NA
ATOM     25  N6  UNL     1      20.507   1.479  34.057  0.00  0.00    -0.281 N 
ATOM     26  H20 UNL     1      20.243   0.995  34.944  0.00  0.00    +0.189 HD
ENDBRANCH  16  23
ENDBRANCH  15  18
ENDBRANCH   1  15
TORSDOF 4
ENDMDL
MODEL 5
REMARK VINA RESULT:    -5.646      7.745     12.118
REMARK INTER + INTRA:          -7.666
REMARK INTER:                  -6.977
REMARK INTRA:                  -0.690
REMARK UNBOUND:                -0.700
REMARK  Name = /home/qwerty/github/datacon2025hack/step_04_hit_selection/docking/ligands/lig_605.pdb
REMARK  6 active torsions:
REMARK  status: ('A' for Active; 'I' for Inactive)
REMARK    1  A    between atoms: C1_1  and  C2_2
REMARK    2  A    between atoms: C4_4  and  C5_5
REMARK    3  A    between atoms: N1_7  and  C6_8
REMARK    4  A    between atoms: C6_8  and  C7_9
REMARK    5  A    between atoms: C9_12  and  C10_14
REMARK    6  A    between atoms: C15_21  and  C16_22
REMARK                            x       y       z     vdW  Elec       q    Type
REMARK                         _______ _______ _______ _____ _____    ______ ____
ROOT
ATOM      1  C7  UNL     1       8.730   9.579  21.322  0.00  0.00    +0.028 C 
ATOM      2  C8  UNL     1       7.985   8.308  21.758  0.00  0.00    +0.113 C 
ATOM      3  N2  UNL     1       8.949   7.226  21.634  0.00  0.00    -0.297 N 
ATOM      4  C9  UNL     1       8.614   5.855  21.917  0.00  0.00    +0.250 C 
ATOM      5  O2  UNL     1       7.401   5.521  22.007  0.00  0.00    -0.270 OA
ATOM      6  C14 UNL     1      10.160   7.639  20.940  0.00  0.00    +0.111 C 
ATOM      7  C15 UNL     1       9.850   9.035  20.405  0.00  0.00    +0.009 C 
ATOM      8  C16 UNL     1      11.101   9.913  20.266  0.00  0.00    +0.009 C 
ENDROOT
BRANCH   4   9
ATOM      9  C10 UNL     1       9.655   4.822  22.090  0.00  0.00    +0.073 A 
ATOM     10  C11 UNL     1       9.982   3.954  21.040  0.00  0.00    +0.127 A 
ATOM     11  N3  UNL     1      10.931   2.998  21.217  0.00  0.00    -0.243 NA
ATOM     12  C12 UNL     1      11.566   2.857  22.409  0.00  0.00    +0.221 A 
ATOM     13  N4  UNL     1      11.249   3.671  23.449  0.00  0.00    -0.243 NA
ATOM     14  C13 UNL     1      10.310   4.643  23.315  0.00  0.00    +0.127 A 
ENDBRANCH   4   9
BRANCH   1  15
ATOM     15  C6  UNL     1       9.252  10.365  22.548  0.00  0.00    +0.110 C 
BRANCH  15  18
ATOM     16  C5  UNL     1       9.037  10.006  25.064  0.00  0.00    +0.264 C 
ATOM     17  O1  UNL     1      10.243  10.328  25.243  0.00  0.00    -0.268 OA
ATOM     18  N1  UNL     1       8.473  10.032  23.743  0.00  0.00    -0.310 N 
ATOM     19  H5  UNL     1       7.459   9.824  23.609  0.00  0.00    +0.149 HD
BRANCH  16  23
ATOM     20  C1  UNL     1       6.949   9.638  29.634  0.00  0.00    +0.065 C 
ATOM     21  C2  UNL     1       7.343   9.416  28.210  0.00  0.00    +0.034 A 
ATOM     22  C3  UNL     1       8.300  10.123  27.513  0.00  0.00    +0.057 A 
ATOM     23  C4  UNL     1       8.230   9.603  26.230  0.00  0.00    +0.147 A 
ATOM     24  N5  UNL     1       7.273   8.654  26.173  0.00  0.00    -0.169 NA
ATOM     25  N6  UNL     1       6.738   8.551  27.379  0.00  0.00    -0.281 N 
ATOM     26  H20 UNL     1       5.958   7.900  27.622  0.00  0.00    +0.189 HD
ENDBRANCH  16  23
ENDBRANCH  15  18
ENDBRANCH   1  15
TORSDOF 4
ENDMDL
MODEL 6
REMARK VINA RESULT:    -5.592      4.118      8.730
REMARK INTER + INTRA:          -7.599
REMARK INTER:                  -7.011
REMARK INTRA:                  -0.587
REMARK UNBOUND:                -0.700
REMARK  Name = /home/qwerty/github/datacon2025hack/step_04_hit_selection/docking/ligands/lig_605.pdb
REMARK  6 active torsions:
REMARK  status: ('A' for Active; 'I' for Inactive)
REMARK    1  A    between atoms: C1_1  and  C2_2
REMARK    2  A    between atoms: C4_4  and  C5_5
REMARK    3  A    between atoms: N1_7  and  C6_8
REMARK    4  A    between atoms: C6_8  and  C7_9
REMARK    5  A    between atoms: C9_12  and  C10_14
REMARK    6  A    between atoms: C15_21  and  C16_22
REMARK                            x       y       z     vdW  Elec       q    Type
REMARK                         _______ _______ _______ _____ _____    ______ ____
ROOT
ATOM      1  C7  UNL     1      10.931   2.623  22.928  0.00  0.00    +0.028 C 
ATOM      2  C8  UNL     1      12.403   3.061  22.931  0.00  0.00    +0.113 C 
ATOM      3  N2  UNL     1      13.158   1.906  22.471  0.00  0.00    -0.297 N 
ATOM      4  C9  UNL     1      14.594   1.908  22.374  0.00  0.00    +0.250 C 
ATOM      5  O2  UNL     1      15.251   2.816  22.952  0.00  0.00    -0.270 OA
ATOM      6  C14 UNL     1      12.341   0.703  22.400  0.00  0.00    +0.111 C 
ATOM      7  C15 UNL     1      11.020   1.085  23.063  0.00  0.00    +0.009 C 
ATOM      8  C16 UNL     1       9.828   0.285  22.522  0.00  0.00    +0.009 C 
ENDROOT
BRANCH   4   9
ATOM      9  C10 UNL     1      15.322   0.864  21.624  0.00  0.00    +0.073 A 
ATOM     10  C11 UNL     1      15.982  -0.171  22.300  0.00  0.00    +0.127 A 
ATOM     11  N3  UNL     1      16.661  -1.116  21.600  0.00  0.00    -0.243 NA
ATOM     12  C12 UNL     1      16.726  -1.069  20.244  0.00  0.00    +0.221 A 
ATOM     13  N4  UNL     1      16.115  -0.062  19.569  0.00  0.00    -0.243 NA
ATOM     14  C13 UNL     1      15.421   0.902  20.228  0.00  0.00    +0.127 A 
ENDBRANCH   4   9
BRANCH   1  15
ATOM     15  C6  UNL     1      10.212   3.097  21.644  0.00  0.00    +0.110 C 
BRANCH  15  18
ATOM     16  C5  UNL     1       9.798   5.571  21.181  0.00  0.00    +0.264 C 
ATOM     17  O1  UNL     1       8.583   5.458  21.498  0.00  0.00    -0.268 OA
ATOM     18  N1  UNL     1      10.673   4.433  21.260  0.00  0.00    -0.310 N 
ATOM     19  H5  UNL     1      11.690   4.548  21.054  0.00  0.00    +0.149 HD
BRANCH  16  23
ATOM     20  C1  UNL     1      10.228  10.427  19.910  0.00  0.00    +0.065 C 
ATOM     21  C2  UNL     1      10.482   8.974  20.148  0.00  0.00    +0.034 A 
ATOM     22  C3  UNL     1       9.558   8.050  20.586  0.00  0.00    +0.057 A 
ATOM     23  C4  UNL     1      10.294   6.884  20.728  0.00  0.00    +0.147 A 
ATOM     24  N5  UNL     1      11.583   7.116  20.405  0.00  0.00    -0.169 NA
ATOM     25  N6  UNL     1      11.688   8.388  20.059  0.00  0.00    -0.281 N 
ATOM     26  H20 UNL     1      12.582   8.848  19.776  0.00  0.00    +0.189 HD
ENDBRANCH  16  23
ENDBRANCH  15  18
ENDBRANCH   1  15
TORSDOF 4
ENDMDL
MODEL 7
REMARK VINA RESULT:    -5.578     11.926     15.079
REMARK INTER + INTRA:          -7.582
REMARK INTER:                  -7.060
REMARK INTRA:                  -0.523
REMARK UNBOUND:                -0.700
REMARK  Name = /home/qwerty/github/datacon2025hack/step_04_hit_selection/docking/ligands/lig_605.pdb
REMARK  6 active torsions:
REMARK  status: ('A' for Active; 'I' for Inactive)
REMARK    1  A    between atoms: C1_1  and  C2_2
REMARK    2  A    between atoms: C4_4  and  C5_5
REMARK    3  A    between atoms: N1_7  and  C6_8
REMARK    4  A    between atoms: C6_8  and  C7_9
REMARK    5  A    between atoms: C9_12  and  C10_14
REMARK    6  A    between atoms: C15_21  and  C16_22
REMARK                            x       y       z     vdW  Elec       q    Type
REMARK                         _______ _______ _______ _____ _____    ______ ____
ROOT
ATOM      1  C7  UNL     1      22.155   8.181  35.845  0.00  0.00    +0.028 C 
ATOM      2  C8  UNL     1      21.462   7.926  34.499  0.00  0.00    +0.113 C 
ATOM      3  N2  UNL     1      21.565   6.493  34.269  0.00  0.00    -0.297 N 
ATOM      4  C9  UNL     1      21.062   5.862  33.078  0.00  0.00    +0.250 C 
ATOM      5  O2  UNL     1      20.770   6.572  32.077  0.00  0.00    -0.270 OA
ATOM      6  C14 UNL     1      22.459   5.843  35.216  0.00  0.00    +0.111 C 
ATOM      7  C15 UNL     1      23.130   6.988  35.973  0.00  0.00    +0.009 C 
ATOM      8  C16 UNL     1      23.546   6.598  37.397  0.00  0.00    +0.009 C 
ENDROOT
BRANCH   4   9
ATOM      9  C10 UNL     1      20.890   4.398  32.989  0.00  0.00    +0.073 A 
ATOM     10  C11 UNL     1      21.751   3.624  32.200  0.00  0.00    +0.127 A 
ATOM     11  N3  UNL     1      21.573   2.280  32.114  0.00  0.00    -0.243 NA
ATOM     12  C12 UNL     1      20.558   1.667  32.775  0.00  0.00    +0.221 A 
ATOM     13  N4  UNL     1      19.696   2.399  33.527  0.00  0.00    -0.243 NA
ATOM     14  C13 UNL     1      19.838   3.745  33.644  0.00  0.00    +0.127 A 
ENDBRANCH   4   9
BRANCH   1  15
ATOM     15  C6  UNL     1      21.123   8.271  36.994  0.00  0.00    +0.110 C 
BRANCH  15  18
ATOM     16  C5  UNL     1      18.962   9.579  37.347  0.00  0.00    +0.264 C 
ATOM     17  O1  UNL     1      18.440   8.609  37.961  0.00  0.00    -0.268 OA
ATOM     18  N1  UNL     1      20.312   9.484  36.864  0.00  0.00    -0.310 N 
ATOM     19  H5  UNL     1      20.759  10.311  36.411  0.00  0.00    +0.149 HD
BRANCH  16  23
ATOM     20  C1  UNL     1      15.218  12.929  36.981  0.00  0.00    +0.065 C 
ATOM     21  C2  UNL     1      16.547  12.247  36.946  0.00  0.00    +0.034 A 
ATOM     22  C3  UNL     1      16.783  10.916  37.217  0.00  0.00    +0.057 A 
ATOM     23  C4  UNL     1      18.162  10.799  37.137  0.00  0.00    +0.147 A 
ATOM     24  N5  UNL     1      18.706  12.000  36.851  0.00  0.00    -0.169 NA
ATOM     25  N6  UNL     1      17.718  12.873  36.741  0.00  0.00    -0.281 N 
ATOM     26  H20 UNL     1      17.851  13.889  36.539  0.00  0.00    +0.189 HD
ENDBRANCH  16  23
ENDBRANCH  15  18
ENDBRANCH   1  15
TORSDOF 4
ENDMDL
MODEL 8
REMARK VINA RESULT:    -5.557     13.402     15.773
REMARK INTER + INTRA:          -7.556
REMARK INTER:                  -6.935
REMARK INTRA:                  -0.621
REMARK UNBOUND:                -0.700
REMARK  Name = /home/qwerty/github/datacon2025hack/step_04_hit_selection/docking/ligands/lig_605.pdb
REMARK  6 active torsions:
REMARK  status: ('A' for Active; 'I' for Inactive)
REMARK    1  A    between atoms: C1_1  and  C2_2
REMARK    2  A    between atoms: C4_4  and  C5_5
REMARK    3  A    between atoms: N1_7  and  C6_8
REMARK    4  A    between atoms: C6_8  and  C7_9
REMARK    5  A    between atoms: C9_12  and  C10_14
REMARK    6  A    between atoms: C15_21  and  C16_22
REMARK                            x       y       z     vdW  Elec       q    Type
REMARK                         _______ _______ _______ _____ _____    ______ ____
ROOT
ATOM      1  C7  UNL     1      11.013  14.128  29.448  0.00  0.00    +0.028 C 
ATOM      2  C8  UNL     1       9.732  13.378  29.845  0.00  0.00    +0.113 C 
ATOM      3  N2  UNL     1       9.589  12.303  28.876  0.00  0.00    -0.297 N 
ATOM      4  C9  UNL     1       8.475  11.392  28.889  0.00  0.00    +0.250 C 
ATOM      5  O2  UNL     1       7.452  11.677  29.568  0.00  0.00    -0.270 OA
ATOM      6  C14 UNL     1      10.518  12.433  27.763  0.00  0.00    +0.111 C 
ATOM      7  C15 UNL     1      11.155  13.810  27.941  0.00  0.00    +0.009 C 
ATOM      8  C16 UNL     1      12.573  13.891  27.361  0.00  0.00    +0.009 C 
ENDROOT
BRANCH   4   9
ATOM      9  C10 UNL     1       8.493  10.134  28.115  0.00  0.00    +0.073 A 
ATOM     10  C11 UNL     1       9.200   9.018  28.582  0.00  0.00    +0.127 A 
ATOM     11  N3  UNL     1       9.220   7.872  27.854  0.00  0.00    -0.243 NA
ATOM     12  C12 UNL     1       8.574   7.789  26.663  0.00  0.00    +0.221 A 
ATOM     13  N4  UNL     1       7.902   8.865  26.178  0.00  0.00    -0.243 NA
ATOM     14  C13 UNL     1       7.852  10.030  26.875  0.00  0.00    +0.127 A 
ENDBRANCH   4   9
BRANCH   1  15
ATOM     15  C6  UNL     1      12.216  13.663  30.302  0.00  0.00    +0.110 C 
BRANCH  15  18
ATOM     16  C5  UNL     1      11.788  14.167  32.765  0.00  0.00    +0.264 C 
ATOM     17  O1  UNL     1      12.142  15.368  32.612  0.00  0.00    -0.268 OA
ATOM     18  N1  UNL     1      11.775  13.271  31.642  0.00  0.00    -0.310 N 
ATOM     19  H5  UNL     1      11.423  12.296  31.763  0.00  0.00    +0.149 HD
BRANCH  16  23
ATOM     20  C1  UNL     1      11.390  11.675  37.125  0.00  0.00    +0.065 C 
ATOM     21  C2  UNL     1      11.194  12.621  35.986  0.00  0.00    +0.034 A 
ATOM     22  C3  UNL     1      11.863  12.591  34.781  0.00  0.00    +0.057 A 
ATOM     23  C4  UNL     1      11.395  13.710  34.111  0.00  0.00    +0.147 A 
ATOM     24  N5  UNL     1      10.512  14.370  34.887  0.00  0.00    -0.169 NA
ATOM     25  N6  UNL     1      10.400  13.704  36.025  0.00  0.00    -0.281 N 
ATOM     26  H20 UNL     1       9.791  13.999  36.821  0.00  0.00    +0.189 HD
ENDBRANCH  16  23
ENDBRANCH  15  18
ENDBRANCH   1  15
TORSDOF 4
ENDMDL
MODEL 9
REMARK VINA RESULT:    -5.501     12.427     14.332
REMARK INTER + INTRA:          -7.487
REMARK INTER:                  -7.006
REMARK INTRA:                  -0.481
REMARK UNBOUND:                -0.700
REMARK  Name = /home/qwerty/github/datacon2025hack/step_04_hit_selection/docking/ligands/lig_605.pdb
REMARK  6 active torsions:
REMARK  status: ('A' for Active; 'I' for Inactive)
REMARK    1  A    between atoms: C1_1  and  C2_2
REMARK    2  A    between atoms: C4_4  and  C5_5
REMARK    3  A    between atoms: N1_7  and  C6_8
REMARK    4  A    between atoms: C6_8  and  C7_9
REMARK    5  A    between atoms: C9_12  and  C10_14
REMARK    6  A    between atoms: C15_21  and  C16_22
REMARK                            x       y       z     vdW  Elec       q    Type
REMARK                         _______ _______ _______ _____ _____    ______ ____
ROOT
ATOM      1  C7  UNL     1       8.850  10.905  29.808  0.00  0.00    +0.028 C 
ATOM      2  C8  UNL     1       8.311   9.747  28.955  0.00  0.00    +0.113 C 
ATOM      3  N2  UNL     1       8.356  10.217  27.579  0.00  0.00    -0.297 N 
ATOM      4  C9  UNL     1       7.890   9.422  26.474  0.00  0.00    +0.250 C 
ATOM      5  O2  UNL     1       7.173   8.410  26.699  0.00  0.00    -0.270 OA
ATOM      6  C14 UNL     1       8.647  11.641  27.490  0.00  0.00    +0.111 C 
ATOM      7  C15 UNL     1       8.577  12.148  28.929  0.00  0.00    +0.009 C 
ATOM      8  C16 UNL     1       9.475  13.367  29.176  0.00  0.00    +0.009 C 
ENDROOT
BRANCH   4   9
ATOM      9  C10 UNL     1       8.220   9.768  25.076  0.00  0.00    +0.073 A 
ATOM     10  C11 UNL     1       9.540   9.691  24.614  0.00  0.00    +0.127 A 
ATOM     11  N3  UNL     1       9.833  10.026  23.331  0.00  0.00    -0.243 NA
ATOM     12  C12 UNL     1       8.863  10.452  22.481  0.00  0.00    +0.221 A 
ATOM     13  N4  UNL     1       7.580  10.558  22.914  0.00  0.00    -0.243 NA
ATOM     14  C13 UNL     1       7.241  10.229  24.187  0.00  0.00    +0.127 A 
ENDBRANCH   4   9
BRANCH   1  15
ATOM     15  C6  UNL     1      10.344  10.696  30.148  0.00  0.00    +0.110 C 
BRANCH  15  18
ATOM     16  C5  UNL     1      11.338  11.237  32.434  0.00  0.00    +0.264 C 
ATOM     17  O1  UNL     1      11.914  12.260  31.975  0.00  0.00    -0.268 OA
ATOM     18  N1  UNL     1      10.514  10.428  31.578  0.00  0.00    -0.310 N 
ATOM     19  H5  UNL     1       9.991   9.618  31.977  0.00  0.00    +0.149 HD
BRANCH  16  23
ATOM     20  C1  UNL     1      11.071  11.020  37.460  0.00  0.00    +0.065 C 
ATOM     21  C2  UNL     1      11.444  10.810  36.029  0.00  0.00    +0.034 A 
ATOM     22  C3  UNL     1      10.947  11.510  34.950  0.00  0.00    +0.057 A 
ATOM     23  C4  UNL     1      11.530  10.891  33.854  0.00  0.00    +0.147 A 
ATOM     24  N5  UNL     1      12.313   9.874  34.268  0.00  0.00    -0.169 NA
ATOM     25  N6  UNL     1      12.251   9.831  35.589  0.00  0.00    -0.281 N 
ATOM     26  H20 UNL     1      12.750   9.127  36.178  0.00  0.00    +0.189 HD
ENDBRANCH  16  23
ENDBRANCH  15  18
ENDBRANCH   1  15
TORSDOF 4
ENDMDL
