REMARK  Name = /home/qwerty/github/datacon2025hack/step_04_hit_selection/docking/ligands/lig_1.pdb
REMARK  7 active torsions:
REMARK  status: ('A' for Active; 'I' for Inactive)
REMARK    1  A    between atoms: C1_1  and  C2_2
REMARK    2  A    between atoms: C2_2  and  C3_3
REMARK    3  A    between atoms: C3_3  and  N1_4
REMARK    4  A    between atoms: C3_3  and  C14_19
REMARK    5  A    between atoms: C7_10  and  C8_11
REMARK    6  A    between atoms: C17_22  and  C18_23
REMARK    7  A    between atoms: C19_24  and  C20_25
REMARK                            x       y       z     vdW  Elec       q    Type
REMARK                         _______ _______ _______ _____ _____    ______ ____
ROOT
ATOM      1  N1  UNL     1      -1.211   1.680   0.448  0.00  0.00    -0.292 N 
ATOM      2  C4  UNL     1      -0.330   0.581   0.739  0.00  0.00    +0.303 C 
ATOM      3  O1  UNL     1      -0.622  -0.231   1.659  0.00  0.00    -0.253 OA
ATOM      4  N2  UNL     1       0.880   0.395  -0.014  0.00  0.00    -0.285 N 
ATOM      5  C5  UNL     1       1.197   1.127  -1.227  0.00  0.00    +0.110 C 
ATOM      6  C6  UNL     1       2.381   0.401  -1.849  0.00  0.00    +0.033 C 
ATOM      7  C7  UNL     1       2.977  -0.468  -0.731  0.00  0.00    +0.094 C 
ATOM      8  C13 UNL     1       1.847  -0.647   0.288  0.00  0.00    +0.122 C 
ATOM      9  H7  UNL     1      -0.875   2.452  -0.169  0.00  0.00    +0.151 HD
ENDROOT
BRANCH   7  10
ATOM     10  C8  UNL     1       4.179   0.213  -0.104  0.00  0.00    +0.220 C 
ATOM     11  O2  UNL     1       4.034   1.361   0.403  0.00  0.00    -0.275 OA
ATOM     12  N3  UNL     1       5.478  -0.409  -0.076  0.00  0.00    -0.301 N 
ATOM     13  C9  UNL     1       5.749  -1.783  -0.468  0.00  0.00    +0.108 C 
ATOM     14  C10 UNL     1       7.204  -2.037  -0.094  0.00  0.00    +0.020 C 
ATOM     15  C11 UNL     1       7.830  -0.660   0.110  0.00  0.00    +0.020 C 
ATOM     16  C12 UNL     1       6.669   0.289   0.376  0.00  0.00    +0.108 C 
ENDBRANCH   7  10
BRANCH   1  17
ATOM     17  C3  UNL     1      -2.593   1.713   0.944  0.00  0.00    +0.104 C 
BRANCH  17  18
ATOM     18  C14 UNL     1      -3.420   0.669   0.216  0.00  0.00    -0.027 A 
ATOM     19  C15 UNL     1      -3.416   0.606  -1.187  0.00  0.00    +0.006 A 
ATOM     20  C16 UNL     1      -4.170  -0.359  -1.855  0.00  0.00    +0.004 A 
ATOM     21  C17 UNL     1      -4.954  -1.278  -1.138  0.00  0.00    -0.048 A 
ATOM     22  C18 UNL     1      -5.746  -2.313  -1.889  0.00  0.00    +0.044 C 
ATOM     23  C19 UNL     1      -4.960  -1.229   0.277  0.00  0.00    -0.047 A 
ATOM     24  C20 UNL     1      -5.789  -2.188   1.089  0.00  0.00    +0.044 C 
ATOM     25  C21 UNL     1      -4.201  -0.247   0.939  0.00  0.00    +0.009 A 
ENDBRANCH  17  18
BRANCH  17  27
ATOM     26  C1  UNL     1      -4.561   3.267   1.429  0.00  0.00    +0.006 C 
ATOM     27  C2  UNL     1      -3.191   3.126   0.764  0.00  0.00    +0.024 C 
ENDBRANCH  17  27
ENDBRANCH   1  17
TORSDOF 4
