REMARK  Name = /home/qwerty/github/datacon2025hack/step_04_hit_selection/docking/ligands/lig_262.pdb
REMARK  9 active torsions:
REMARK  status: ('A' for Active; 'I' for Inactive)
REMARK    1  A    between atoms: C1_1  and  C2_2
REMARK    2  A    between atoms: C2_2  and  C3_3
REMARK    3  A    between atoms: C2_2  and  C9_13
REMARK    4  A    between atoms: C3_3  and  N1_4
REMARK    5  A    between atoms: C4_5  and  C5_7
REMARK    6  A    between atoms: C9_13  and  N3_14
REMARK    7  A    between atoms: C10_15  and  C11_17
REMARK    8  A    between atoms: C11_17  and  C12_18
REMARK    9  A    between atoms: C11_17  and  C13_19
REMARK                            x       y       z     vdW  Elec       q    Type
REMARK                         _______ _______ _______ _____ _____    ______ ____
ROOT
ATOM      1  C1  UNL     1       1.382  -2.577   1.802  0.00  0.00    +0.010 C 
ATOM      2  C2  UNL     1       0.305  -2.071   0.832  0.00  0.00    +0.020 C 
ENDROOT
BRANCH   2   3
ATOM      3  C3  UNL     1       0.813  -2.081  -0.629  0.00  0.00    +0.109 C 
BRANCH   3   4
ATOM      4  N1  UNL     1       1.854  -1.077  -0.855  0.00  0.00    -0.310 N 
ATOM      5  C4  UNL     1       3.255  -1.360  -0.713  0.00  0.00    +0.260 C 
ATOM      6  O1  UNL     1       3.643  -2.551  -0.566  0.00  0.00    -0.269 OA
ATOM      7  H7  UNL     1       1.546  -0.127  -1.160  0.00  0.00    +0.149 HD
BRANCH   5   8
ATOM      8  C5  UNL     1       4.257  -0.276  -0.740  0.00  0.00    +0.105 A 
ATOM      9  C6  UNL     1       5.628  -0.465  -0.761  0.00  0.00    +0.070 A 
ATOM     10  C7  UNL     1       6.178   0.798  -0.761  0.00  0.00    +0.141 A 
ATOM     11  F1  UNL     1       7.500   1.096  -0.772  0.00  0.00    -0.204 F 
ATOM     12  C8  UNL     1       5.140   1.703  -0.735  0.00  0.00    +0.121 A 
ATOM     13  N2  UNL     1       3.968   1.043  -0.721  0.00  0.00    -0.355 N 
ATOM     14  H10 UNL     1       3.026   1.489  -0.680  0.00  0.00    +0.166 HD
ENDBRANCH   5   8
ENDBRANCH   3   4
ENDBRANCH   2   3
BRANCH   2  15
ATOM     15  C9  UNL     1      -0.202  -0.681   1.276  0.00  0.00    +0.109 C 
BRANCH  15  16
ATOM     16  N3  UNL     1      -1.364  -0.252   0.497  0.00  0.00    -0.315 N 
ATOM     17  C10 UNL     1      -1.915   1.066   0.642  0.00  0.00    +0.216 C 
ATOM     18  O2  UNL     1      -1.414   1.870   1.476  0.00  0.00    -0.276 OA
ATOM     19  H13 UNL     1      -1.822  -0.918  -0.164  0.00  0.00    +0.149 HD
BRANCH  17  20
ATOM     20  C11 UNL     1      -3.085   1.510  -0.196  0.00  0.00    +0.075 C 
ATOM     21  C12 UNL     1      -2.710   1.517  -1.680  0.00  0.00    +0.017 C 
BRANCH  20  22
ATOM     22  C13 UNL     1      -4.291   0.582   0.046  0.00  0.00    +0.001 C 
ATOM     23  C14 UNL     1      -5.659   1.232  -0.103  0.00  0.00    +0.004 C 
ATOM     24  C15 UNL     1      -5.121   0.903   1.280  0.00  0.00    +0.004 C 
ENDBRANCH  20  22
ENDBRANCH  17  20
ENDBRANCH  15  16
ENDBRANCH   2  15
TORSDOF 7
