MODEL 1
REMARK VINA RESULT:    -6.338      0.000      0.000
REMARK INTER + INTRA:          -9.673
REMARK INTER:                  -8.375
REMARK INTRA:                  -1.298
REMARK UNBOUND:                -1.298
REMARK  Name = /home/qwerty/github/datacon2025hack/step_04_hit_selection/docking/ligands/lig_321.pdb
REMARK  8 active torsions:
REMARK  status: ('A' for Active; 'I' for Inactive)
REMARK    1  A    between atoms: C1_1  and  C2_2
REMARK    2  A    between atoms: C2_2  and  C3_3
REMARK    3  A    between atoms: C2_2  and  C4_4
REMARK    4  A    between atoms: C7_7  and  C8_8
REMARK    5  A    between atoms: N1_10  and  C9_11
REMARK    6  A    between atoms: C9_11  and  C10_12
REMARK    7  A    between atoms: C10_12  and  O2_13
REMARK    8  A    between atoms: C10_12  and  C11_14
REMARK                            x       y       z     vdW  Elec       q    Type
REMARK                         _______ _______ _______ _____ _____    ______ ____
ROOT
ATOM      1  C8  UNL     1       8.297   7.928  26.995  0.00  0.00    +0.244 C 
ATOM      2  O1  UNL     1       9.357   7.408  27.440  0.00  0.00    -0.270 OA
ATOM      3  N1  UNL     1       7.119   7.959  27.820  0.00  0.00    -0.308 N 
ATOM      4  H10 UNL     1       6.222   8.329  27.437  0.00  0.00    +0.149 HD
ENDROOT
BRANCH   1   8
ATOM      5  C4  UNL     1       8.232   9.552  23.003  0.00  0.00    -0.045 A 
ATOM      6  C5  UNL     1       8.902   8.346  23.267  0.00  0.00    +0.004 A 
ATOM      7  C6  UNL     1       8.926   7.814  24.559  0.00  0.00    +0.013 A 
ATOM      8  C7  UNL     1       8.283   8.478  25.617  0.00  0.00    +0.037 A 
ATOM      9  C19 UNL     1       7.599   9.677  25.350  0.00  0.00    +0.013 A 
ATOM     10  C20 UNL     1       7.577  10.210  24.059  0.00  0.00    +0.004 A 
BRANCH   5  12
ATOM     11  C1  UNL     1       7.645  11.542  21.580  0.00  0.00    +0.012 C 
ATOM     12  C2  UNL     1       8.216  10.120  21.595  0.00  0.00    +0.013 C 
ATOM     13  C3  UNL     1       9.614  10.079  20.967  0.00  0.00    +0.012 C 
ENDBRANCH   5  12
ENDBRANCH   1   8
BRANCH   3  14
ATOM     14  C9  UNL     1       7.101   7.425  29.181  0.00  0.00    +0.143 C 
BRANCH  14  15
ATOM     15  C10 UNL     1       6.956   8.555  30.217  0.00  0.00    +0.197 C 
BRANCH  15  16
ATOM     16  C11 UNL     1       7.730   9.780  29.812  0.00  0.00    +0.136 A 
ATOM     17  C12 UNL     1       9.016  10.115  30.238  0.00  0.00    +0.056 A 
ATOM     18  C13 UNL     1       9.294  11.290  29.582  0.00  0.00    +0.020 A 
ATOM     19  C14 UNL     1      10.428  12.101  29.602  0.00  0.00    +0.011 A 
ATOM     20  C15 UNL     1      10.416  13.260  28.804  0.00  0.00    +0.001 A 
ATOM     21  C16 UNL     1       9.286  13.576  28.016  0.00  0.00    +0.004 A 
ATOM     22  C17 UNL     1       8.158  12.735  28.018  0.00  0.00    +0.047 A 
ATOM     23  C18 UNL     1       8.200  11.595  28.817  0.00  0.00    +0.135 A 
ATOM     24  O3  UNL     1       7.270  10.683  28.963  0.00  0.00    -0.457 OA
ENDBRANCH  15  16
BRANCH  15  25
ATOM     25  O2  UNL     1       7.352   8.120  31.494  0.00  0.00    -0.383 OA
ATOM     26  H14 UNL     1       7.949   8.812  31.881  0.00  0.00    +0.210 HD
ENDBRANCH  15  25
ENDBRANCH  14  15
ENDBRANCH   3  14
TORSDOF 6
ENDMDL
MODEL 2
REMARK VINA RESULT:    -6.331      4.804      9.321
REMARK INTER + INTRA:          -9.665
REMARK INTER:                  -8.368
REMARK INTRA:                  -1.296
REMARK UNBOUND:                -1.298
REMARK  Name = /home/qwerty/github/datacon2025hack/step_04_hit_selection/docking/ligands/lig_321.pdb
REMARK  8 active torsions:
REMARK  status: ('A' for Active; 'I' for Inactive)
REMARK    1  A    between atoms: C1_1  and  C2_2
REMARK    2  A    between atoms: C2_2  and  C3_3
REMARK    3  A    between atoms: C2_2  and  C4_4
REMARK    4  A    between atoms: C7_7  and  C8_8
REMARK    5  A    between atoms: N1_10  and  C9_11
REMARK    6  A    between atoms: C9_11  and  C10_12
REMARK    7  A    between atoms: C10_12  and  O2_13
REMARK    8  A    between atoms: C10_12  and  C11_14
REMARK                            x       y       z     vdW  Elec       q    Type
REMARK                         _______ _______ _______ _____ _____    ______ ____
ROOT
ATOM      1  C8  UNL     1      13.522  13.872  30.458  0.00  0.00    +0.244 C 
ATOM      2  O1  UNL     1      14.173  12.852  30.100  0.00  0.00    -0.270 OA
ATOM      3  N1  UNL     1      13.414  14.995  29.566  0.00  0.00    -0.308 N 
ATOM      4  H10 UNL     1      12.931  15.866  29.878  0.00  0.00    +0.149 HD
ENDROOT
BRANCH   1   8
ATOM      5  C4  UNL     1      11.739  13.931  34.381  0.00  0.00    -0.045 A 
ATOM      6  C5  UNL     1      10.958  14.194  33.244  0.00  0.00    +0.004 A 
ATOM      7  C6  UNL     1      11.530  14.175  31.969  0.00  0.00    +0.013 A 
ATOM      8  C7  UNL     1      12.898  13.898  31.803  0.00  0.00    +0.037 A 
ATOM      9  C19 UNL     1      13.676  13.619  32.940  0.00  0.00    +0.013 A 
ATOM     10  C20 UNL     1      13.105  13.640  34.215  0.00  0.00    +0.004 A 
BRANCH   5  12
ATOM     11  C1  UNL     1       9.682  14.524  35.704  0.00  0.00    +0.012 C 
ATOM     12  C2  UNL     1      11.105  13.957  35.760  0.00  0.00    +0.013 C 
ATOM     13  C3  UNL     1      11.120  12.565  36.402  0.00  0.00    +0.012 C 
ENDBRANCH   5  12
ENDBRANCH   1   8
BRANCH   3  14
ATOM     14  C9  UNL     1      14.017  15.000  28.234  0.00  0.00    +0.143 C 
BRANCH  14  15
ATOM     15  C10 UNL     1      12.936  15.016  27.136  0.00  0.00    +0.197 C 
BRANCH  15  16
ATOM     16  C11 UNL     1      11.763  14.148  27.503  0.00  0.00    +0.136 A 
ATOM     17  C12 UNL     1      11.534  12.847  27.054  0.00  0.00    +0.056 A 
ATOM     18  C13 UNL     1      10.368  12.474  27.678  0.00  0.00    +0.020 A 
ATOM     19  C14 UNL     1       9.644  11.284  27.625  0.00  0.00    +0.011 A 
ATOM     20  C15 UNL     1       8.468  11.200  28.395  0.00  0.00    +0.001 A 
ATOM     21  C16 UNL     1       8.052  12.292  29.188  0.00  0.00    +0.004 A 
ATOM     22  C17 UNL     1       8.807  13.480  29.220  0.00  0.00    +0.047 A 
ATOM     23  C18 UNL     1       9.965  13.533  28.448  0.00  0.00    +0.135 A 
ATOM     24  O3  UNL     1      10.809  14.529  28.335  0.00  0.00    -0.457 OA
ENDBRANCH  15  16
BRANCH  15  25
ATOM     25  O2  UNL     1      13.473  14.624  25.898  0.00  0.00    -0.383 OA
ATOM     26  H14 UNL     1      13.613  13.641  25.922  0.00  0.00    +0.210 HD
ENDBRANCH  15  25
ENDBRANCH  14  15
ENDBRANCH   3  14
TORSDOF 6
ENDMDL
MODEL 3
REMARK VINA RESULT:    -6.141      2.016      2.914
REMARK INTER + INTRA:          -9.413
REMARK INTER:                  -8.393
REMARK INTRA:                  -1.020
REMARK UNBOUND:                -1.298
REMARK  Name = /home/qwerty/github/datacon2025hack/step_04_hit_selection/docking/ligands/lig_321.pdb
REMARK  8 active torsions:
REMARK  status: ('A' for Active; 'I' for Inactive)
REMARK    1  A    between atoms: C1_1  and  C2_2
REMARK    2  A    between atoms: C2_2  and  C3_3
REMARK    3  A    between atoms: C2_2  and  C4_4
REMARK    4  A    between atoms: C7_7  and  C8_8
REMARK    5  A    between atoms: N1_10  and  C9_11
REMARK    6  A    between atoms: C9_11  and  C10_12
REMARK    7  A    between atoms: C10_12  and  O2_13
REMARK    8  A    between atoms: C10_12  and  C11_14
REMARK                            x       y       z     vdW  Elec       q    Type
REMARK                         _______ _______ _______ _____ _____    ______ ____
ROOT
ATOM      1  C8  UNL     1       8.443   9.667  25.544  0.00  0.00    +0.244 C 
ATOM      2  O1  UNL     1       7.198   9.490  25.449  0.00  0.00    -0.270 OA
ATOM      3  N1  UNL     1       9.064   9.670  26.841  0.00  0.00    -0.308 N 
ATOM      4  H10 UNL     1      10.082   9.878  26.934  0.00  0.00    +0.149 HD
ENDROOT
BRANCH   1   8
ATOM      5  C4  UNL     1      10.727  10.305  21.945  0.00  0.00    -0.045 A 
ATOM      6  C5  UNL     1      11.363  10.306  23.197  0.00  0.00    +0.004 A 
ATOM      7  C6  UNL     1      10.628  10.099  24.368  0.00  0.00    +0.013 A 
ATOM      8  C7  UNL     1       9.239   9.890  24.312  0.00  0.00    +0.037 A 
ATOM      9  C19 UNL     1       8.606   9.873  23.058  0.00  0.00    +0.013 A 
ATOM     10  C20 UNL     1       9.340  10.082  21.887  0.00  0.00    +0.004 A 
BRANCH   5  12
ATOM     11  C1  UNL     1      13.028  10.272  20.926  0.00  0.00    +0.012 C 
ATOM     12  C2  UNL     1      11.538  10.534  20.682  0.00  0.00    +0.013 C 
ATOM     13  C3  UNL     1      11.009   9.679  19.524  0.00  0.00    +0.012 C 
ENDBRANCH   5  12
ENDBRANCH   1   8
BRANCH   3  14
ATOM     14  C9  UNL     1       8.307   9.452  28.073  0.00  0.00    +0.143 C 
BRANCH  14  15
ATOM     15  C10 UNL     1       7.770  10.781  28.636  0.00  0.00    +0.197 C 
BRANCH  15  16
ATOM     16  C11 UNL     1       8.861  11.810  28.760  0.00  0.00    +0.136 A 
ATOM     17  C12 UNL     1       9.555  12.132  29.926  0.00  0.00    +0.056 A 
ATOM     18  C13 UNL     1      10.454  13.094  29.532  0.00  0.00    +0.020 A 
ATOM     19  C14 UNL     1      11.419  13.793  30.254  0.00  0.00    +0.011 A 
ATOM     20  C15 UNL     1      12.205  14.729  29.556  0.00  0.00    +0.001 A 
ATOM     21  C16 UNL     1      12.009  14.941  28.173  0.00  0.00    +0.004 A 
ATOM     22  C17 UNL     1      11.025  14.218  27.474  0.00  0.00    +0.047 A 
ATOM     23  C18 UNL     1      10.263  13.298  28.191  0.00  0.00    +0.135 A 
ATOM     24  O3  UNL     1       9.308  12.523  27.740  0.00  0.00    -0.457 OA
ENDBRANCH  15  16
BRANCH  15  25
ATOM     25  O2  UNL     1       7.134  10.582  29.874  0.00  0.00    -0.383 OA
ATOM     26  H14 UNL     1       7.655   9.906  30.380  0.00  0.00    +0.210 HD
ENDBRANCH  15  25
ENDBRANCH  14  15
ENDBRANCH   3  14
TORSDOF 6
ENDMDL
MODEL 4
REMARK VINA RESULT:    -6.113     13.844     17.089
REMARK INTER + INTRA:          -9.376
REMARK INTER:                  -8.275
REMARK INTRA:                  -1.101
REMARK UNBOUND:                -1.298
REMARK  Name = /home/qwerty/github/datacon2025hack/step_04_hit_selection/docking/ligands/lig_321.pdb
REMARK  8 active torsions:
REMARK  status: ('A' for Active; 'I' for Inactive)
REMARK    1  A    between atoms: C1_1  and  C2_2
REMARK    2  A    between atoms: C2_2  and  C3_3
REMARK    3  A    between atoms: C2_2  and  C4_4
REMARK    4  A    between atoms: C7_7  and  C8_8
REMARK    5  A    between atoms: N1_10  and  C9_11
REMARK    6  A    between atoms: C9_11  and  C10_12
REMARK    7  A    between atoms: C10_12  and  O2_13
REMARK    8  A    between atoms: C10_12  and  C11_14
REMARK                            x       y       z     vdW  Elec       q    Type
REMARK                         _______ _______ _______ _____ _____    ______ ____
ROOT
ATOM      1  C8  UNL     1      23.842  15.598  21.993  0.00  0.00    +0.244 C 
ATOM      2  O1  UNL     1      25.004  15.939  21.639  0.00  0.00    -0.270 OA
ATOM      3  N1  UNL     1      22.764  15.656  21.043  0.00  0.00    -0.308 N 
ATOM      4  H10 UNL     1      21.789  15.436  21.344  0.00  0.00    +0.149 HD
ENDROOT
BRANCH   1   8
ATOM      5  C4  UNL     1      23.148  14.303  26.045  0.00  0.00    -0.045 A 
ATOM      6  C5  UNL     1      23.641  15.593  25.787  0.00  0.00    +0.004 A 
ATOM      7  C6  UNL     1      23.867  16.019  24.476  0.00  0.00    +0.013 A 
ATOM      8  C7  UNL     1      23.609  15.163  23.392  0.00  0.00    +0.037 A 
ATOM      9  C19 UNL     1      23.101  13.877  23.649  0.00  0.00    +0.013 A 
ATOM     10  C20 UNL     1      22.876  13.450  24.960  0.00  0.00    +0.004 A 
BRANCH   5  12
ATOM     11  C1  UNL     1      24.227  13.483  28.165  0.00  0.00    +0.012 C 
ATOM     12  C2  UNL     1      22.909  13.853  27.475  0.00  0.00    +0.013 C 
ATOM     13  C3  UNL     1      22.149  14.920  28.271  0.00  0.00    +0.012 C 
ENDBRANCH   5  12
ENDBRANCH   1   8
BRANCH   3  14
ATOM     14  C9  UNL     1      22.961  16.080  19.657  0.00  0.00    +0.143 C 
BRANCH  14  15
ATOM     15  C10 UNL     1      23.259  14.875  18.746  0.00  0.00    +0.197 C 
BRANCH  15  16
ATOM     16  C11 UNL     1      22.191  13.820  18.856  0.00  0.00    +0.136 A 
ATOM     17  C12 UNL     1      22.350  12.461  18.588  0.00  0.00    +0.056 A 
ATOM     18  C13 UNL     1      21.117  11.916  18.855  0.00  0.00    +0.020 A 
ATOM     19  C14 UNL     1      20.664  10.600  18.775  0.00  0.00    +0.011 A 
ATOM     20  C15 UNL     1      19.324  10.349  19.125  0.00  0.00    +0.001 A 
ATOM     21  C16 UNL     1      18.482  11.406  19.540  0.00  0.00    +0.004 A 
ATOM     22  C17 UNL     1      18.972  12.723  19.610  0.00  0.00    +0.047 A 
ATOM     23  C18 UNL     1      20.302  12.940  19.258  0.00  0.00    +0.135 A 
ATOM     24  O3  UNL     1      20.956  14.075  19.255  0.00  0.00    -0.457 OA
ENDBRANCH  15  16
BRANCH  15  25
ATOM     25  O2  UNL     1      24.523  14.329  19.032  0.00  0.00    -0.383 OA
ATOM     26  H14 UNL     1      25.064  15.030  19.482  0.00  0.00    +0.210 HD
ENDBRANCH  15  25
ENDBRANCH  14  15
ENDBRANCH   3  14
TORSDOF 6
ENDMDL
MODEL 5
REMARK VINA RESULT:    -6.093      6.090      8.786
REMARK INTER + INTRA:          -9.350
REMARK INTER:                  -8.035
REMARK INTRA:                  -1.315
REMARK UNBOUND:                -1.298
REMARK  Name = /home/qwerty/github/datacon2025hack/step_04_hit_selection/docking/ligands/lig_321.pdb
REMARK  8 active torsions:
REMARK  status: ('A' for Active; 'I' for Inactive)
REMARK    1  A    between atoms: C1_1  and  C2_2
REMARK    2  A    between atoms: C2_2  and  C3_3
REMARK    3  A    between atoms: C2_2  and  C4_4
REMARK    4  A    between atoms: C7_7  and  C8_8
REMARK    5  A    between atoms: N1_10  and  C9_11
REMARK    6  A    between atoms: C9_11  and  C10_12
REMARK    7  A    between atoms: C10_12  and  O2_13
REMARK    8  A    between atoms: C10_12  and  C11_14
REMARK                            x       y       z     vdW  Elec       q    Type
REMARK                         _______ _______ _______ _____ _____    ______ ____
ROOT
ATOM      1  C8  UNL     1      10.268   3.942  21.010  0.00  0.00    +0.244 C 
ATOM      2  O1  UNL     1       9.793   3.287  21.979  0.00  0.00    -0.270 OA
ATOM      3  N1  UNL     1       9.411   4.816  20.255  0.00  0.00    -0.308 N 
ATOM      4  H10 UNL     1       9.780   5.312  19.414  0.00  0.00    +0.149 HD
ENDROOT
BRANCH   1   8
ATOM      5  C4  UNL     1      14.426   3.499  19.967  0.00  0.00    -0.045 A 
ATOM      6  C5  UNL     1      13.746   2.461  20.624  0.00  0.00    +0.004 A 
ATOM      7  C6  UNL     1      12.397   2.598  20.965  0.00  0.00    +0.013 A 
ATOM      8  C7  UNL     1      11.699   3.779  20.658  0.00  0.00    +0.037 A 
ATOM      9  C19 UNL     1      12.376   4.812  19.986  0.00  0.00    +0.013 A 
ATOM     10  C20 UNL     1      13.725   4.676  19.647  0.00  0.00    +0.004 A 
BRANCH   5  12
ATOM     11  C1  UNL     1      16.673   4.628  19.877  0.00  0.00    +0.012 C 
ATOM     12  C2  UNL     1      15.891   3.337  19.605  0.00  0.00    +0.013 C 
ATOM     13  C3  UNL     1      16.515   2.147  20.344  0.00  0.00    +0.012 C 
ENDBRANCH   5  12
ENDBRANCH   1   8
BRANCH   3  14
ATOM     14  C9  UNL     1       7.996   4.998  20.577  0.00  0.00    +0.143 C 
BRANCH  14  15
ATOM     15  C10 UNL     1       7.809   6.079  21.658  0.00  0.00    +0.197 C 
BRANCH  15  16
ATOM     16  C11 UNL     1       8.827   7.178  21.524  0.00  0.00    +0.136 A 
ATOM     17  C12 UNL     1       9.450   7.852  22.574  0.00  0.00    +0.056 A 
ATOM     18  C13 UNL     1      10.303   8.733  21.954  0.00  0.00    +0.020 A 
ATOM     19  C14 UNL     1      11.192   9.669  22.481  0.00  0.00    +0.011 A 
ATOM     20  C15 UNL     1      11.947  10.435  21.574  0.00  0.00    +0.001 A 
ATOM     21  C16 UNL     1      11.797  10.250  20.181  0.00  0.00    +0.004 A 
ATOM     22  C17 UNL     1      10.891   9.295  19.682  0.00  0.00    +0.047 A 
ATOM     23  C18 UNL     1      10.158   8.552  20.604  0.00  0.00    +0.135 A 
ATOM     24  O3  UNL     1       9.273   7.619  20.359  0.00  0.00    -0.457 OA
ENDBRANCH  15  16
BRANCH  15  25
ATOM     25  O2  UNL     1       7.858   5.515  22.945  0.00  0.00    -0.383 OA
ATOM     26  H14 UNL     1       7.393   4.639  22.914  0.00  0.00    +0.210 HD
ENDBRANCH  15  25
ENDBRANCH  14  15
ENDBRANCH   3  14
TORSDOF 6
ENDMDL
MODEL 6
REMARK VINA RESULT:    -6.091     14.177     16.314
REMARK INTER + INTRA:          -9.348
REMARK INTER:                  -8.246
REMARK INTRA:                  -1.101
REMARK UNBOUND:                -1.298
REMARK  Name = /home/qwerty/github/datacon2025hack/step_04_hit_selection/docking/ligands/lig_321.pdb
REMARK  8 active torsions:
REMARK  status: ('A' for Active; 'I' for Inactive)
REMARK    1  A    between atoms: C1_1  and  C2_2
REMARK    2  A    between atoms: C2_2  and  C3_3
REMARK    3  A    between atoms: C2_2  and  C4_4
REMARK    4  A    between atoms: C7_7  and  C8_8
REMARK    5  A    between atoms: N1_10  and  C9_11
REMARK    6  A    between atoms: C9_11  and  C10_12
REMARK    7  A    between atoms: C10_12  and  O2_13
REMARK    8  A    between atoms: C10_12  and  C11_14
REMARK                            x       y       z     vdW  Elec       q    Type
REMARK                         _______ _______ _______ _____ _____    ______ ____
ROOT
ATOM      1  C8  UNL     1      22.160   3.722  32.342  0.00  0.00    +0.244 C 
ATOM      2  O1  UNL     1      21.820   3.277  33.473  0.00  0.00    -0.270 OA
ATOM      3  N1  UNL     1      22.077   2.868  31.187  0.00  0.00    -0.308 N 
ATOM      4  H10 UNL     1      22.415   3.207  30.260  0.00  0.00    +0.149 HD
ENDROOT
BRANCH   1   8
ATOM      5  C4  UNL     1      23.586   7.774  31.989  0.00  0.00    -0.045 A 
ATOM      6  C5  UNL     1      24.159   6.899  32.927  0.00  0.00    +0.004 A 
ATOM      7  C6  UNL     1      23.702   5.584  33.045  0.00  0.00    +0.013 A 
ATOM      8  C7  UNL     1      22.657   5.115  32.231  0.00  0.00    +0.037 A 
ATOM      9  C19 UNL     1      22.094   5.985  31.282  0.00  0.00    +0.013 A 
ATOM     10  C20 UNL     1      22.550   7.301  31.164  0.00  0.00    +0.004 A 
BRANCH   5  12
ATOM     11  C1  UNL     1      25.497   9.339  32.469  0.00  0.00    +0.012 C 
ATOM     12  C2  UNL     1      24.092   9.200  31.873  0.00  0.00    +0.013 C 
ATOM     13  C3  UNL     1      24.059   9.681  30.417  0.00  0.00    +0.012 C 
ENDBRANCH   5  12
ENDBRANCH   1   8
BRANCH   3  14
ATOM     14  C9  UNL     1      21.590   1.491  31.264  0.00  0.00    +0.143 C 
BRANCH  14  15
ATOM     15  C10 UNL     1      20.823   1.103  29.986  0.00  0.00    +0.197 C 
BRANCH  15  16
ATOM     16  C11 UNL     1      21.187   1.995  28.830  0.00  0.00    +0.136 A 
ATOM     17  C12 UNL     1      21.981   1.641  27.739  0.00  0.00    +0.056 A 
ATOM     18  C13 UNL     1      21.999   2.768  26.953  0.00  0.00    +0.020 A 
ATOM     19  C14 UNL     1      22.622   3.020  25.732  0.00  0.00    +0.011 A 
ATOM     20  C15 UNL     1      22.448   4.295  25.161  0.00  0.00    +0.001 A 
ATOM     21  C16 UNL     1      21.665   5.272  25.815  0.00  0.00    +0.004 A 
ATOM     22  C17 UNL     1      21.049   4.985  27.048  0.00  0.00    +0.047 A 
ATOM     23  C18 UNL     1      21.239   3.715  27.587  0.00  0.00    +0.135 A 
ATOM     24  O3  UNL     1      20.758   3.240  28.710  0.00  0.00    -0.457 OA
ENDBRANCH  15  16
BRANCH  15  25
ATOM     25  O2  UNL     1      19.435   1.122  30.208  0.00  0.00    -0.383 OA
ATOM     26  H14 UNL     1      19.042   0.329  29.758  0.00  0.00    +0.210 HD
ENDBRANCH  15  25
ENDBRANCH  14  15
ENDBRANCH   3  14
TORSDOF 6
ENDMDL
MODEL 7
REMARK VINA RESULT:    -5.986     14.759     15.885
REMARK INTER + INTRA:          -9.208
REMARK INTER:                  -8.072
REMARK INTRA:                  -1.137
REMARK UNBOUND:                -1.298
REMARK  Name = /home/qwerty/github/datacon2025hack/step_04_hit_selection/docking/ligands/lig_321.pdb
REMARK  8 active torsions:
REMARK  status: ('A' for Active; 'I' for Inactive)
REMARK    1  A    between atoms: C1_1  and  C2_2
REMARK    2  A    between atoms: C2_2  and  C3_3
REMARK    3  A    between atoms: C2_2  and  C4_4
REMARK    4  A    between atoms: C7_7  and  C8_8
REMARK    5  A    between atoms: N1_10  and  C9_11
REMARK    6  A    between atoms: C9_11  and  C10_12
REMARK    7  A    between atoms: C10_12  and  O2_13
REMARK    8  A    between atoms: C10_12  and  C11_14
REMARK                            x       y       z     vdW  Elec       q    Type
REMARK                         _______ _______ _______ _____ _____    ______ ____
ROOT
ATOM      1  C8  UNL     1      19.389   2.416  33.180  0.00  0.00    +0.244 C 
ATOM      2  O1  UNL     1      18.320   1.800  33.447  0.00  0.00    -0.270 OA
ATOM      3  N1  UNL     1      19.716   3.617  33.901  0.00  0.00    -0.308 N 
ATOM      4  H10 UNL     1      20.564   4.167  33.644  0.00  0.00    +0.149 HD
ENDROOT
BRANCH   1   8
ATOM      5  C4  UNL     1      21.985   0.942  30.072  0.00  0.00    -0.045 A 
ATOM      6  C5  UNL     1      20.823   0.234  30.421  0.00  0.00    +0.004 A 
ATOM      7  C6  UNL     1      19.977   0.707  31.427  0.00  0.00    +0.013 A 
ATOM      8  C7  UNL     1      20.276   1.898  32.111  0.00  0.00    +0.037 A 
ATOM      9  C19 UNL     1      21.430   2.615  31.751  0.00  0.00    +0.013 A 
ATOM     10  C20 UNL     1      22.277   2.141  30.746  0.00  0.00    +0.004 A 
BRANCH   5  12
ATOM     11  C1  UNL     1      24.357   0.794  29.246  0.00  0.00    +0.012 C 
ATOM     12  C2  UNL     1      22.896   0.415  28.978  0.00  0.00    +0.013 C 
ATOM     13  C3  UNL     1      22.741  -1.102  28.812  0.00  0.00    +0.012 C 
ENDBRANCH   5  12
ENDBRANCH   1   8
BRANCH   3  14
ATOM     14  C9  UNL     1      18.863   4.153  34.961  0.00  0.00    +0.143 C 
BRANCH  14  15
ATOM     15  C10 UNL     1      19.226   5.616  35.278  0.00  0.00    +0.197 C 
BRANCH  15  16
ATOM     16  C11 UNL     1      20.576   5.983  34.724  0.00  0.00    +0.136 A 
ATOM     17  C12 UNL     1      21.743   6.169  35.465  0.00  0.00    +0.056 A 
ATOM     18  C13 UNL     1      22.700   6.461  34.523  0.00  0.00    +0.020 A 
ATOM     19  C14 UNL     1      24.059   6.739  34.658  0.00  0.00    +0.011 A 
ATOM     20  C15 UNL     1      24.792   6.999  33.485  0.00  0.00    +0.001 A 
ATOM     21  C16 UNL     1      24.156   6.976  32.223  0.00  0.00    +0.004 A 
ATOM     22  C17 UNL     1      22.781   6.691  32.122  0.00  0.00    +0.047 A 
ATOM     23  C18 UNL     1      22.083   6.437  33.301  0.00  0.00    +0.135 A 
ATOM     24  O3  UNL     1      20.812   6.149  33.434  0.00  0.00    -0.457 OA
ENDBRANCH  15  16
BRANCH  15  25
ATOM     25  O2  UNL     1      19.177   5.857  36.662  0.00  0.00    -0.383 OA
ATOM     26  H14 UNL     1      19.976   5.436  37.074  0.00  0.00    +0.210 HD
ENDBRANCH  15  25
ENDBRANCH  14  15
ENDBRANCH   3  14
TORSDOF 6
ENDMDL
MODEL 8
REMARK VINA RESULT:    -5.933      2.698      7.270
REMARK INTER + INTRA:          -9.139
REMARK INTER:                  -8.213
REMARK INTRA:                  -0.926
REMARK UNBOUND:                -1.298
REMARK  Name = /home/qwerty/github/datacon2025hack/step_04_hit_selection/docking/ligands/lig_321.pdb
REMARK  8 active torsions:
REMARK  status: ('A' for Active; 'I' for Inactive)
REMARK    1  A    between atoms: C1_1  and  C2_2
REMARK    2  A    between atoms: C2_2  and  C3_3
REMARK    3  A    between atoms: C2_2  and  C4_4
REMARK    4  A    between atoms: C7_7  and  C8_8
REMARK    5  A    between atoms: N1_10  and  C9_11
REMARK    6  A    between atoms: C9_11  and  C10_12
REMARK    7  A    between atoms: C10_12  and  O2_13
REMARK    8  A    between atoms: C10_12  and  C11_14
REMARK                            x       y       z     vdW  Elec       q    Type
REMARK                         _______ _______ _______ _____ _____    ______ ____
ROOT
ATOM      1  C8  UNL     1       9.522  10.464  26.511  0.00  0.00    +0.244 C 
ATOM      2  O1  UNL     1       9.868   9.276  26.759  0.00  0.00    -0.270 OA
ATOM      3  N1  UNL     1       8.367  10.712  25.691  0.00  0.00    -0.308 N 
ATOM      4  H10 UNL     1       8.112  11.689  25.429  0.00  0.00    +0.149 HD
ENDROOT
BRANCH   1   8
ATOM      5  C4  UNL     1      11.841  13.731  28.099  0.00  0.00    -0.045 A 
ATOM      6  C5  UNL     1      12.477  12.662  27.446  0.00  0.00    +0.004 A 
ATOM      7  C6  UNL     1      11.730  11.601  26.928  0.00  0.00    +0.013 A 
ATOM      8  C7  UNL     1      10.331  11.582  27.055  0.00  0.00    +0.037 A 
ATOM      9  C19 UNL     1       9.694  12.659  27.695  0.00  0.00    +0.013 A 
ATOM     10  C20 UNL     1      10.440  13.720  28.215  0.00  0.00    +0.004 A 
BRANCH   5  12
ATOM     11  C1  UNL     1      12.801  14.767  30.181  0.00  0.00    +0.012 C 
ATOM     12  C2  UNL     1      12.664  14.877  28.658  0.00  0.00    +0.013 C 
ATOM     13  C3  UNL     1      14.040  14.951  27.984  0.00  0.00    +0.012 C 
ENDBRANCH   5  12
ENDBRANCH   1   8
BRANCH   3  14
ATOM     14  C9  UNL     1       7.550   9.632  25.140  0.00  0.00    +0.143 C 
BRANCH  14  15
ATOM     15  C10 UNL     1       7.184   9.908  23.670  0.00  0.00    +0.197 C 
BRANCH  15  16
ATOM     16  C11 UNL     1       8.411   9.993  22.802  0.00  0.00    +0.136 A 
ATOM     17  C12 UNL     1       8.426  10.186  21.420  0.00  0.00    +0.056 A 
ATOM     18  C13 UNL     1       9.761  10.220  21.097  0.00  0.00    +0.020 A 
ATOM     19  C14 UNL     1      10.400  10.390  19.870  0.00  0.00    +0.011 A 
ATOM     20  C15 UNL     1      11.807  10.383  19.860  0.00  0.00    +0.001 A 
ATOM     21  C16 UNL     1      12.531  10.209  21.061  0.00  0.00    +0.004 A 
ATOM     22  C17 UNL     1      11.855  10.041  22.284  0.00  0.00    +0.047 A 
ATOM     23  C18 UNL     1      10.462  10.052  22.261  0.00  0.00    +0.135 A 
ATOM     24  O3  UNL     1       9.643   9.918  23.275  0.00  0.00    -0.457 OA
ENDBRANCH  15  16
BRANCH  15  25
ATOM     25  O2  UNL     1       6.415  11.078  23.554  0.00  0.00    -0.383 OA
ATOM     26  H14 UNL     1       6.863  11.792  24.079  0.00  0.00    +0.210 HD
ENDBRANCH  15  25
ENDBRANCH  14  15
ENDBRANCH   3  14
TORSDOF 6
ENDMDL
MODEL 9
REMARK VINA RESULT:    -5.918     14.399     16.510
REMARK INTER + INTRA:          -9.119
REMARK INTER:                  -7.937
REMARK INTRA:                  -1.182
REMARK UNBOUND:                -1.298
REMARK  Name = /home/qwerty/github/datacon2025hack/step_04_hit_selection/docking/ligands/lig_321.pdb
REMARK  8 active torsions:
REMARK  status: ('A' for Active; 'I' for Inactive)
REMARK    1  A    between atoms: C1_1  and  C2_2
REMARK    2  A    between atoms: C2_2  and  C3_3
REMARK    3  A    between atoms: C2_2  and  C4_4
REMARK    4  A    between atoms: C7_7  and  C8_8
REMARK    5  A    between atoms: N1_10  and  C9_11
REMARK    6  A    between atoms: C9_11  and  C10_12
REMARK    7  A    between atoms: C10_12  and  O2_13
REMARK    8  A    between atoms: C10_12  and  C11_14
REMARK                            x       y       z     vdW  Elec       q    Type
REMARK                         _______ _______ _______ _____ _____    ______ ____
ROOT
ATOM      1  C8  UNL     1      19.693   3.358  33.745  0.00  0.00    +0.244 C 
ATOM      2  O1  UNL     1      18.533   3.852  33.801  0.00  0.00    -0.270 OA
ATOM      3  N1  UNL     1      19.856   1.929  33.696  0.00  0.00    -0.308 N 
ATOM      4  H10 UNL     1      20.811   1.511  33.713  0.00  0.00    +0.149 HD
ENDROOT
BRANCH   1   8
ATOM      5  C4  UNL     1      23.125   5.964  33.749  0.00  0.00    -0.045 A 
ATOM      6  C5  UNL     1      22.011   6.258  34.551  0.00  0.00    +0.004 A 
ATOM      7  C6  UNL     1      20.895   5.417  34.555  0.00  0.00    +0.013 A 
ATOM      8  C7  UNL     1      20.868   4.263  33.753  0.00  0.00    +0.037 A 
ATOM      9  C19 UNL     1      21.989   3.961  32.961  0.00  0.00    +0.013 A 
ATOM     10  C20 UNL     1      23.104   4.803  32.956  0.00  0.00    +0.004 A 
BRANCH   5  12
ATOM     11  C1  UNL     1      25.537   6.227  33.080  0.00  0.00    +0.012 C 
ATOM     12  C2  UNL     1      24.329   6.889  33.753  0.00  0.00    +0.013 C 
ATOM     13  C3  UNL     1      23.997   8.232  33.093  0.00  0.00    +0.012 C 
ENDBRANCH   5  12
ENDBRANCH   1   8
BRANCH   3  14
ATOM     14  C9  UNL     1      18.718   1.010  33.686  0.00  0.00    +0.143 C 
BRANCH  14  15
ATOM     15  C10 UNL     1      18.899  -0.084  32.617  0.00  0.00    +0.197 C 
BRANCH  15  16
ATOM     16  C11 UNL     1      19.641   0.435  31.415  0.00  0.00    +0.136 A 
ATOM     17  C12 UNL     1      19.071   1.068  30.310  0.00  0.00    +0.056 A 
ATOM     18  C13 UNL     1      20.142   1.374  29.505  0.00  0.00    +0.020 A 
ATOM     19  C14 UNL     1      20.201   2.014  28.269  0.00  0.00    +0.011 A 
ATOM     20  C15 UNL     1      21.469   2.189  27.684  0.00  0.00    +0.001 A 
ATOM     21  C16 UNL     1      22.631   1.725  28.341  0.00  0.00    +0.004 A 
ATOM     22  C17 UNL     1      22.536   1.082  29.590  0.00  0.00    +0.047 A 
ATOM     23  C18 UNL     1      21.267   0.924  30.143  0.00  0.00    +0.135 A 
ATOM     24  O3  UNL     1      20.955   0.365  31.285  0.00  0.00    -0.457 OA
ENDBRANCH  15  16
BRANCH  15  25
ATOM     25  O2  UNL     1      17.658  -0.624  32.237  0.00  0.00    -0.383 OA
ATOM     26  H14 UNL     1      16.994   0.114  32.223  0.00  0.00    +0.210 HD
ENDBRANCH  15  25
ENDBRANCH  14  15
ENDBRANCH   3  14
TORSDOF 6
ENDMDL
