REMARK  Name = /home/qwerty/github/datacon2025hack/step_04_hit_selection/docking/ligands/lig_524.pdb
REMARK  7 active torsions:
REMARK  status: ('A' for Active; 'I' for Inactive)
REMARK    1  A    between atoms: C2_2  and  C3_3
REMARK    2  A    between atoms: C3_3  and  N1_4
REMARK    3  A    between atoms: C7_8  and  C8_9
REMARK    4  A    between atoms: C8_9  and  C9_10
REMARK    5  A    between atoms: C9_10  and  C10_11
REMARK    6  A    between atoms: C10_11  and  N2_12
REMARK    7  A    between atoms: C11_13  and  C12_15
REMARK                            x       y       z     vdW  Elec       q    Type
REMARK                         _______ _______ _______ _____ _____    ______ ____
ROOT
ATOM      1  N2  UNL     1      -0.335  -0.570   0.717  0.00  0.00    -0.310 N 
ATOM      2  C11 UNL     1      -1.512  -1.370   0.522  0.00  0.00    +0.264 C 
ATOM      3  O1  UNL     1      -1.414  -2.623   0.433  0.00  0.00    -0.268 OA
ATOM      4  H19 UNL     1      -0.428   0.450   0.919  0.00  0.00    +0.149 HD
ENDROOT
BRANCH   2   5
ATOM      5  C12 UNL     1      -2.847  -0.752   0.430  0.00  0.00    +0.147 A 
ATOM      6  C13 UNL     1      -3.139   0.606   0.443  0.00  0.00    +0.057 A 
ATOM      7  C14 UNL     1      -4.512   0.649   0.333  0.00  0.00    +0.040 A 
ATOM      8  N3  UNL     1      -4.984  -0.604   0.227  0.00  0.00    -0.268 N 
ATOM      9  N4  UNL     1      -3.986  -1.468   0.304  0.00  0.00    -0.166 NA
ATOM     10  C15 UNL     1      -6.397  -0.971   0.156  0.00  0.00    +0.144 C 
ATOM     11  C16 UNL     1      -7.246   0.227  -0.300  0.00  0.00    +0.024 C 
ATOM     12  C17 UNL     1      -6.848   1.504   0.460  0.00  0.00    +0.008 C 
ATOM     13  C18 UNL     1      -5.375   1.867   0.211  0.00  0.00    +0.055 C 
ENDBRANCH   2   5
BRANCH   1  14
ATOM     14  C10 UNL     1       1.009  -1.144   0.727  0.00  0.00    +0.104 C 
BRANCH  14  15
ATOM     15  C9  UNL     1       1.453  -1.492  -0.701  0.00  0.00    +0.020 C 
BRANCH  15  16
ATOM     16  C8  UNL     1       2.879  -2.082  -0.752  0.00  0.00    +0.020 C 
BRANCH  16  21
ATOM     17  N1  UNL     1       3.913   0.063  -0.026  0.00  0.00    -0.296 NA
ATOM     18  C4  UNL     1       4.256   1.283  -0.766  0.00  0.00    +0.085 C 
ATOM     19  C5  UNL     1       3.806   1.061  -2.193  0.00  0.00    +0.017 C 
ATOM     20  C6  UNL     1       3.943  -0.433  -2.405  0.00  0.00    +0.020 C 
ATOM     21  C7  UNL     1       3.998  -1.043  -0.995  0.00  0.00    +0.057 C 
BRANCH  17  22
ATOM     22  C3  UNL     1       4.789  -0.150   1.143  0.00  0.00    +0.111 C 
BRANCH  22  24
ATOM     23  C1  UNL     1       5.247   1.888   2.484  0.00  0.00    +0.005 C 
ATOM     24  C2  UNL     1       4.461   0.839   2.227  0.00  0.00    -0.019 C 
ENDBRANCH  22  24
ENDBRANCH  17  22
ENDBRANCH  16  21
ENDBRANCH  15  16
ENDBRANCH  14  15
ENDBRANCH   1  14
TORSDOF 7
