REMARK  Name = /home/qwerty/github/datacon2025hack/step_04_hit_selection/docking/ligands/lig_189.pdb
REMARK  4 active torsions:
REMARK  status: ('A' for Active; 'I' for Inactive)
REMARK    1  A    between atoms: N1_3  and  C2_4
REMARK    2  A    between atoms: N2_11  and  C8_12
REMARK    3  A    between atoms: C13_17  and  S1_18
REMARK    4  A    between atoms: S1_18  and  N3_21
REMARK                            x       y       z     vdW  Elec       q    Type
REMARK                         _______ _______ _______ _____ _____    ______ ____
ROOT
ATOM      1  C8  UNL     1      -1.945  -1.330   0.644  0.00  0.00    +0.035 A 
ATOM      2  C9  UNL     1      -1.188  -2.414   1.112  0.00  0.00    +0.024 A 
ATOM      3  C10 UNL     1       0.143  -2.576   0.720  0.00  0.00    +0.010 A 
ATOM      4  C11 UNL     1       0.744  -1.644  -0.137  0.00  0.00    -0.016 A 
ATOM      5  C12 UNL     1       2.080  -1.797  -0.535  0.00  0.00    +0.037 A 
ATOM      6  C13 UNL     1       2.679  -0.852  -1.381  0.00  0.00    +0.106 A 
ATOM      7  C19 UNL     1       1.935   0.246  -1.832  0.00  0.00    +0.029 A 
ATOM      8  C20 UNL     1       0.603   0.407  -1.442  0.00  0.00    +0.010 A 
ATOM      9  C21 UNL     1      -0.003  -0.534  -0.597  0.00  0.00    -0.016 A 
ATOM     10  C22 UNL     1      -1.340  -0.380  -0.197  0.00  0.00    +0.032 A 
ENDROOT
BRANCH   1  14
ATOM     11  O1  UNL     1      -4.187  -0.459  -0.960  0.00  0.00    -0.252 OA
ATOM     12  C1  UNL     1      -4.355  -0.620   0.280  0.00  0.00    +0.308 C 
ATOM     13  N1  UNL     1      -5.624  -0.320   0.882  0.00  0.00    -0.269 N 
ATOM     14  N2  UNL     1      -3.307  -1.182   1.084  0.00  0.00    -0.269 N 
ATOM     15  H1  UNL     1      -5.826  -0.735   1.820  0.00  0.00    +0.156 HD
ATOM     16  H6  UNL     1      -3.568  -1.576   2.016  0.00  0.00    +0.156 HD
BRANCH  13  17
ATOM     17  C2  UNL     1      -6.667   0.428   0.235  0.00  0.00    +0.035 A 
ATOM     18  C3  UNL     1      -8.008   0.137   0.532  0.00  0.00    +0.024 A 
ATOM     19  C4  UNL     1      -9.041   0.865  -0.067  0.00  0.00    +0.017 A 
ATOM     20  C5  UNL     1      -8.743   1.901  -0.957  0.00  0.00    +0.018 A 
ATOM     21 BR1  UNL     1     -10.155   2.897  -1.772  0.00  0.00    -0.050 Br
ATOM     22  C6  UNL     1      -7.411   2.214  -1.242  0.00  0.00    +0.017 A 
ATOM     23  C7  UNL     1      -6.376   1.487  -0.645  0.00  0.00    +0.024 A 
ENDBRANCH  13  17
ENDBRANCH   1  14
BRANCH   6  24
ATOM     24  S1  UNL     1       4.366  -1.037  -1.869  0.00  0.00    +0.061 S 
ATOM     25  O2  UNL     1       4.725  -2.497  -1.875  0.00  0.00    -0.153 OA
ATOM     26  O3  UNL     1       4.535  -0.511  -3.267  0.00  0.00    -0.153 OA
BRANCH  24  27
ATOM     27  N3  UNL     1       5.443  -0.178  -0.795  0.00  0.00    -0.177 NA
ATOM     28  C14 UNL     1       5.055   1.239  -0.708  0.00  0.00    +0.109 C 
ATOM     29  C15 UNL     1       6.140   2.046   0.032  0.00  0.00    +0.017 C 
ATOM     30  C16 UNL     1       6.992   1.169   0.964  0.00  0.00    +0.003 C 
ATOM     31  C17 UNL     1       6.148   0.064   1.605  0.00  0.00    +0.017 C 
ATOM     32  C18 UNL     1       5.443  -0.809   0.541  0.00  0.00    +0.109 C 
ENDBRANCH  24  27
ENDBRANCH   6  24
TORSDOF 4
