REMARK  Name = /home/qwerty/github/datacon2025hack/step_04_hit_selection/docking/ligands/lig_562.pdb
REMARK  10 active torsions:
REMARK  status: ('A' for Active; 'I' for Inactive)
REMARK    1  A    between atoms: C1_1  and  C2_2
REMARK    2  A    between atoms: C2_2  and  C3_3
REMARK    3  A    between atoms: C2_2  and  C4_4
REMARK    4  A    between atoms: C5_6  and  C6_7
REMARK    5  A    between atoms: C6_7  and  N2_8
REMARK    6  A    between atoms: C8_10  and  O1_11
REMARK    7  A    between atoms: C9_12  and  N3_13
REMARK    8  A    between atoms: N3_13  and  C10_14
REMARK    9  A    between atoms: C11_15  and  C12_17
REMARK   10  A    between atoms: C12_17  and  C13_18
REMARK                            x       y       z     vdW  Elec       q    Type
REMARK                         _______ _______ _______ _____ _____    ______ ____
ROOT
ATOM      1  N2  UNL     1       1.059   0.881   0.310  0.00  0.00    -0.291 NA
ATOM      2  C7  UNL     1       0.484   0.267  -0.901  0.00  0.00    +0.118 C 
ATOM      3  C8  UNL     1      -0.925   0.820  -1.115  0.00  0.00    +0.150 C 
ATOM      4  C9  UNL     1      -1.296   1.508   0.204  0.00  0.00    +0.119 C 
ATOM      5  C17 UNL     1      -0.072   1.374   1.113  0.00  0.00    +0.110 C 
ENDROOT
BRANCH   4   6
ATOM      6  N3  UNL     1      -2.512   0.936   0.820  0.00  0.00    -0.297 N 
ATOM      7  C10 UNL     1      -3.518   1.870   1.333  0.00  0.00    +0.132 C 
ATOM      8  C11 UNL     1      -2.691  -0.495   0.956  0.00  0.00    +0.222 C 
ATOM      9  O2  UNL     1      -1.719  -1.209   1.322  0.00  0.00    -0.275 OA
BRANCH   8  10
ATOM     10  C12 UNL     1      -4.011  -1.183   0.657  0.00  0.00    +0.044 C 
ATOM     11  C13 UNL     1      -4.771  -1.573   1.938  0.00  0.00    +0.021 C 
ATOM     12  C14 UNL     1      -3.849  -2.376  -0.301  0.00  0.00    +0.016 C 
ATOM     13  C15 UNL     1      -4.748  -1.689  -1.318  0.00  0.00    +0.002 C 
ATOM     14  C16 UNL     1      -4.889  -0.486  -0.397  0.00  0.00    +0.016 C 
ENDBRANCH   8  10
ENDBRANCH   4   6
BRANCH   3  15
ATOM     15  O1  UNL     1      -0.971   1.717  -2.200  0.00  0.00    -0.389 OA
ATOM     16  H13 UNL     1      -0.322   2.448  -2.025  0.00  0.00    +0.210 HD
ENDBRANCH   3  15
BRANCH   1  17
ATOM     17  C6  UNL     1       2.010   1.967  -0.009  0.00  0.00    +0.164 C 
BRANCH  17  20
ATOM     18  C4  UNL     1       5.007   0.309  -0.916  0.00  0.00    +0.230 A 
ATOM     19  N1  UNL     1       4.005   0.444  -0.024  0.00  0.00    -0.195 NA
ATOM     20  C5  UNL     1       3.267   1.413  -0.604  0.00  0.00    +0.186 A 
ATOM     21  N4  UNL     1       3.793   1.841  -1.769  0.00  0.00    -0.060 NA
ATOM     22  O3  UNL     1       4.867   1.130  -1.927  0.00  0.00    -0.338 OA
BRANCH  18  24
ATOM     23  C1  UNL     1       6.895  -0.430   0.534  0.00  0.00    +0.017 C 
ATOM     24  C2  UNL     1       6.138  -0.668  -0.776  0.00  0.00    +0.072 C 
ATOM     25  C3  UNL     1       5.612  -2.104  -0.855  0.00  0.00    +0.017 C 
ENDBRANCH  18  24
ENDBRANCH  17  20
ENDBRANCH   1  17
TORSDOF 6
