REMARK  Name = /home/qwerty/github/datacon2025hack/step_04_hit_selection/docking/ligands/lig_433.pdb
REMARK  4 active torsions:
REMARK  status: ('A' for Active; 'I' for Inactive)
REMARK    1  A    between atoms: C1_1  and  C2_2
REMARK    2  A    between atoms: C3_4  and  C4_5
REMARK    3  A    between atoms: C10_12  and  N2_13
REMARK    4  A    between atoms: C15_20  and  C16_21
REMARK                            x       y       z     vdW  Elec       q    Type
REMARK                         _______ _______ _______ _____ _____    ______ ____
ROOT
ATOM      1  N2  UNL     1       1.062   0.016  -0.709  0.00  0.00    -0.262 N 
ATOM      2  C11 UNL     1       0.265  -0.871  -1.511  0.00  0.00    +0.307 C 
ATOM      3  O1  UNL     1       0.832  -1.598  -2.373  0.00  0.00    -0.252 OA
ATOM      4  N3  UNL     1      -1.171  -0.925  -1.357  0.00  0.00    -0.285 N 
ATOM      5  C12 UNL     1      -1.967  -1.904  -2.115  0.00  0.00    +0.109 C 
ATOM      6  C13 UNL     1      -2.964  -2.622  -1.192  0.00  0.00    +0.020 C 
ATOM      7  C14 UNL     1      -3.697  -1.678  -0.212  0.00  0.00    +0.013 C 
ATOM      8  C15 UNL     1      -3.379  -0.194  -0.453  0.00  0.00    +0.058 C 
ATOM      9  C22 UNL     1      -1.855   0.028  -0.466  0.00  0.00    +0.119 C 
ATOM     10  H9  UNL     1       0.643   0.905  -0.359  0.00  0.00    +0.157 HD
ENDROOT
BRANCH   8  11
ATOM     11  C16 UNL     1      -4.051   0.664   0.588  0.00  0.00    +0.077 A 
ATOM     12  N4  UNL     1      -3.578   0.863   1.847  0.00  0.00    -0.176 NA
ATOM     13  N5  UNL     1      -4.457   1.606   2.512  0.00  0.00    -0.260 N 
ATOM     14  C17 UNL     1      -5.486   1.863   1.693  0.00  0.00    +0.156 A 
ATOM     15  N6  UNL     1      -6.607   2.568   1.986  0.00  0.00    -0.236 NA
ATOM     16  C18 UNL     1      -7.567   2.705   1.020  0.00  0.00    +0.113 A 
ATOM     17  C19 UNL     1      -7.395   2.116  -0.255  0.00  0.00    +0.020 A 
ATOM     18  C20 UNL     1      -6.226   1.384  -0.537  0.00  0.00    +0.015 A 
ATOM     19  C21 UNL     1      -5.280   1.286   0.478  0.00  0.00    +0.042 A 
ATOM     20  H17 UNL     1      -4.350   1.911   3.504  0.00  0.00    +0.191 HD
ENDBRANCH   8  11
BRANCH   1  26
ATOM     21  C1  UNL     1       2.535  -2.652  -0.043  0.00  0.00    +0.068 C 
ATOM     22  C2  UNL     1       3.172  -1.314  -0.253  0.00  0.00    +0.068 A 
ATOM     23  N1  UNL     1       4.517  -1.149  -0.125  0.00  0.00    -0.242 NA
ATOM     24  C3  UNL     1       4.902   0.139  -0.293  0.00  0.00    +0.110 A 
ATOM     25  S1  UNL     1       3.573   1.134  -0.605  0.00  0.00    -0.052 S 
ATOM     26  C10 UNL     1       2.478  -0.139  -0.558  0.00  0.00    +0.096 A 
BRANCH  24  27
ATOM     27  C4  UNL     1       6.311   0.585  -0.199  0.00  0.00    +0.007 A 
ATOM     28  C5  UNL     1       7.332  -0.348   0.064  0.00  0.00    +0.010 A 
ATOM     29  C6  UNL     1       8.665   0.066   0.152  0.00  0.00    +0.001 A 
ATOM     30  C7  UNL     1       8.994   1.411  -0.022  0.00  0.00    +0.000 A 
ATOM     31  C8  UNL     1       7.991   2.347  -0.284  0.00  0.00    +0.001 A 
ATOM     32  C9  UNL     1       6.656   1.940  -0.372  0.00  0.00    +0.010 A 
ENDBRANCH  24  27
ENDBRANCH   1  26
TORSDOF 3
