REMARK  Name = /home/qwerty/github/datacon2025hack/step_04_hit_selection/docking/ligands/lig_803.pdb
REMARK  5 active torsions:
REMARK  status: ('A' for Active; 'I' for Inactive)
REMARK    1  A    between atoms: C1_1  and  C2_2
REMARK    2  A    between atoms: C2_2  and  N1_3
REMARK    3  A    between atoms: C2_2  and  C11_16
REMARK    4  A    between atoms: N2_6  and  C4_7
REMARK    5  A    between atoms: C6_9  and  C7_10
REMARK                            x       y       z     vdW  Elec       q    Type
REMARK                         _______ _______ _______ _____ _____    ______ ____
ROOT
ATOM      1  N1  UNL     1       0.132   1.908   1.221  0.00  0.00    -0.293 N 
ATOM      2  C3  UNL     1      -0.975   1.021   1.010  0.00  0.00    +0.304 C 
ATOM      3  O1  UNL     1      -0.908  -0.177   1.401  0.00  0.00    -0.252 OA
ATOM      4  N2  UNL     1      -2.167   1.511   0.379  0.00  0.00    -0.268 N 
ATOM      5  H5  UNL     1       0.034   2.904   0.919  0.00  0.00    +0.151 HD
ATOM      6  H6  UNL     1      -2.282   2.545   0.293  0.00  0.00    +0.156 HD
ENDROOT
BRANCH   4   7
ATOM      7  C4  UNL     1      -3.229   0.658  -0.084  0.00  0.00    +0.054 A 
ATOM      8  C5  UNL     1      -2.938  -0.564  -0.720  0.00  0.00    +0.043 A 
ATOM      9  C6  UNL     1      -3.971  -1.381  -1.195  0.00  0.00    +0.054 A 
ATOM     10  C8  UNL     1      -5.303  -0.978  -1.048  0.00  0.00    +0.020 A 
ATOM     11  C9  UNL     1      -5.601   0.240  -0.434  0.00  0.00    +0.023 A 
ATOM     12  C10 UNL     1      -4.574   1.063   0.043  0.00  0.00    +0.062 A 
ATOM     13 CL1  UNL     1      -5.003   2.577   0.828  0.00  0.00    -0.082 Cl
BRANCH   9  14
ATOM     14  C7  UNL     1      -3.664  -2.630  -1.842  0.00  0.00    +0.099 C 
ATOM     15  N3  UNL     1      -3.416  -3.633  -2.362  0.00  0.00    -0.191 NA
ENDBRANCH   9  14
ENDBRANCH   4   7
BRANCH   1  17
ATOM     16  C1  UNL     1       2.291   2.643   2.160  0.00  0.00    +0.033 C 
ATOM     17  C2  UNL     1       1.392   1.451   1.817  0.00  0.00    +0.102 C 
BRANCH  17  18
ATOM     18  C11 UNL     1       2.111   0.509   0.876  0.00  0.00    -0.024 A 
ATOM     19  C12 UNL     1       2.304   0.857  -0.489  0.00  0.00    +0.009 A 
ATOM     20  C13 UNL     1       2.979  -0.014  -1.362  0.00  0.00    +0.050 A 
ATOM     21  C14 UNL     1       3.452  -1.215  -0.843  0.00  0.00    +0.166 A 
ATOM     22  C15 UNL     1       3.279  -1.553   0.459  0.00  0.00    +0.167 A 
ATOM     23  C16 UNL     1       2.618  -0.720   1.357  0.00  0.00    +0.055 A 
ATOM     24  O2  UNL     1       3.849  -2.790   0.693  0.00  0.00    -0.453 OA
ATOM     25  C17 UNL     1       4.413  -3.258  -0.540  0.00  0.00    +0.466 C 
ATOM     26  O3  UNL     1       4.137  -2.223  -1.494  0.00  0.00    -0.453 OA
ENDBRANCH  17  18
ENDBRANCH   1  17
TORSDOF 4
