REMARK  Name = /home/qwerty/github/datacon2025hack/step_04_hit_selection/docking/ligands/lig_289.pdb
REMARK  6 active torsions:
REMARK  status: ('A' for Active; 'I' for Inactive)
REMARK    1  A    between atoms: C1_1  and  C2_2
REMARK    2  A    between atoms: C4_4  and  C5_5
REMARK    3  A    between atoms: C6_6  and  N1_7
REMARK    4  A    between atoms: C7_8  and  C8_10
REMARK    5  A    between atoms: C13_16  and  C14_17
REMARK    6  A    between atoms: N4_21  and  C17_22
REMARK                            x       y       z     vdW  Elec       q    Type
REMARK                         _______ _______ _______ _____ _____    ______ ____
ROOT
ATOM      1  C8  UNL     1      -0.276   0.023  -0.335  0.00  0.00    +0.056 A 
ATOM      2  C9  UNL     1       0.290   0.955   0.581  0.00  0.00    +0.126 A 
ATOM      3  N2  UNL     1       1.644   1.126   0.659  0.00  0.00    -0.235 NA
ATOM      4  C10 UNL     1       2.449   0.378  -0.135  0.00  0.00    +0.164 A 
ATOM      5  C11 UNL     1       1.954  -0.519  -1.029  0.00  0.00    +0.043 A 
ATOM      6  C12 UNL     1       0.587  -0.733  -1.161  0.00  0.00    +0.028 A 
ATOM      7  C13 UNL     1       3.059  -1.015  -1.687  0.00  0.00    +0.076 A 
ATOM      8  N3  UNL     1       4.167  -0.401  -1.202  0.00  0.00    -0.169 NA
ATOM      9  N4  UNL     1       3.792   0.441  -0.241  0.00  0.00    -0.214 N 
ENDROOT
BRANCH   9  10
ATOM     10  C17 UNL     1       4.708   1.278   0.489  0.00  0.00    +0.068 A 
ATOM     11  C18 UNL     1       5.909   1.691  -0.114  0.00  0.00    +0.028 A 
ATOM     12  C19 UNL     1       6.813   2.497   0.585  0.00  0.00    +0.002 A 
ATOM     13  C20 UNL     1       6.532   2.890   1.896  0.00  0.00    +0.000 A 
ATOM     14  C21 UNL     1       5.350   2.473   2.511  0.00  0.00    +0.002 A 
ATOM     15  C22 UNL     1       4.443   1.667   1.816  0.00  0.00    +0.028 A 
ENDBRANCH   9  10
BRANCH   1  17
ATOM     16  N1  UNL     1      -2.650   0.832   0.064  0.00  0.00    -0.280 N 
ATOM     17  C7  UNL     1      -1.743  -0.171  -0.420  0.00  0.00    +0.250 C 
ATOM     18  O1  UNL     1      -2.200  -1.223  -0.945  0.00  0.00    -0.270 OA
ATOM     19  H8  UNL     1      -2.326   1.823   0.115  0.00  0.00    +0.155 HD
BRANCH  16  25
ATOM     20  C1  UNL     1      -8.278  -0.214   0.628  0.00  0.00    +0.044 C 
ATOM     21  C2  UNL     1      -6.812   0.085   0.518  0.00  0.00    -0.049 A 
ATOM     22  C3  UNL     1      -5.885  -0.643   1.276  0.00  0.00    +0.008 A 
ATOM     23  C4  UNL     1      -4.509  -0.389   1.163  0.00  0.00    -0.028 A 
ATOM     24  C5  UNL     1      -3.550  -1.164   2.027  0.00  0.00    +0.046 C 
ATOM     25  C6  UNL     1      -4.053   0.571   0.230  0.00  0.00    +0.055 A 
ATOM     26  C23 UNL     1      -4.988   1.301  -0.528  0.00  0.00    +0.063 A 
ATOM     27 CL1  UNL     1      -4.464   2.507  -1.696  0.00  0.00    -0.082 Cl
ATOM     28  C24 UNL     1      -6.356   1.050  -0.388  0.00  0.00    +0.025 A 
ENDBRANCH  16  25
ENDBRANCH   1  17
BRANCH   7  29
ATOM     29  C14 UNL     1       3.062  -1.981  -2.831  0.00  0.00    +0.040 C 
ATOM     30  C15 UNL     1       2.552  -3.372  -2.485  0.00  0.00    +0.010 C 
ATOM     31  C16 UNL     1       4.040  -3.137  -2.683  0.00  0.00    +0.010 C 
ENDBRANCH   7  29
TORSDOF 4
