MODEL 1
REMARK VINA RESULT:    -7.010      0.000      0.000
REMARK INTER + INTRA:          -8.539
REMARK INTER:                  -8.444
REMARK INTRA:                  -0.095
REMARK UNBOUND:                -0.095
REMARK  Name = /home/qwerty/github/datacon2025hack/step_04_hit_selection/docking/ligands/lig_424.pdb
REMARK  4 active torsions:
REMARK  status: ('A' for Active; 'I' for Inactive)
REMARK    1  A    between atoms: C1_2  and  C9_16
REMARK    2  A    between atoms: N1_3  and  C2_4
REMARK    3  A    between atoms: C12_19  and  O5_20
REMARK    4  A    between atoms: C13_21  and  C14_22
REMARK                            x       y       z     vdW  Elec       q    Type
REMARK                         _______ _______ _______ _____ _____    ______ ____
ROOT
ATOM      1  O1  UNL     1      19.891   1.061  24.493  0.00  0.00    -0.270 OA
ATOM      2  C1  UNL     1      19.013   0.910  25.386  0.00  0.00    +0.248 C 
ATOM      3  N1  UNL     1      17.655   0.605  25.016  0.00  0.00    -0.281 N 
ATOM      4  H1  UNL     1      16.915   0.603  25.752  0.00  0.00    +0.155 HD
ENDROOT
BRANCH   3   5
ATOM      5  C2  UNL     1      17.228   0.359  23.665  0.00  0.00    +0.036 A 
ATOM      6  C3  UNL     1      17.499  -0.895  23.074  0.00  0.00    +0.024 A 
ATOM      7  C4  UNL     1      17.120  -1.163  21.749  0.00  0.00    +0.017 A 
ATOM      8  C5  UNL     1      16.484  -0.160  21.018  0.00  0.00    +0.065 A 
ATOM      9  C6  UNL     1      16.236   1.079  21.585  0.00  0.00    +0.122 A 
ATOM     10  C7  UNL     1      16.604   1.368  22.899  0.00  0.00    +0.053 A 
ATOM     11  S1  UNL     1      15.464   2.143  20.446  0.00  0.00    +0.075 S 
ATOM     12  O2  UNL     1      14.078   2.537  20.873  0.00  0.00    -0.150 OA
ATOM     13  O3  UNL     1      16.317   3.330  20.096  0.00  0.00    -0.150 OA
ATOM     14  N2  UNL     1      15.428   0.988  19.164  0.00  0.00    -0.181 N 
ATOM     15  C8  UNL     1      16.023  -0.224  19.626  0.00  0.00    +0.265 C 
ATOM     16  O4  UNL     1      16.135  -1.244  18.894  0.00  0.00    -0.269 OA
ATOM     17  H5  UNL     1      15.040   1.153  18.209  0.00  0.00    +0.177 HD
ENDBRANCH   3   5
BRANCH   2  18
ATOM     18  C9  UNL     1      19.406   1.061  26.809  0.00  0.00    +0.038 A 
ATOM     19  C10 UNL     1      18.413   1.250  27.784  0.00  0.00    +0.016 A 
ATOM     20  C11 UNL     1      18.760   1.388  29.128  0.00  0.00    +0.047 A 
ATOM     21  C12 UNL     1      20.101   1.334  29.524  0.00  0.00    +0.129 A 
ATOM     22  C13 UNL     1      21.113   1.137  28.563  0.00  0.00    +0.097 A 
ATOM     23  C15 UNL     1      20.752   0.991  27.209  0.00  0.00    +0.029 A 
BRANCH  22  24
ATOM     24  C14 UNL     1      22.559   1.057  28.998  0.00  0.00    +0.421 C 
ATOM     25  F1  UNL     1      22.782   1.748  30.177  0.00  0.00    -0.166 F 
ATOM     26  F2  UNL     1      23.366   1.597  28.013  0.00  0.00    -0.166 F 
ATOM     27  F3  UNL     1      22.912  -0.265  29.197  0.00  0.00    -0.166 F 
ENDBRANCH  22  24
BRANCH  21  28
ATOM     28  O5  UNL     1      20.432   1.470  30.873  0.00  0.00    -0.506 OA
ATOM     29  H8  UNL     1      19.760   1.805  31.554  0.00  0.00    +0.292 HD
ENDBRANCH  21  28
ENDBRANCH   2  18
TORSDOF 4
ENDMDL
MODEL 2
REMARK VINA RESULT:    -6.976      4.745      9.156
REMARK INTER + INTRA:          -8.499
REMARK INTER:                  -8.032
REMARK INTRA:                  -0.467
REMARK UNBOUND:                -0.095
REMARK  Name = /home/qwerty/github/datacon2025hack/step_04_hit_selection/docking/ligands/lig_424.pdb
REMARK  4 active torsions:
REMARK  status: ('A' for Active; 'I' for Inactive)
REMARK    1  A    between atoms: C1_2  and  C9_16
REMARK    2  A    between atoms: N1_3  and  C2_4
REMARK    3  A    between atoms: C12_19  and  O5_20
REMARK    4  A    between atoms: C13_21  and  C14_22
REMARK                            x       y       z     vdW  Elec       q    Type
REMARK                         _______ _______ _______ _____ _____    ______ ____
ROOT
ATOM      1  O1  UNL     1      17.445  -1.124  25.264  0.00  0.00    -0.270 OA
ATOM      2  C1  UNL     1      17.543  -0.060  24.594  0.00  0.00    +0.248 C 
ATOM      3  N1  UNL     1      18.074   1.130  25.207  0.00  0.00    -0.281 N 
ATOM      4  H1  UNL     1      18.037   2.033  24.684  0.00  0.00    +0.155 HD
ENDROOT
BRANCH   3   5
ATOM      5  C2  UNL     1      18.605   1.175  26.543  0.00  0.00    +0.036 A 
ATOM      6  C3  UNL     1      17.746   1.500  27.616  0.00  0.00    +0.024 A 
ATOM      7  C4  UNL     1      18.234   1.579  28.930  0.00  0.00    +0.017 A 
ATOM      8  C5  UNL     1      19.590   1.344  29.157  0.00  0.00    +0.065 A 
ATOM      9  C6  UNL     1      20.441   1.047  28.105  0.00  0.00    +0.122 A 
ATOM     10  C7  UNL     1      19.979   0.965  26.792  0.00  0.00    +0.053 A 
ATOM     11  S1  UNL     1      22.074   0.834  28.667  0.00  0.00    +0.075 S 
ATOM     12  O2  UNL     1      22.579  -0.564  28.451  0.00  0.00    -0.150 OA
ATOM     13  O3  UNL     1      23.011   1.875  28.122  0.00  0.00    -0.150 OA
ATOM     14  N2  UNL     1      21.700   1.124  30.326  0.00  0.00    -0.181 N 
ATOM     15  C8  UNL     1      20.303   1.391  30.439  0.00  0.00    +0.265 C 
ATOM     16  O4  UNL     1      19.749   1.642  31.543  0.00  0.00    -0.269 OA
ATOM     17  H5  UNL     1      22.385   1.111  31.114  0.00  0.00    +0.177 HD
ENDBRANCH   3   5
BRANCH   2  18
ATOM     18  C9  UNL     1      17.096  -0.061  23.180  0.00  0.00    +0.038 A 
ATOM     19  C10 UNL     1      17.169  -1.246  22.431  0.00  0.00    +0.016 A 
ATOM     20  C11 UNL     1      16.749  -1.271  21.101  0.00  0.00    +0.047 A 
ATOM     21  C12 UNL     1      16.242  -0.115  20.497  0.00  0.00    +0.129 A 
ATOM     22  C13 UNL     1      16.150   1.084  21.232  0.00  0.00    +0.097 A 
ATOM     23  C15 UNL     1      16.571   1.096  22.577  0.00  0.00    +0.029 A 
BRANCH  22  24
ATOM     24  C14 UNL     1      15.581   2.325  20.581  0.00  0.00    +0.421 C 
ATOM     25  F1  UNL     1      16.355   2.748  19.514  0.00  0.00    -0.166 F 
ATOM     26  F2  UNL     1      15.520   3.345  21.513  0.00  0.00    -0.166 F 
ATOM     27  F3  UNL     1      14.306   2.061  20.115  0.00  0.00    -0.166 F 
ENDBRANCH  22  24
BRANCH  21  28
ATOM     28  O5  UNL     1      15.821  -0.155  19.167  0.00  0.00    -0.506 OA
ATOM     29  H8  UNL     1      15.145  -0.838  18.844  0.00  0.00    +0.292 HD
ENDBRANCH  21  28
ENDBRANCH   2  18
TORSDOF 4
ENDMDL
MODEL 3
REMARK VINA RESULT:    -6.969     12.355     13.683
REMARK INTER + INTRA:          -8.490
REMARK INTER:                  -8.498
REMARK INTRA:                   0.008
REMARK UNBOUND:                -0.095
REMARK  Name = /home/qwerty/github/datacon2025hack/step_04_hit_selection/docking/ligands/lig_424.pdb
REMARK  4 active torsions:
REMARK  status: ('A' for Active; 'I' for Inactive)
REMARK    1  A    between atoms: C1_2  and  C9_16
REMARK    2  A    between atoms: N1_3  and  C2_4
REMARK    3  A    between atoms: C12_19  and  O5_20
REMARK    4  A    between atoms: C13_21  and  C14_22
REMARK                            x       y       z     vdW  Elec       q    Type
REMARK                         _______ _______ _______ _____ _____    ______ ____
ROOT
ATOM      1  O1  UNL     1       7.725   9.038  25.995  0.00  0.00    -0.270 OA
ATOM      2  C1  UNL     1       8.757   9.646  25.601  0.00  0.00    +0.248 C 
ATOM      3  N1  UNL     1       9.371   9.287  24.349  0.00  0.00    -0.281 N 
ATOM      4  H1  UNL     1      10.290   9.710  24.092  0.00  0.00    +0.155 HD
ENDROOT
BRANCH   3   5
ATOM      5  C2  UNL     1       8.825   8.318  23.438  0.00  0.00    +0.036 A 
ATOM      6  C3  UNL     1       8.059   8.762  22.337  0.00  0.00    +0.024 A 
ATOM      7  C4  UNL     1       7.488   7.844  21.440  0.00  0.00    +0.017 A 
ATOM      8  C5  UNL     1       7.679   6.481  21.665  0.00  0.00    +0.065 A 
ATOM      9  C6  UNL     1       8.410   6.039  22.755  0.00  0.00    +0.122 A 
ATOM     10  C7  UNL     1       8.985   6.932  23.659  0.00  0.00    +0.053 A 
ATOM     11  S1  UNL     1       8.461   4.301  22.808  0.00  0.00    +0.075 S 
ATOM     12  O2  UNL     1       9.853   3.761  22.640  0.00  0.00    -0.150 OA
ATOM     13  O3  UNL     1       7.770   3.742  24.019  0.00  0.00    -0.150 OA
ATOM     14  N2  UNL     1       7.518   4.080  21.381  0.00  0.00    -0.181 N 
ATOM     15  C8  UNL     1       7.161   5.363  20.866  0.00  0.00    +0.265 C 
ATOM     16  O4  UNL     1       6.466   5.505  19.826  0.00  0.00    -0.269 OA
ATOM     17  H5  UNL     1       7.251   3.160  20.966  0.00  0.00    +0.177 HD
ENDBRANCH   3   5
BRANCH   2  18
ATOM     18  C9  UNL     1       9.322  10.721  26.452  0.00  0.00    +0.038 A 
ATOM     19  C10 UNL     1      10.680  11.058  26.331  0.00  0.00    +0.016 A 
ATOM     20  C11 UNL     1      11.231  12.071  27.118  0.00  0.00    +0.047 A 
ATOM     21  C12 UNL     1      10.437  12.768  28.034  0.00  0.00    +0.129 A 
ATOM     22  C13 UNL     1       9.070  12.453  28.166  0.00  0.00    +0.097 A 
ATOM     23  C15 UNL     1       8.521  11.434  27.362  0.00  0.00    +0.029 A 
BRANCH  22  24
ATOM     24  C14 UNL     1       8.210  13.224  29.143  0.00  0.00    +0.421 C 
ATOM     25  F1  UNL     1       7.530  14.259  28.525  0.00  0.00    -0.166 F 
ATOM     26  F2  UNL     1       9.009  13.756  30.138  0.00  0.00    -0.166 F 
ATOM     27  F3  UNL     1       7.281  12.374  29.715  0.00  0.00    -0.166 F 
ENDBRANCH  22  24
BRANCH  21  28
ATOM     28  O5  UNL     1      11.000  13.780  28.811  0.00  0.00    -0.506 OA
ATOM     29  H8  UNL     1      11.401  13.590  29.723  0.00  0.00    +0.292 HD
ENDBRANCH  21  28
ENDBRANCH   2  18
TORSDOF 4
ENDMDL
MODEL 4
REMARK VINA RESULT:    -6.965      7.515     12.211
REMARK INTER + INTRA:          -8.484
REMARK INTER:                  -8.044
REMARK INTRA:                  -0.440
REMARK UNBOUND:                -0.095
REMARK  Name = /home/qwerty/github/datacon2025hack/step_04_hit_selection/docking/ligands/lig_424.pdb
REMARK  4 active torsions:
REMARK  status: ('A' for Active; 'I' for Inactive)
REMARK    1  A    between atoms: C1_2  and  C9_16
REMARK    2  A    between atoms: N1_3  and  C2_4
REMARK    3  A    between atoms: C12_19  and  O5_20
REMARK    4  A    between atoms: C13_21  and  C14_22
REMARK                            x       y       z     vdW  Elec       q    Type
REMARK                         _______ _______ _______ _____ _____    ______ ____
ROOT
ATOM      1  O1  UNL     1      21.036   2.513  33.769  0.00  0.00    -0.270 OA
ATOM      2  C1  UNL     1      20.641   3.083  32.715  0.00  0.00    +0.248 C 
ATOM      3  N1  UNL     1      20.061   4.400  32.783  0.00  0.00    -0.281 N 
ATOM      4  H1  UNL     1      19.627   4.810  31.927  0.00  0.00    +0.155 HD
ENDROOT
BRANCH   3   5
ATOM      5  C2  UNL     1      19.981   5.179  33.989  0.00  0.00    +0.036 A 
ATOM      6  C3  UNL     1      18.769   5.203  34.714  0.00  0.00    +0.024 A 
ATOM      7  C4  UNL     1      18.644   5.972  35.882  0.00  0.00    +0.017 A 
ATOM      8  C5  UNL     1      19.737   6.727  36.308  0.00  0.00    +0.065 A 
ATOM      9  C6  UNL     1      20.920   6.724  35.589  0.00  0.00    +0.122 A 
ATOM     10  C7  UNL     1      21.067   5.969  34.426  0.00  0.00    +0.053 A 
ATOM     11  S1  UNL     1      22.099   7.771  36.325  0.00  0.00    +0.075 S 
ATOM     12  O2  UNL     1      23.305   7.023  36.819  0.00  0.00    -0.150 OA
ATOM     13  O3  UNL     1      22.464   8.934  35.445  0.00  0.00    -0.150 OA
ATOM     14  N2  UNL     1      21.075   8.257  37.626  0.00  0.00    -0.181 N 
ATOM     15  C8  UNL     1      19.814   7.604  37.482  0.00  0.00    +0.265 C 
ATOM     16  O4  UNL     1      18.867   7.777  38.294  0.00  0.00    -0.269 OA
ATOM     17  H5  UNL     1      21.336   8.921  38.387  0.00  0.00    +0.177 HD
ENDBRANCH   3   5
BRANCH   2  18
ATOM     18  C9  UNL     1      20.777   2.370  31.422  0.00  0.00    +0.038 A 
ATOM     19  C10 UNL     1      19.630   2.086  30.664  0.00  0.00    +0.016 A 
ATOM     20  C11 UNL     1      19.737   1.422  29.441  0.00  0.00    +0.047 A 
ATOM     21  C12 UNL     1      20.989   1.035  28.950  0.00  0.00    +0.129 A 
ATOM     22  C13 UNL     1      22.154   1.318  29.690  0.00  0.00    +0.097 A 
ATOM     23  C15 UNL     1      22.037   1.996  30.920  0.00  0.00    +0.029 A 
BRANCH  22  24
ATOM     24  C14 UNL     1      23.507   0.918  29.146  0.00  0.00    +0.421 C 
ATOM     25  F1  UNL     1      23.546  -0.420  28.794  0.00  0.00    -0.166 F 
ATOM     26  F2  UNL     1      24.475   1.148  30.107  0.00  0.00    -0.166 F 
ATOM     27  F3  UNL     1      23.797   1.671  28.024  0.00  0.00    -0.166 F 
ENDBRANCH  22  24
BRANCH  21  28
ATOM     28  O5  UNL     1      21.080   0.376  27.725  0.00  0.00    -0.506 OA
ATOM     29  H8  UNL     1      20.285   0.303  27.100  0.00  0.00    +0.292 HD
ENDBRANCH  21  28
ENDBRANCH   2  18
TORSDOF 4
ENDMDL
MODEL 5
REMARK VINA RESULT:    -6.786     12.400     14.865
REMARK INTER + INTRA:          -8.269
REMARK INTER:                  -7.790
REMARK INTRA:                  -0.479
REMARK UNBOUND:                -0.095
REMARK  Name = /home/qwerty/github/datacon2025hack/step_04_hit_selection/docking/ligands/lig_424.pdb
REMARK  4 active torsions:
REMARK  status: ('A' for Active; 'I' for Inactive)
REMARK    1  A    between atoms: C1_2  and  C9_16
REMARK    2  A    between atoms: N1_3  and  C2_4
REMARK    3  A    between atoms: C12_19  and  O5_20
REMARK    4  A    between atoms: C13_21  and  C14_22
REMARK                            x       y       z     vdW  Elec       q    Type
REMARK                         _______ _______ _______ _____ _____    ______ ____
ROOT
ATOM      1  O1  UNL     1       9.428   9.981  22.952  0.00  0.00    -0.270 OA
ATOM      2  C1  UNL     1       9.251   8.901  23.580  0.00  0.00    +0.248 C 
ATOM      3  N1  UNL     1       9.554   8.828  24.986  0.00  0.00    -0.281 N 
ATOM      4  H1  UNL     1       9.522   7.903  25.467  0.00  0.00    +0.155 HD
ENDROOT
BRANCH   3   5
ATOM      5  C2  UNL     1       9.970   9.956  25.776  0.00  0.00    +0.036 A 
ATOM      6  C3  UNL     1      11.347  10.249  25.886  0.00  0.00    +0.024 A 
ATOM      7  C4  UNL     1      11.793  11.326  26.669  0.00  0.00    +0.017 A 
ATOM      8  C5  UNL     1      10.850  12.095  27.351  0.00  0.00    +0.065 A 
ATOM      9  C6  UNL     1       9.500  11.798  27.264  0.00  0.00    +0.122 A 
ATOM     10  C7  UNL     1       9.034  10.733  26.494  0.00  0.00    +0.053 A 
ATOM     11  S1  UNL     1       8.557  12.892  28.233  0.00  0.00    +0.075 S 
ATOM     12  O2  UNL     1       7.629  13.738  27.409  0.00  0.00    -0.150 OA
ATOM     13  O3  UNL     1       7.851  12.198  29.364  0.00  0.00    -0.150 OA
ATOM     14  N2  UNL     1       9.913  13.800  28.795  0.00  0.00    -0.181 N 
ATOM     15  C8  UNL     1      11.099  13.245  28.228  0.00  0.00    +0.265 C 
ATOM     16  O4  UNL     1      12.245  13.710  28.469  0.00  0.00    -0.269 OA
ATOM     17  H5  UNL     1       9.870  14.616  29.445  0.00  0.00    +0.177 HD
ENDBRANCH   3   5
BRANCH   2  18
ATOM     18  C9  UNL     1       8.737   7.721  22.843  0.00  0.00    +0.038 A 
ATOM     19  C10 UNL     1       8.512   7.812  21.460  0.00  0.00    +0.016 A 
ATOM     20  C11 UNL     1       8.034   6.712  20.747  0.00  0.00    +0.047 A 
ATOM     21  C12 UNL     1       7.779   5.500  21.399  0.00  0.00    +0.129 A 
ATOM     22  C13 UNL     1       8.007   5.384  22.785  0.00  0.00    +0.097 A 
ATOM     23  C15 UNL     1       8.496   6.498  23.495  0.00  0.00    +0.029 A 
BRANCH  22  24
ATOM     24  C14 UNL     1       7.751   4.066  23.481  0.00  0.00    +0.421 C 
ATOM     25  F1  UNL     1       6.443   3.643  23.320  0.00  0.00    -0.166 F 
ATOM     26  F2  UNL     1       8.004   4.204  24.834  0.00  0.00    -0.166 F 
ATOM     27  F3  UNL     1       8.589   3.096  22.962  0.00  0.00    -0.166 F 
ENDBRANCH  22  24
BRANCH  21  28
ATOM     28  O5  UNL     1       7.306   4.408  20.672  0.00  0.00    -0.506 OA
ATOM     29  H8  UNL     1       7.550   3.456  20.923  0.00  0.00    +0.292 HD
ENDBRANCH  21  28
ENDBRANCH   2  18
TORSDOF 4
ENDMDL
MODEL 6
REMARK VINA RESULT:    -6.757      1.446      2.373
REMARK INTER + INTRA:          -8.235
REMARK INTER:                  -7.961
REMARK INTRA:                  -0.274
REMARK UNBOUND:                -0.095
REMARK  Name = /home/qwerty/github/datacon2025hack/step_04_hit_selection/docking/ligands/lig_424.pdb
REMARK  4 active torsions:
REMARK  status: ('A' for Active; 'I' for Inactive)
REMARK    1  A    between atoms: C1_2  and  C9_16
REMARK    2  A    between atoms: N1_3  and  C2_4
REMARK    3  A    between atoms: C12_19  and  O5_20
REMARK    4  A    between atoms: C13_21  and  C14_22
REMARK                            x       y       z     vdW  Elec       q    Type
REMARK                         _______ _______ _______ _____ _____    ______ ____
ROOT
ATOM      1  O1  UNL     1      20.004   1.045  24.670  0.00  0.00    -0.270 OA
ATOM      2  C1  UNL     1      19.330   1.638  25.557  0.00  0.00    +0.248 C 
ATOM      3  N1  UNL     1      18.247   2.508  25.176  0.00  0.00    -0.281 N 
ATOM      4  H1  UNL     1      17.778   3.087  25.906  0.00  0.00    +0.155 HD
ENDROOT
BRANCH   3   5
ATOM      5  C2  UNL     1      17.800   2.686  23.821  0.00  0.00    +0.036 A 
ATOM      6  C3  UNL     1      18.086   3.898  23.154  0.00  0.00    +0.024 A 
ATOM      7  C4  UNL     1      17.644   4.118  21.840  0.00  0.00    +0.017 A 
ATOM      8  C5  UNL     1      16.902   3.121  21.206  0.00  0.00    +0.065 A 
ATOM      9  C6  UNL     1      16.601   1.940  21.863  0.00  0.00    +0.122 A 
ATOM     10  C7  UNL     1      17.027   1.700  23.168  0.00  0.00    +0.053 A 
ATOM     11  S1  UNL     1      15.643   0.894  20.855  0.00  0.00    +0.075 S 
ATOM     12  O2  UNL     1      16.354  -0.386  20.514  0.00  0.00    -0.150 OA
ATOM     13  O3  UNL     1      14.268   0.657  21.413  0.00  0.00    -0.150 OA
ATOM     14  N2  UNL     1      15.605   1.976  19.511  0.00  0.00    -0.181 N 
ATOM     15  C8  UNL     1      16.336   3.153  19.852  0.00  0.00    +0.265 C 
ATOM     16  O4  UNL     1      16.471   4.120  19.056  0.00  0.00    -0.269 OA
ATOM     17  H5  UNL     1      15.123   1.798  18.603  0.00  0.00    +0.177 HD
ENDBRANCH   3   5
BRANCH   2  18
ATOM     18  C9  UNL     1      19.681   1.428  26.982  0.00  0.00    +0.038 A 
ATOM     19  C10 UNL     1      18.660   1.367  27.944  0.00  0.00    +0.016 A 
ATOM     20  C11 UNL     1      18.968   1.165  29.290  0.00  0.00    +0.047 A 
ATOM     21  C12 UNL     1      20.297   1.014  29.699  0.00  0.00    +0.129 A 
ATOM     22  C13 UNL     1      21.337   1.063  28.749  0.00  0.00    +0.097 A 
ATOM     23  C15 UNL     1      21.016   1.260  27.392  0.00  0.00    +0.029 A 
BRANCH  22  24
ATOM     24  C14 UNL     1      22.771   0.877  29.193  0.00  0.00    +0.421 C 
ATOM     25  F1  UNL     1      23.022   1.501  30.403  0.00  0.00    -0.166 F 
ATOM     26  F2  UNL     1      23.620   1.410  28.239  0.00  0.00    -0.166 F 
ATOM     27  F3  UNL     1      23.041  -0.472  29.335  0.00  0.00    -0.166 F 
ENDBRANCH  22  24
BRANCH  21  28
ATOM     28  O5  UNL     1      20.589   0.808  31.048  0.00  0.00    -0.506 OA
ATOM     29  H8  UNL     1      20.657   1.581  31.701  0.00  0.00    +0.292 HD
ENDBRANCH  21  28
ENDBRANCH   2  18
TORSDOF 4
ENDMDL
MODEL 7
REMARK VINA RESULT:    -6.732      1.930      2.769
REMARK INTER + INTRA:          -8.204
REMARK INTER:                  -7.828
REMARK INTRA:                  -0.376
REMARK UNBOUND:                -0.095
REMARK  Name = /home/qwerty/github/datacon2025hack/step_04_hit_selection/docking/ligands/lig_424.pdb
REMARK  4 active torsions:
REMARK  status: ('A' for Active; 'I' for Inactive)
REMARK    1  A    between atoms: C1_2  and  C9_16
REMARK    2  A    between atoms: N1_3  and  C2_4
REMARK    3  A    between atoms: C12_19  and  O5_20
REMARK    4  A    between atoms: C13_21  and  C14_22
REMARK                            x       y       z     vdW  Elec       q    Type
REMARK                         _______ _______ _______ _____ _____    ______ ____
ROOT
ATOM      1  O1  UNL     1      18.586   3.137  24.980  0.00  0.00    -0.270 OA
ATOM      2  C1  UNL     1      18.945   2.031  25.468  0.00  0.00    +0.248 C 
ATOM      3  N1  UNL     1      18.130   0.859  25.271  0.00  0.00    -0.281 N 
ATOM      4  H1  UNL     1      18.370  -0.020  25.780  0.00  0.00    +0.155 HD
ENDROOT
BRANCH   3   5
ATOM      5  C2  UNL     1      16.947   0.834  24.455  0.00  0.00    +0.036 A 
ATOM      6  C3  UNL     1      15.681   0.762  25.077  0.00  0.00    +0.024 A 
ATOM      7  C4  UNL     1      14.504   0.711  24.313  0.00  0.00    +0.017 A 
ATOM      8  C5  UNL     1      14.608   0.715  22.922  0.00  0.00    +0.065 A 
ATOM      9  C6  UNL     1      15.848   0.764  22.306  0.00  0.00    +0.122 A 
ATOM     10  C7  UNL     1      17.029   0.814  23.045  0.00  0.00    +0.053 A 
ATOM     11  S1  UNL     1      15.685   0.727  20.574  0.00  0.00    +0.075 S 
ATOM     12  O2  UNL     1      16.178   1.987  19.922  0.00  0.00    -0.150 OA
ATOM     13  O3  UNL     1      16.286  -0.509  19.965  0.00  0.00    -0.150 OA
ATOM     14  N2  UNL     1      13.961   0.652  20.588  0.00  0.00    -0.181 N 
ATOM     15  C8  UNL     1      13.515   0.652  21.944  0.00  0.00    +0.265 C 
ATOM     16  O4  UNL     1      12.296   0.600  22.255  0.00  0.00    -0.269 OA
ATOM     17  H5  UNL     1      13.349   0.609  19.744  0.00  0.00    +0.177 HD
ENDBRANCH   3   5
BRANCH   2  18
ATOM     18  C9  UNL     1      20.205   1.967  26.248  0.00  0.00    +0.038 A 
ATOM     19  C10 UNL     1      21.354   2.609  25.760  0.00  0.00    +0.016 A 
ATOM     20  C11 UNL     1      22.548   2.566  26.480  0.00  0.00    +0.047 A 
ATOM     21  C12 UNL     1      22.616   1.887  27.702  0.00  0.00    +0.129 A 
ATOM     22  C13 UNL     1      21.472   1.243  28.215  0.00  0.00    +0.097 A 
ATOM     23  C15 UNL     1      20.269   1.298  27.484  0.00  0.00    +0.029 A 
BRANCH  22  24
ATOM     24  C14 UNL     1      21.544   0.529  29.546  0.00  0.00    +0.421 C 
ATOM     25  F1  UNL     1      22.181   1.293  30.507  0.00  0.00    -0.166 F 
ATOM     26  F2  UNL     1      22.240  -0.657  29.394  0.00  0.00    -0.166 F 
ATOM     27  F3  UNL     1      20.265   0.248  29.991  0.00  0.00    -0.166 F 
ENDBRANCH  22  24
BRANCH  21  28
ATOM     28  O5  UNL     1      23.816   1.856  28.413  0.00  0.00    -0.506 OA
ATOM     29  H8  UNL     1      24.270   2.707  28.726  0.00  0.00    +0.292 HD
ENDBRANCH  21  28
ENDBRANCH   2  18
TORSDOF 4
ENDMDL
MODEL 8
REMARK VINA RESULT:    -6.621     12.059     13.303
REMARK INTER + INTRA:          -8.071
REMARK INTER:                  -7.766
REMARK INTRA:                  -0.305
REMARK UNBOUND:                -0.095
REMARK  Name = /home/qwerty/github/datacon2025hack/step_04_hit_selection/docking/ligands/lig_424.pdb
REMARK  4 active torsions:
REMARK  status: ('A' for Active; 'I' for Inactive)
REMARK    1  A    between atoms: C1_2  and  C9_16
REMARK    2  A    between atoms: N1_3  and  C2_4
REMARK    3  A    between atoms: C12_19  and  O5_20
REMARK    4  A    between atoms: C13_21  and  C14_22
REMARK                            x       y       z     vdW  Elec       q    Type
REMARK                         _______ _______ _______ _____ _____    ______ ____
ROOT
ATOM      1  O1  UNL     1       7.228   8.455  26.688  0.00  0.00    -0.270 OA
ATOM      2  C1  UNL     1       8.176   9.239  26.411  0.00  0.00    +0.248 C 
ATOM      3  N1  UNL     1       8.954   9.032  25.216  0.00  0.00    -0.281 N 
ATOM      4  H1  UNL     1       9.810   9.609  25.059  0.00  0.00    +0.155 HD
ENDROOT
BRANCH   3   5
ATOM      5  C2  UNL     1       8.664   8.022  24.235  0.00  0.00    +0.036 A 
ATOM      6  C3  UNL     1       8.191   8.411  22.963  0.00  0.00    +0.024 A 
ATOM      7  C4  UNL     1       7.873   7.452  21.988  0.00  0.00    +0.017 A 
ATOM      8  C5  UNL     1       8.018   6.101  22.305  0.00  0.00    +0.065 A 
ATOM      9  C6  UNL     1       8.461   5.713  23.558  0.00  0.00    +0.122 A 
ATOM     10  C7  UNL     1       8.781   6.648  24.542  0.00  0.00    +0.053 A 
ATOM     11  S1  UNL     1       8.519   3.979  23.689  0.00  0.00    +0.075 S 
ATOM     12  O2  UNL     1       9.915   3.463  23.892  0.00  0.00    -0.150 OA
ATOM     13  O3  UNL     1       7.554   3.446  24.711  0.00  0.00    -0.150 OA
ATOM     14  N2  UNL     1       7.963   3.690  22.081  0.00  0.00    -0.181 N 
ATOM     15  C8  UNL     1       7.729   4.947  21.446  0.00  0.00    +0.265 C 
ATOM     16  O4  UNL     1       7.313   5.038  20.261  0.00  0.00    -0.269 OA
ATOM     17  H5  UNL     1       7.818   2.751  21.649  0.00  0.00    +0.177 HD
ENDBRANCH   3   5
BRANCH   2  18
ATOM     18  C9  UNL     1       8.473  10.360  27.335  0.00  0.00    +0.038 A 
ATOM     19  C10 UNL     1       7.678  10.544  28.478  0.00  0.00    +0.016 A 
ATOM     20  C11 UNL     1       7.943  11.588  29.364  0.00  0.00    +0.047 A 
ATOM     21  C12 UNL     1       9.009  12.463  29.130  0.00  0.00    +0.129 A 
ATOM     22  C13 UNL     1       9.826  12.292  27.994  0.00  0.00    +0.097 A 
ATOM     23  C15 UNL     1       9.555  11.230  27.109  0.00  0.00    +0.029 A 
BRANCH  22  24
ATOM     24  C14 UNL     1      10.991  13.227  27.757  0.00  0.00    +0.421 C 
ATOM     25  F1  UNL     1      11.723  12.865  26.640  0.00  0.00    -0.166 F 
ATOM     26  F2  UNL     1      11.828  13.207  28.857  0.00  0.00    -0.166 F 
ATOM     27  F3  UNL     1      10.521  14.515  27.570  0.00  0.00    -0.166 F 
ENDBRANCH  22  24
BRANCH  21  28
ATOM     28  O5  UNL     1       9.265  13.501  30.027  0.00  0.00    -0.506 OA
ATOM     29  H8  UNL     1      10.211  13.767  30.277  0.00  0.00    +0.292 HD
ENDBRANCH  21  28
ENDBRANCH   2  18
TORSDOF 4
ENDMDL
MODEL 9
REMARK VINA RESULT:    -5.208      7.240     10.420
REMARK INTER + INTRA:          -6.368
REMARK INTER:                  -5.893
REMARK INTRA:                  -0.475
REMARK UNBOUND:                -0.095
REMARK  Name = /home/qwerty/github/datacon2025hack/step_04_hit_selection/docking/ligands/lig_424.pdb
REMARK  4 active torsions:
REMARK  status: ('A' for Active; 'I' for Inactive)
REMARK    1  A    between atoms: C1_2  and  C9_16
REMARK    2  A    between atoms: N1_3  and  C2_4
REMARK    3  A    between atoms: C12_19  and  O5_20
REMARK    4  A    between atoms: C13_21  and  C14_22
REMARK                            x       y       z     vdW  Elec       q    Type
REMARK                         _______ _______ _______ _____ _____    ______ ____
ROOT
ATOM      1  O1  UNL     1      23.463   5.850  32.675  0.00  0.00    -0.270 OA
ATOM      2  C1  UNL     1      22.378   5.646  33.286  0.00  0.00    +0.248 C 
ATOM      3  N1  UNL     1      21.294   4.970  32.619  0.00  0.00    -0.281 N 
ATOM      4  H1  UNL     1      20.363   4.916  33.088  0.00  0.00    +0.155 HD
ENDROOT
BRANCH   3   5
ATOM      5  C2  UNL     1      21.390   4.410  31.299  0.00  0.00    +0.036 A 
ATOM      6  C3  UNL     1      20.987   5.186  30.190  0.00  0.00    +0.024 A 
ATOM      7  C4  UNL     1      21.042   4.664  28.888  0.00  0.00    +0.017 A 
ATOM      8  C5  UNL     1      21.488   3.354  28.709  0.00  0.00    +0.065 A 
ATOM      9  C6  UNL     1      21.863   2.581  29.795  0.00  0.00    +0.122 A 
ATOM     10  C7  UNL     1      21.815   3.078  31.097  0.00  0.00    +0.053 A 
ATOM     11  S1  UNL     1      22.344   0.988  29.289  0.00  0.00    +0.075 S 
ATOM     12  O2  UNL     1      23.791   0.704  29.577  0.00  0.00    -0.150 OA
ATOM     13  O3  UNL     1      21.432  -0.084  29.818  0.00  0.00    -0.150 OA
ATOM     14  N2  UNL     1      22.076   1.277  27.610  0.00  0.00    -0.181 N 
ATOM     15  C8  UNL     1      21.607   2.615  27.447  0.00  0.00    +0.265 C 
ATOM     16  O4  UNL     1      21.326   3.100  26.318  0.00  0.00    -0.269 OA
ATOM     17  H5  UNL     1      22.227   0.585  26.843  0.00  0.00    +0.177 HD
ENDBRANCH   3   5
BRANCH   2  18
ATOM     18  C9  UNL     1      22.243   6.120  34.684  0.00  0.00    +0.038 A 
ATOM     19  C10 UNL     1      23.384   6.208  35.498  0.00  0.00    +0.016 A 
ATOM     20  C11 UNL     1      23.280   6.656  36.816  0.00  0.00    +0.047 A 
ATOM     21  C12 UNL     1      22.039   7.031  37.342  0.00  0.00    +0.129 A 
ATOM     22  C13 UNL     1      20.883   6.960  36.540  0.00  0.00    +0.097 A 
ATOM     23  C15 UNL     1      20.998   6.512  35.209  0.00  0.00    +0.029 A 
BRANCH  22  24
ATOM     24  C14 UNL     1      19.547   7.387  37.106  0.00  0.00    +0.421 C 
ATOM     25  F1  UNL     1      19.584   8.680  37.596  0.00  0.00    -0.166 F 
ATOM     26  F2  UNL     1      19.191   6.536  38.136  0.00  0.00    -0.166 F 
ATOM     27  F3  UNL     1      18.583   7.326  36.116  0.00  0.00    -0.166 F 
ENDBRANCH  22  24
BRANCH  21  28
ATOM     28  O5  UNL     1      21.952   7.482  38.659  0.00  0.00    -0.506 OA
ATOM     29  H8  UNL     1      22.773   7.773  39.177  0.00  0.00    +0.292 HD
ENDBRANCH  21  28
ENDBRANCH   2  18
TORSDOF 4
ENDMDL
