REMARK  Name = /home/qwerty/github/datacon2025hack/step_04_hit_selection/docking/ligands/lig_699.pdb
REMARK  5 active torsions:
REMARK  status: ('A' for Active; 'I' for Inactive)
REMARK    1  A    between atoms: C1_2  and  C11_15
REMARK    2  A    between atoms: N1_3  and  C2_4
REMARK    3  A    between atoms: C5_8  and  C6_10
REMARK    4  A    between atoms: C13_17  and  C14_18
REMARK    5  A    between atoms: C17_24  and  C18_25
REMARK                            x       y       z     vdW  Elec       q    Type
REMARK                         _______ _______ _______ _____ _____    ______ ____
ROOT
ATOM      1  C11 UNL     1       0.785  -1.195  -0.198  0.00  0.00    +0.046 A 
ATOM      2  C12 UNL     1      -0.201  -0.925  -1.167  0.00  0.00    +0.041 A 
ATOM      3  C13 UNL     1      -1.570  -0.873  -0.789  0.00  0.00    +0.074 A 
ATOM      4  N7  UNL     1      -1.902  -1.110   0.517  0.00  0.00    -0.249 NA
ATOM      5  C29 UNL     1      -0.942  -1.373   1.436  0.00  0.00    +0.074 A 
ATOM      6  C30 UNL     1       0.362  -1.407   1.119  0.00  0.00    +0.014 A 
ATOM      7  C31 UNL     1       1.118  -1.763   2.339  0.00  0.00    +0.198 C 
ATOM      8  O3  UNL     1       0.167  -1.994   3.374  0.00  0.00    -0.369 OA
ATOM      9  C32 UNL     1      -1.123  -1.692   2.857  0.00  0.00    +0.215 C 
ENDROOT
BRANCH   3  10
ATOM     10  C14 UNL     1      -2.655  -0.522  -1.751  0.00  0.00    +0.019 A 
ATOM     11  C15 UNL     1      -2.472  -0.577  -3.166  0.00  0.00    +0.123 A 
ATOM     12  N3  UNL     1      -3.490  -0.247  -4.019  0.00  0.00    -0.235 NA
ATOM     13  C16 UNL     1      -4.676   0.153  -3.503  0.00  0.00    +0.156 A 
ATOM     14  N4  UNL     1      -5.789   0.457  -4.185  0.00  0.00    -0.260 N 
ATOM     15  N5  UNL     1      -6.748   0.733  -3.308  0.00  0.00    -0.171 NA
ATOM     16  C17 UNL     1      -6.233   0.610  -2.056  0.00  0.00    +0.102 A 
ATOM     17  C27 UNL     1      -4.905   0.227  -2.166  0.00  0.00    +0.047 A 
ATOM     18  C28 UNL     1      -3.921  -0.129  -1.251  0.00  0.00    +0.025 A 
ATOM     19  H18 UNL     1      -5.909   0.462  -5.224  0.00  0.00    +0.191 HD
BRANCH  16  20
ATOM     20  C18 UNL     1      -7.018   0.806  -0.819  0.00  0.00    +0.003 A 
ATOM     21  C19 UNL     1      -6.433   1.375   0.326  0.00  0.00    +0.012 A 
ATOM     22  C20 UNL     1      -7.170   1.521   1.504  0.00  0.00    +0.029 A 
ATOM     23  C21 UNL     1      -8.506   1.114   1.550  0.00  0.00    +0.071 A 
ATOM     24  N6  UNL     1      -9.221   1.243   2.700  0.00  0.00    -0.255 NA
ATOM     25  C22 UNL     1     -10.523   0.859   2.778  0.00  0.00    +0.111 A 
ATOM     26  C23 UNL     1     -11.164   0.321   1.658  0.00  0.00    +0.020 A 
ATOM     27  C24 UNL     1     -10.458   0.179   0.462  0.00  0.00    +0.011 A 
ATOM     28  C25 UNL     1      -9.115   0.570   0.396  0.00  0.00    +0.001 A 
ATOM     29  C26 UNL     1      -8.371   0.426  -0.785  0.00  0.00    +0.020 A 
ENDBRANCH  16  20
ENDBRANCH   3  10
BRANCH   1  31
ATOM     30  O1  UNL     1       2.556  -1.939  -1.572  0.00  0.00    -0.270 OA
ATOM     31  C1  UNL     1       2.208  -1.252  -0.574  0.00  0.00    +0.245 C 
ATOM     32  N1  UNL     1       3.184  -0.506   0.169  0.00  0.00    -0.308 N 
ATOM     33  H1  UNL     1       2.840   0.184   0.875  0.00  0.00    +0.149 HD
BRANCH  32  34
ATOM     34  C2  UNL     1       4.630  -0.667  -0.028  0.00  0.00    +0.076 C 
ATOM     35  C3  UNL     1       5.392   0.081   1.077  0.00  0.00    +0.041 C 
ATOM     36  C4  UNL     1       6.905  -0.065   0.889  0.00  0.00    +0.109 C 
ATOM     37  N2  UNL     1       7.314   0.223  -0.497  0.00  0.00    -0.301 N 
ATOM     38  C5  UNL     1       8.714   0.205  -0.853  0.00  0.00    +0.219 C 
ATOM     39  O2  UNL     1       9.053   0.066  -2.060  0.00  0.00    -0.275 OA
ATOM     40  C9  UNL     1       6.315   0.682  -1.474  0.00  0.00    +0.109 C 
ATOM     41  C10 UNL     1       5.045  -0.186  -1.442  0.00  0.00    +0.041 C 
BRANCH  38  42
ATOM     42  C6  UNL     1       9.790   0.334   0.192  0.00  0.00    +0.075 C 
ATOM     43  C7  UNL     1       9.846   1.696   0.877  0.00  0.00    +0.013 C 
ATOM     44  C8  UNL     1      10.895   1.328  -0.159  0.00  0.00    +0.013 C 
ENDBRANCH  38  42
ENDBRANCH  32  34
ENDBRANCH   1  31
TORSDOF 5
