MODEL 1
REMARK VINA RESULT:    -6.623      0.000      0.000
REMARK INTER + INTRA:          -8.272
REMARK INTER:                  -7.397
REMARK INTRA:                  -0.875
REMARK UNBOUND:                -0.875
REMARK  Name = /home/qwerty/github/datacon2025hack/step_04_hit_selection/docking/ligands/lig_775.pdb
REMARK  4 active torsions:
REMARK  status: ('A' for Active; 'I' for Inactive)
REMARK    1  A    between atoms: C1_1  and  C2_2
REMARK    2  A    between atoms: C4_4  and  N1_5
REMARK    3  A    between atoms: C5_6  and  C6_8
REMARK    4  A    between atoms: C12_15  and  C13_16
REMARK                            x       y       z     vdW  Elec       q    Type
REMARK                         _______ _______ _______ _____ _____    ______ ____
ROOT
ATOM      1  N1  UNL     1       8.353   9.794  24.922  0.00  0.00    -0.281 N 
ATOM      2  C5  UNL     1       9.646   9.516  24.354  0.00  0.00    +0.252 C 
ATOM      3  O1  UNL     1      10.659   9.410  25.097  0.00  0.00    -0.270 OA
ATOM      4  H5  UNL     1       7.542   9.914  24.274  0.00  0.00    +0.155 HD
ENDROOT
BRANCH   2   5
ATOM      5  C6  UNL     1       9.804   9.343  22.897  0.00  0.00    +0.080 A 
ATOM      6  C7  UNL     1      10.411  10.363  22.145  0.00  0.00    +0.017 A 
ATOM      7  C8  UNL     1      10.596  10.213  20.769  0.00  0.00    +0.003 A 
ATOM      8  C9  UNL     1      10.173   9.049  20.126  0.00  0.00    +0.027 A 
ATOM      9  C10 UNL     1       9.540   8.036  20.857  0.00  0.00    +0.076 A 
ATOM     10  C11 UNL     1       9.336   8.187  22.238  0.00  0.00    +0.155 A 
ATOM     11  O2  UNL     1       8.667   7.181  22.949  0.00  0.00    -0.477 OA
ATOM     12  C12 UNL     1       7.860   6.177  22.323  0.00  0.00    +0.256 C 
ATOM     13  C13 UNL     1       7.817   4.942  23.222  0.00  0.00    +0.062 C 
ATOM     14  C14 UNL     1       8.372   5.850  20.941  0.00  0.00    +0.258 C 
ATOM     15  O3  UNL     1       8.065   4.760  20.383  0.00  0.00    -0.271 OA
ATOM     16  N2  UNL     1       9.119   6.829  20.214  0.00  0.00    -0.280 N 
ATOM     17  H13 UNL     1       9.359   6.654  19.212  0.00  0.00    +0.155 HD
ENDBRANCH   2   5
BRANCH   1  21
ATOM     18  C1  UNL     1       8.236  12.607  29.063  0.00  0.00    +0.065 C 
ATOM     19  C2  UNL     1       8.051  11.293  28.373  0.00  0.00    +0.041 A 
ATOM     20  C3  UNL     1       8.272  11.185  26.982  0.00  0.00    +0.047 A 
ATOM     21  C4  UNL     1       8.112   9.941  26.332  0.00  0.00    +0.045 A 
ATOM     22  C15 UNL     1       7.770   8.832  27.120  0.00  0.00    +0.029 A 
ATOM     23  C16 UNL     1       7.576   7.510  26.698  0.00  0.00    +0.019 A 
ATOM     24  C17 UNL     1       7.230   6.655  27.746  0.00  0.00    +0.048 A 
ATOM     25  S1  UNL     1       7.162   7.534  29.190  0.00  0.00    -0.077 S 
ATOM     26  C18 UNL     1       7.572   8.994  28.479  0.00  0.00    +0.110 A 
ATOM     27  N3  UNL     1       7.707  10.190  29.099  0.00  0.00    -0.245 NA
ENDBRANCH   1  21
TORSDOF 2
ENDMDL
MODEL 2
REMARK VINA RESULT:    -6.556      1.146      2.393
REMARK INTER + INTRA:          -8.198
REMARK INTER:                  -7.410
REMARK INTRA:                  -0.789
REMARK UNBOUND:                -0.875
REMARK  Name = /home/qwerty/github/datacon2025hack/step_04_hit_selection/docking/ligands/lig_775.pdb
REMARK  4 active torsions:
REMARK  status: ('A' for Active; 'I' for Inactive)
REMARK    1  A    between atoms: C1_1  and  C2_2
REMARK    2  A    between atoms: C4_4  and  N1_5
REMARK    3  A    between atoms: C5_6  and  C6_8
REMARK    4  A    between atoms: C12_15  and  C13_16
REMARK                            x       y       z     vdW  Elec       q    Type
REMARK                         _______ _______ _______ _____ _____    ______ ____
ROOT
ATOM      1  N1  UNL     1       8.070   8.901  25.278  0.00  0.00    -0.281 N 
ATOM      2  C5  UNL     1       9.361   8.862  24.645  0.00  0.00    +0.252 C 
ATOM      3  O1  UNL     1      10.411   8.804  25.341  0.00  0.00    -0.270 OA
ATOM      4  H5  UNL     1       7.223   8.987  24.672  0.00  0.00    +0.155 HD
ENDROOT
BRANCH   2   5
ATOM      5  C6  UNL     1       9.477   8.881  23.173  0.00  0.00    +0.080 A 
ATOM      6  C7  UNL     1      10.042  10.001  22.542  0.00  0.00    +0.017 A 
ATOM      7  C8  UNL     1      10.187  10.033  21.153  0.00  0.00    +0.003 A 
ATOM      8  C9  UNL     1       9.765   8.952  20.378  0.00  0.00    +0.027 A 
ATOM      9  C10 UNL     1       9.173   7.840  20.991  0.00  0.00    +0.076 A 
ATOM     10  C11 UNL     1       9.010   7.809  22.385  0.00  0.00    +0.155 A 
ATOM     11  O2  UNL     1       8.381   6.706  22.979  0.00  0.00    -0.477 OA
ATOM     12  C12 UNL     1       7.573   5.773  22.252  0.00  0.00    +0.256 C 
ATOM     13  C13 UNL     1       7.579   4.433  22.986  0.00  0.00    +0.062 C 
ATOM     14  C14 UNL     1       8.047   5.637  20.825  0.00  0.00    +0.258 C 
ATOM     15  O3  UNL     1       7.742   4.622  20.141  0.00  0.00    -0.271 OA
ATOM     16  N2  UNL     1       8.753   6.717  20.209  0.00  0.00    -0.280 N 
ATOM     17  H13 UNL     1       8.965   6.677  19.187  0.00  0.00    +0.155 HD
ENDBRANCH   2   5
BRANCH   1  21
ATOM     18  C1  UNL     1       6.906   6.373  29.440  0.00  0.00    +0.065 C 
ATOM     19  C2  UNL     1       7.303   7.640  28.751  0.00  0.00    +0.041 A 
ATOM     20  C3  UNL     1       7.512   7.652  27.355  0.00  0.00    +0.047 A 
ATOM     21  C4  UNL     1       7.873   8.851  26.701  0.00  0.00    +0.045 A 
ATOM     22  C15 UNL     1       7.971  10.014  27.480  0.00  0.00    +0.029 A 
ATOM     23  C16 UNL     1       8.295  11.308  27.048  0.00  0.00    +0.019 A 
ATOM     24  C17 UNL     1       8.317  12.235  28.091  0.00  0.00    +0.048 A 
ATOM     25  S1  UNL     1       7.937  11.456  29.544  0.00  0.00    -0.077 S 
ATOM     26  C18 UNL     1       7.748   9.946  28.842  0.00  0.00    +0.110 A 
ATOM     27  N3  UNL     1       7.420   8.793  29.472  0.00  0.00    -0.245 NA
ENDBRANCH   1  21
TORSDOF 2
ENDMDL
MODEL 3
REMARK VINA RESULT:    -6.472      2.609      6.777
REMARK INTER + INTRA:          -8.103
REMARK INTER:                  -7.286
REMARK INTRA:                  -0.817
REMARK UNBOUND:                -0.875
REMARK  Name = /home/qwerty/github/datacon2025hack/step_04_hit_selection/docking/ligands/lig_775.pdb
REMARK  4 active torsions:
REMARK  status: ('A' for Active; 'I' for Inactive)
REMARK    1  A    between atoms: C1_1  and  C2_2
REMARK    2  A    between atoms: C4_4  and  N1_5
REMARK    3  A    between atoms: C5_6  and  C6_8
REMARK    4  A    between atoms: C12_15  and  C13_16
REMARK                            x       y       z     vdW  Elec       q    Type
REMARK                         _______ _______ _______ _____ _____    ______ ____
ROOT
ATOM      1  N1  UNL     1       9.400   9.385  24.694  0.00  0.00    -0.281 N 
ATOM      2  C5  UNL     1       8.232  10.068  25.184  0.00  0.00    +0.252 C 
ATOM      3  O1  UNL     1       7.279  10.341  24.406  0.00  0.00    -0.270 OA
ATOM      4  H5  UNL     1      10.187   9.208  25.359  0.00  0.00    +0.155 HD
ENDROOT
BRANCH   2   5
ATOM      5  C6  UNL     1       8.129  10.452  26.606  0.00  0.00    +0.080 A 
ATOM      6  C7  UNL     1       8.386  11.781  26.980  0.00  0.00    +0.017 A 
ATOM      7  C8  UNL     1       8.270  12.176  28.315  0.00  0.00    +0.003 A 
ATOM      8  C9  UNL     1       7.901  11.250  29.292  0.00  0.00    +0.027 A 
ATOM      9  C10 UNL     1       7.671   9.914  28.938  0.00  0.00    +0.076 A 
ATOM     10  C11 UNL     1       7.802   9.507  27.601  0.00  0.00    +0.155 A 
ATOM     11  O2  UNL     1       7.604   8.160  27.270  0.00  0.00    -0.477 OA
ATOM     12  C12 UNL     1       7.630   7.099  28.232  0.00  0.00    +0.256 C 
ATOM     13  C13 UNL     1       6.793   5.933  27.710  0.00  0.00    +0.062 C 
ATOM     14  C14 UNL     1       7.151   7.576  29.582  0.00  0.00    +0.258 C 
ATOM     15  O3  UNL     1       6.736   6.754  30.444  0.00  0.00    -0.271 OA
ATOM     16  N2  UNL     1       7.274   8.959  29.927  0.00  0.00    -0.280 N 
ATOM     17  H13 UNL     1       7.067   9.266  30.904  0.00  0.00    +0.155 HD
ENDBRANCH   2   5
BRANCH   1  21
ATOM     18  C1  UNL     1      10.651  10.299  19.933  0.00  0.00    +0.065 C 
ATOM     19  C2  UNL     1      10.162   9.370  20.998  0.00  0.00    +0.041 A 
ATOM     20  C3  UNL     1      10.037   9.820  22.330  0.00  0.00    +0.047 A 
ATOM     21  C4  UNL     1       9.561   8.948  23.334  0.00  0.00    +0.045 A 
ATOM     22  C15 UNL     1       9.188   7.652  22.948  0.00  0.00    +0.029 A 
ATOM     23  C16 UNL     1       8.679   6.630  23.761  0.00  0.00    +0.019 A 
ATOM     24  C17 UNL     1       8.422   5.455  23.054  0.00  0.00    +0.048 A 
ATOM     25  S1  UNL     1       8.826   5.679  21.426  0.00  0.00    -0.077 S 
ATOM     26  C18 UNL     1       9.324   7.265  21.628  0.00  0.00    +0.110 A 
ATOM     27  N3  UNL     1       9.798   8.096  20.669  0.00  0.00    -0.245 NA
ENDBRANCH   1  21
TORSDOF 2
ENDMDL
MODEL 4
REMARK VINA RESULT:    -6.458     15.717     16.490
REMARK INTER + INTRA:          -8.088
REMARK INTER:                  -7.271
REMARK INTRA:                  -0.818
REMARK UNBOUND:                -0.875
REMARK  Name = /home/qwerty/github/datacon2025hack/step_04_hit_selection/docking/ligands/lig_775.pdb
REMARK  4 active torsions:
REMARK  status: ('A' for Active; 'I' for Inactive)
REMARK    1  A    between atoms: C1_1  and  C2_2
REMARK    2  A    between atoms: C4_4  and  N1_5
REMARK    3  A    between atoms: C5_6  and  C6_8
REMARK    4  A    between atoms: C12_15  and  C13_16
REMARK                            x       y       z     vdW  Elec       q    Type
REMARK                         _______ _______ _______ _____ _____    ______ ____
ROOT
ATOM      1  N1  UNL     1      21.499   4.745  32.793  0.00  0.00    -0.281 N 
ATOM      2  C5  UNL     1      22.379   3.694  32.356  0.00  0.00    +0.252 C 
ATOM      3  O1  UNL     1      23.621   3.777  32.555  0.00  0.00    -0.270 OA
ATOM      4  H5  UNL     1      20.480   4.661  32.577  0.00  0.00    +0.155 HD
ENDROOT
BRANCH   2   5
ATOM      5  C6  UNL     1      21.841   2.499  31.676  0.00  0.00    +0.080 A 
ATOM      6  C7  UNL     1      22.437   2.060  30.482  0.00  0.00    +0.017 A 
ATOM      7  C8  UNL     1      21.963   0.917  29.833  0.00  0.00    +0.003 A 
ATOM      8  C9  UNL     1      20.888   0.203  30.363  0.00  0.00    +0.027 A 
ATOM      9  C10 UNL     1      20.265   0.645  31.537  0.00  0.00    +0.076 A 
ATOM     10  C11 UNL     1      20.726   1.802  32.186  0.00  0.00    +0.155 A 
ATOM     11  O2  UNL     1      20.067   2.253  33.338  0.00  0.00    -0.477 OA
ATOM     12  C12 UNL     1      18.748   1.835  33.708  0.00  0.00    +0.256 C 
ATOM     13  C13 UNL     1      18.589   1.969  35.221  0.00  0.00    +0.062 C 
ATOM     14  C14 UNL     1      18.469   0.428  33.234  0.00  0.00    +0.258 C 
ATOM     15  O3  UNL     1      17.553  -0.259  33.764  0.00  0.00    -0.271 OA
ATOM     16  N2  UNL     1      19.174  -0.089  32.102  0.00  0.00    -0.280 N 
ATOM     17  H13 UNL     1      18.889  -1.008  31.694  0.00  0.00    +0.155 HD
ENDBRANCH   2   5
BRANCH   1  21
ATOM     18  C1  UNL     1      22.044   7.367  37.023  0.00  0.00    +0.065 C 
ATOM     19  C2  UNL     1      22.215   7.227  35.544  0.00  0.00    +0.041 A 
ATOM     20  C3  UNL     1      21.793   6.049  34.890  0.00  0.00    +0.047 A 
ATOM     21  C4  UNL     1      21.941   5.922  33.491  0.00  0.00    +0.045 A 
ATOM     22  C15 UNL     1      22.478   7.012  32.790  0.00  0.00    +0.029 A 
ATOM     23  C16 UNL     1      22.699   7.117  31.410  0.00  0.00    +0.019 A 
ATOM     24  C17 UNL     1      23.261   8.341  31.045  0.00  0.00    +0.048 A 
ATOM     25  S1  UNL     1      23.484   9.291  32.427  0.00  0.00    -0.077 S 
ATOM     26  C18 UNL     1      22.868   8.144  33.480  0.00  0.00    +0.110 A 
ATOM     27  N3  UNL     1      22.743   8.259  34.824  0.00  0.00    -0.245 NA
ENDBRANCH   1  21
TORSDOF 2
ENDMDL
MODEL 5
REMARK VINA RESULT:    -6.434     15.668     16.326
REMARK INTER + INTRA:          -8.061
REMARK INTER:                  -7.168
REMARK INTRA:                  -0.894
REMARK UNBOUND:                -0.875
REMARK  Name = /home/qwerty/github/datacon2025hack/step_04_hit_selection/docking/ligands/lig_775.pdb
REMARK  4 active torsions:
REMARK  status: ('A' for Active; 'I' for Inactive)
REMARK    1  A    between atoms: C1_1  and  C2_2
REMARK    2  A    between atoms: C4_4  and  N1_5
REMARK    3  A    between atoms: C5_6  and  C6_8
REMARK    4  A    between atoms: C12_15  and  C13_16
REMARK                            x       y       z     vdW  Elec       q    Type
REMARK                         _______ _______ _______ _____ _____    ______ ____
ROOT
ATOM      1  N1  UNL     1      21.632   5.158  32.005  0.00  0.00    -0.281 N 
ATOM      2  C5  UNL     1      22.359   3.922  32.108  0.00  0.00    +0.252 C 
ATOM      3  O1  UNL     1      23.495   3.893  32.655  0.00  0.00    -0.270 OA
ATOM      4  H5  UNL     1      20.711   5.153  31.511  0.00  0.00    +0.155 HD
ENDROOT
BRANCH   2   5
ATOM      5  C6  UNL     1      21.786   2.667  31.581  0.00  0.00    +0.080 A 
ATOM      6  C7  UNL     1      22.333   2.094  30.421  0.00  0.00    +0.017 A 
ATOM      7  C8  UNL     1      21.826   0.895  29.917  0.00  0.00    +0.003 A 
ATOM      8  C9  UNL     1      20.765   0.256  30.560  0.00  0.00    +0.027 A 
ATOM      9  C10 UNL     1      20.190   0.830  31.701  0.00  0.00    +0.076 A 
ATOM     10  C11 UNL     1      20.685   2.044  32.203  0.00  0.00    +0.155 A 
ATOM     11  O2  UNL     1      20.074   2.625  33.323  0.00  0.00    -0.477 OA
ATOM     12  C12 UNL     1      18.765   2.266  33.783  0.00  0.00    +0.256 C 
ATOM     13  C13 UNL     1      18.664   2.565  35.277  0.00  0.00    +0.062 C 
ATOM     14  C14 UNL     1      18.457   0.820  33.474  0.00  0.00    +0.258 C 
ATOM     15  O3  UNL     1      17.555   0.206  34.109  0.00  0.00    -0.271 OA
ATOM     16  N2  UNL     1      19.114   0.175  32.380  0.00  0.00    -0.280 N 
ATOM     17  H13 UNL     1      18.806  -0.779  32.085  0.00  0.00    +0.155 HD
ENDBRANCH   2   5
BRANCH   1  21
ATOM     18  C1  UNL     1      24.269   9.382  31.482  0.00  0.00    +0.065 C 
ATOM     19  C2  UNL     1      23.392   8.484  32.295  0.00  0.00    +0.041 A 
ATOM     20  C3  UNL     1      22.922   7.269  31.751  0.00  0.00    +0.047 A 
ATOM     21  C4  UNL     1      22.106   6.413  32.523  0.00  0.00    +0.045 A 
ATOM     22  C15 UNL     1      21.823   6.797  33.842  0.00  0.00    +0.029 A 
ATOM     23  C16 UNL     1      21.057   6.104  34.789  0.00  0.00    +0.019 A 
ATOM     24  C17 UNL     1      20.966   6.778  36.008  0.00  0.00    +0.048 A 
ATOM     25  S1  UNL     1      21.832   8.229  35.913  0.00  0.00    -0.077 S 
ATOM     26  C18 UNL     1      22.316   7.994  34.327  0.00  0.00    +0.110 A 
ATOM     27  N3  UNL     1      23.083   8.824  33.580  0.00  0.00    -0.245 NA
ENDBRANCH   1  21
TORSDOF 2
ENDMDL
MODEL 6
REMARK VINA RESULT:    -6.365      2.864      7.174
REMARK INTER + INTRA:          -7.985
REMARK INTER:                  -7.134
REMARK INTRA:                  -0.850
REMARK UNBOUND:                -0.875
REMARK  Name = /home/qwerty/github/datacon2025hack/step_04_hit_selection/docking/ligands/lig_775.pdb
REMARK  4 active torsions:
REMARK  status: ('A' for Active; 'I' for Inactive)
REMARK    1  A    between atoms: C1_1  and  C2_2
REMARK    2  A    between atoms: C4_4  and  N1_5
REMARK    3  A    between atoms: C5_6  and  C6_8
REMARK    4  A    between atoms: C12_15  and  C13_16
REMARK                            x       y       z     vdW  Elec       q    Type
REMARK                         _______ _______ _______ _____ _____    ______ ____
ROOT
ATOM      1  N1  UNL     1       9.025   8.875  24.700  0.00  0.00    -0.281 N 
ATOM      2  C5  UNL     1       8.095   9.871  25.160  0.00  0.00    +0.252 C 
ATOM      3  O1  UNL     1       7.296  10.419  24.353  0.00  0.00    -0.270 OA
ATOM      4  H5  UNL     1       9.698   8.469  25.389  0.00  0.00    +0.155 HD
ENDROOT
BRANCH   2   5
ATOM      5  C6  UNL     1       8.056  10.262  26.583  0.00  0.00    +0.080 A 
ATOM      6  C7  UNL     1       8.365  11.585  26.943  0.00  0.00    +0.017 A 
ATOM      7  C8  UNL     1       8.310  11.986  28.279  0.00  0.00    +0.003 A 
ATOM      8  C9  UNL     1       7.953  11.073  29.273  0.00  0.00    +0.027 A 
ATOM      9  C10 UNL     1       7.672   9.744  28.933  0.00  0.00    +0.076 A 
ATOM     10  C11 UNL     1       7.741   9.330  27.593  0.00  0.00    +0.155 A 
ATOM     11  O2  UNL     1       7.493   7.987  27.275  0.00  0.00    -0.477 OA
ATOM     12  C12 UNL     1       7.525   6.929  28.239  0.00  0.00    +0.256 C 
ATOM     13  C13 UNL     1       6.636   5.786  27.753  0.00  0.00    +0.062 C 
ATOM     14  C14 UNL     1       7.111   7.423  29.605  0.00  0.00    +0.258 C 
ATOM     15  O3  UNL     1       6.706   6.615  30.485  0.00  0.00    -0.271 OA
ATOM     16  N2  UNL     1       7.286   8.802  29.940  0.00  0.00    -0.280 N 
ATOM     17  H13 UNL     1       7.125   9.118  30.923  0.00  0.00    +0.155 HD
ENDBRANCH   2   5
BRANCH   1  21
ATOM     18  C1  UNL     1       7.598   5.749  21.059  0.00  0.00    +0.065 C 
ATOM     19  C2  UNL     1       8.424   6.897  21.542  0.00  0.00    +0.041 A 
ATOM     20  C3  UNL     1       8.311   7.341  22.878  0.00  0.00    +0.047 A 
ATOM     21  C4  UNL     1       9.101   8.416  23.339  0.00  0.00    +0.045 A 
ATOM     22  C15 UNL     1      10.015   8.986  22.441  0.00  0.00    +0.029 A 
ATOM     23  C16 UNL     1      10.906  10.042  22.681  0.00  0.00    +0.019 A 
ATOM     24  C17 UNL     1      11.668  10.370  21.559  0.00  0.00    +0.048 A 
ATOM     25  S1  UNL     1      11.241   9.357  20.273  0.00  0.00    -0.077 S 
ATOM     26  C18 UNL     1      10.090   8.508  21.146  0.00  0.00    +0.110 A 
ATOM     27  N3  UNL     1       9.319   7.489  20.698  0.00  0.00    -0.245 NA
ENDBRANCH   1  21
TORSDOF 2
ENDMDL
MODEL 7
REMARK VINA RESULT:    -6.323      6.303      9.420
REMARK INTER + INTRA:          -7.938
REMARK INTER:                  -7.306
REMARK INTRA:                  -0.632
REMARK UNBOUND:                -0.875
REMARK  Name = /home/qwerty/github/datacon2025hack/step_04_hit_selection/docking/ligands/lig_775.pdb
REMARK  4 active torsions:
REMARK  status: ('A' for Active; 'I' for Inactive)
REMARK    1  A    between atoms: C1_1  and  C2_2
REMARK    2  A    between atoms: C4_4  and  N1_5
REMARK    3  A    between atoms: C5_6  and  C6_8
REMARK    4  A    between atoms: C12_15  and  C13_16
REMARK                            x       y       z     vdW  Elec       q    Type
REMARK                         _______ _______ _______ _____ _____    ______ ____
ROOT
ATOM      1  N1  UNL     1      12.177  12.259  32.421  0.00  0.00    -0.281 N 
ATOM      2  C5  UNL     1      11.435  13.385  31.921  0.00  0.00    +0.252 C 
ATOM      3  O1  UNL     1      10.834  14.157  32.717  0.00  0.00    -0.270 OA
ATOM      4  H5  UNL     1      12.631  11.619  31.731  0.00  0.00    +0.155 HD
ENDROOT
BRANCH   2   5
ATOM      5  C6  UNL     1      11.371  13.659  30.472  0.00  0.00    +0.080 A 
ATOM      6  C7  UNL     1      12.196  14.655  29.923  0.00  0.00    +0.017 A 
ATOM      7  C8  UNL     1      12.173  14.916  28.551  0.00  0.00    +0.003 A 
ATOM      8  C9  UNL     1      11.325  14.191  27.712  0.00  0.00    +0.027 A 
ATOM      9  C10 UNL     1      10.476  13.216  28.249  0.00  0.00    +0.076 A 
ATOM     10  C11 UNL     1      10.482  12.960  29.630  0.00  0.00    +0.155 A 
ATOM     11  O2  UNL     1       9.599  12.008  30.157  0.00  0.00    -0.477 OA
ATOM     12  C12 UNL     1       8.445  11.529  29.456  0.00  0.00    +0.256 C 
ATOM     13  C13 UNL     1       8.093  10.134  29.970  0.00  0.00    +0.062 C 
ATOM     14  C14 UNL     1       8.670  11.540  27.963  0.00  0.00    +0.258 C 
ATOM     15  O3  UNL     1       7.963  10.824  27.201  0.00  0.00    -0.271 OA
ATOM     16  N2  UNL     1       9.615  12.452  27.398  0.00  0.00    -0.280 N 
ATOM     17  H13 UNL     1       9.676  12.553  26.360  0.00  0.00    +0.155 HD
ENDBRANCH   2   5
BRANCH   1  21
ATOM     18  C1  UNL     1      10.770   9.686  36.479  0.00  0.00    +0.065 C 
ATOM     19  C2  UNL     1      11.643  10.704  35.818  0.00  0.00    +0.041 A 
ATOM     20  C3  UNL     1      11.501  10.973  34.439  0.00  0.00    +0.047 A 
ATOM     21  C4  UNL     1      12.315  11.945  33.818  0.00  0.00    +0.045 A 
ATOM     22  C15 UNL     1      13.225  12.646  34.623  0.00  0.00    +0.029 A 
ATOM     23  C16 UNL     1      14.113  13.657  34.231  0.00  0.00    +0.019 A 
ATOM     24  C17 UNL     1      14.889  14.134  35.288  0.00  0.00    +0.048 A 
ATOM     25  S1  UNL     1      14.477  13.306  36.705  0.00  0.00    -0.077 S 
ATOM     26  C18 UNL     1      13.317  12.347  35.970  0.00  0.00    +0.110 A 
ATOM     27  N3  UNL     1      12.550  11.402  36.562  0.00  0.00    -0.245 NA
ENDBRANCH   1  21
TORSDOF 2
ENDMDL
MODEL 8
REMARK VINA RESULT:    -6.304     15.047     15.808
REMARK INTER + INTRA:          -7.916
REMARK INTER:                  -7.183
REMARK INTRA:                  -0.734
REMARK UNBOUND:                -0.875
REMARK  Name = /home/qwerty/github/datacon2025hack/step_04_hit_selection/docking/ligands/lig_775.pdb
REMARK  4 active torsions:
REMARK  status: ('A' for Active; 'I' for Inactive)
REMARK    1  A    between atoms: C1_1  and  C2_2
REMARK    2  A    between atoms: C4_4  and  N1_5
REMARK    3  A    between atoms: C5_6  and  C6_8
REMARK    4  A    between atoms: C12_15  and  C13_16
REMARK                            x       y       z     vdW  Elec       q    Type
REMARK                         _______ _______ _______ _____ _____    ______ ____
ROOT
ATOM      1  N1  UNL     1      21.478   5.276  31.753  0.00  0.00    -0.281 N 
ATOM      2  C5  UNL     1      22.144   4.017  31.956  0.00  0.00    +0.252 C 
ATOM      3  O1  UNL     1      23.274   3.976  32.513  0.00  0.00    -0.270 OA
ATOM      4  H5  UNL     1      20.560   5.277  31.254  0.00  0.00    +0.155 HD
ENDROOT
BRANCH   2   5
ATOM      5  C6  UNL     1      21.513   2.755  31.522  0.00  0.00    +0.080 A 
ATOM      6  C7  UNL     1      21.051   1.848  32.490  0.00  0.00    +0.017 A 
ATOM      7  C8  UNL     1      20.428   0.659  32.105  0.00  0.00    +0.003 A 
ATOM      8  C9  UNL     1      20.261   0.359  30.752  0.00  0.00    +0.027 A 
ATOM      9  C10 UNL     1      20.742   1.240  29.775  0.00  0.00    +0.076 A 
ATOM     10  C11 UNL     1      21.385   2.429  30.156  0.00  0.00    +0.155 A 
ATOM     11  O2  UNL     1      21.894   3.282  29.167  0.00  0.00    -0.477 OA
ATOM     12  C12 UNL     1      22.129   2.871  27.815  0.00  0.00    +0.256 C 
ATOM     13  C13 UNL     1      22.060   4.094  26.903  0.00  0.00    +0.062 C 
ATOM     14  C14 UNL     1      21.154   1.797  27.394  0.00  0.00    +0.258 C 
ATOM     15  O3  UNL     1      20.932   1.574  26.172  0.00  0.00    -0.271 OA
ATOM     16  N2  UNL     1      20.561   0.953  28.385  0.00  0.00    -0.280 N 
ATOM     17  H13 UNL     1      19.992   0.130  28.086  0.00  0.00    +0.155 HD
ENDBRANCH   2   5
BRANCH   1  21
ATOM     18  C1  UNL     1      24.025   9.482  30.806  0.00  0.00    +0.065 C 
ATOM     19  C2  UNL     1      23.256   8.605  31.742  0.00  0.00    +0.041 A 
ATOM     20  C3  UNL     1      22.724   7.378  31.290  0.00  0.00    +0.047 A 
ATOM     21  C4  UNL     1      22.010   6.543  32.178  0.00  0.00    +0.045 A 
ATOM     22  C15 UNL     1      21.891   6.960  33.512  0.00  0.00    +0.029 A 
ATOM     23  C16 UNL     1      21.248   6.291  34.563  0.00  0.00    +0.019 A 
ATOM     24  C17 UNL     1      21.307   6.996  35.766  0.00  0.00    +0.048 A 
ATOM     25  S1  UNL     1      22.152   8.442  35.530  0.00  0.00    -0.077 S 
ATOM     26  C18 UNL     1      22.438   8.168  33.903  0.00  0.00    +0.110 A 
ATOM     27  N3  UNL     1      23.106   8.977  33.047  0.00  0.00    -0.245 NA
ENDBRANCH   1  21
TORSDOF 2
ENDMDL
MODEL 9
REMARK VINA RESULT:    -6.220      7.899     12.582
REMARK INTER + INTRA:          -7.822
REMARK INTER:                  -6.959
REMARK INTRA:                  -0.863
REMARK UNBOUND:                -0.875
REMARK  Name = /home/qwerty/github/datacon2025hack/step_04_hit_selection/docking/ligands/lig_775.pdb
REMARK  4 active torsions:
REMARK  status: ('A' for Active; 'I' for Inactive)
REMARK    1  A    between atoms: C1_1  and  C2_2
REMARK    2  A    between atoms: C4_4  and  N1_5
REMARK    3  A    between atoms: C5_6  and  C6_8
REMARK    4  A    between atoms: C12_15  and  C13_16
REMARK                            x       y       z     vdW  Elec       q    Type
REMARK                         _______ _______ _______ _____ _____    ______ ____
ROOT
ATOM      1  N1  UNL     1      11.449  13.261  32.531  0.00  0.00    -0.281 N 
ATOM      2  C5  UNL     1      11.758  11.950  33.036  0.00  0.00    +0.252 C 
ATOM      3  O1  UNL     1      11.916  10.982  32.244  0.00  0.00    -0.270 OA
ATOM      4  H5  UNL     1      11.287  14.032  33.217  0.00  0.00    +0.155 HD
ENDROOT
BRANCH   2   5
ATOM      5  C6  UNL     1      11.901  11.719  34.487  0.00  0.00    +0.080 A 
ATOM      6  C7  UNL     1      10.872  11.065  35.185  0.00  0.00    +0.017 A 
ATOM      7  C8  UNL     1      10.995  10.812  36.553  0.00  0.00    +0.003 A 
ATOM      8  C9  UNL     1      12.140  11.213  37.242  0.00  0.00    +0.027 A 
ATOM      9  C10 UNL     1      13.161  11.893  36.566  0.00  0.00    +0.076 A 
ATOM     10  C11 UNL     1      13.037  12.165  35.194  0.00  0.00    +0.155 A 
ATOM     11  O2  UNL     1      14.051  12.879  34.540  0.00  0.00    -0.477 OA
ATOM     12  C12 UNL     1      15.033  13.663  35.228  0.00  0.00    +0.256 C 
ATOM     13  C13 UNL     1      16.285  13.765  34.360  0.00  0.00    +0.062 C 
ATOM     14  C14 UNL     1      15.336  13.085  36.590  0.00  0.00    +0.258 C 
ATOM     15  O3  UNL     1      16.409  13.374  37.186  0.00  0.00    -0.271 OA
ATOM     16  N2  UNL     1      14.350  12.293  37.256  0.00  0.00    -0.280 N 
ATOM     17  H13 UNL     1      14.505  12.004  38.248  0.00  0.00    +0.155 HD
ENDBRANCH   2   5
BRANCH   1  21
ATOM     18  C1  UNL     1       8.739  13.490  28.326  0.00  0.00    +0.065 C 
ATOM     19  C2  UNL     1      10.026  13.690  29.061  0.00  0.00    +0.041 A 
ATOM     20  C3  UNL     1      10.109  13.398  30.440  0.00  0.00    +0.047 A 
ATOM     21  C4  UNL     1      11.328  13.573  31.132  0.00  0.00    +0.045 A 
ATOM     22  C15 UNL     1      12.441  14.002  30.394  0.00  0.00    +0.029 A 
ATOM     23  C16 UNL     1      13.743  14.226  30.861  0.00  0.00    +0.019 A 
ATOM     24  C17 UNL     1      14.609  14.663  29.858  0.00  0.00    +0.048 A 
ATOM     25  S1  UNL     1      13.764  14.773  28.396  0.00  0.00    -0.077 S 
ATOM     26  C18 UNL     1      12.305  14.267  29.044  0.00  0.00    +0.110 A 
ATOM     27  N3  UNL     1      11.132  14.117  28.385  0.00  0.00    -0.245 NA
ENDBRANCH   1  21
TORSDOF 2
ENDMDL
