MODEL 1
REMARK VINA RESULT:    -5.856      0.000      0.000
REMARK INTER + INTRA:          -8.724
REMARK INTER:                  -7.910
REMARK INTRA:                  -0.815
REMARK UNBOUND:                -0.815
REMARK  Name = /home/qwerty/github/datacon2025hack/step_04_hit_selection/docking/ligands/lig_812.pdb
REMARK  8 active torsions:
REMARK  status: ('A' for Active; 'I' for Inactive)
REMARK    1  A    between atoms: C1_1  and  C2_2
REMARK    2  A    between atoms: C2_2  and  C3_3
REMARK    3  A    between atoms: C2_2  and  C4_4
REMARK    4  A    between atoms: C6_6  and  C7_7
REMARK    5  A    between atoms: N1_9  and  C8_10
REMARK    6  A    between atoms: C8_10  and  C9_11
REMARK    7  A    between atoms: C9_11  and  N2_12
REMARK    8  A    between atoms: C10_13  and  C11_15
REMARK                            x       y       z     vdW  Elec       q    Type
REMARK                         _______ _______ _______ _____ _____    ______ ____
ROOT
ATOM      1  C8  UNL     1      15.018   2.611  20.102  0.00  0.00    +0.051 C 
ATOM      2  C16 UNL     1      16.167   3.455  19.560  0.00  0.00    +0.029 C 
ATOM      3  C17 UNL     1      16.026   3.216  21.073  0.00  0.00    +0.029 C 
ENDROOT
BRANCH   1   6
ATOM      4  C7  UNL     1      12.603   3.101  21.050  0.00  0.00    +0.283 C 
ATOM      5  O1  UNL     1      12.698   2.335  22.045  0.00  0.00    -0.267 OA
ATOM      6  N1  UNL     1      13.673   3.229  20.090  0.00  0.00    -0.302 N 
ATOM      7  H9  UNL     1      13.477   3.848  19.271  0.00  0.00    +0.150 HD
BRANCH   4  10
ATOM      8  C4  UNL     1       9.313   4.578  20.904  0.00  0.00    +0.087 A 
ATOM      9  C5  UNL     1      10.111   3.535  21.336  0.00  0.00    +0.081 A 
ATOM     10  C6  UNL     1      11.364   3.874  20.869  0.00  0.00    +0.222 A 
ATOM     11  O3  UNL     1      11.282   5.015  20.226  0.00  0.00    -0.350 OA
ATOM     12  N4  UNL     1      10.062   5.469  20.226  0.00  0.00    -0.082 NA
BRANCH   8  14
ATOM     13  C1  UNL     1       7.471   4.374  22.579  0.00  0.00    +0.014 C 
ATOM     14  C2  UNL     1       7.834   4.732  21.134  0.00  0.00    +0.035 C 
ATOM     15  C3  UNL     1       7.378   6.154  20.790  0.00  0.00    +0.014 C 
ENDBRANCH   8  14
ENDBRANCH   4  10
ENDBRANCH   1   6
BRANCH   1  16
ATOM     16  C9  UNL     1      15.027   1.076  19.871  0.00  0.00    +0.130 C 
BRANCH  16  17
ATOM     17  N2  UNL     1      14.942   0.237  21.072  0.00  0.00    -0.309 N 
ATOM     18  C10 UNL     1      16.023  -0.639  21.430  0.00  0.00    +0.246 C 
ATOM     19  O2  UNL     1      16.970  -0.822  20.617  0.00  0.00    -0.270 OA
ATOM     20  H12 UNL     1      14.083   0.210  21.659  0.00  0.00    +0.149 HD
BRANCH  18  21
ATOM     21  C11 UNL     1      16.040  -1.346  22.733  0.00  0.00    +0.055 A 
ATOM     22  C12 UNL     1      17.149  -2.108  23.142  0.00  0.00    +0.016 A 
ATOM     23  C13 UNL     1      17.132  -2.769  24.371  0.00  0.00    +0.020 A 
ATOM     24  C14 UNL     1      16.004  -2.670  25.186  0.00  0.00    +0.111 A 
ATOM     25  N3  UNL     1      14.933  -1.940  24.779  0.00  0.00    -0.263 NA
ATOM     26  C15 UNL     1      14.923  -1.288  23.585  0.00  0.00    +0.123 A 
ENDBRANCH  18  21
ENDBRANCH  16  17
ENDBRANCH   1  16
TORSDOF 6
ENDMDL
MODEL 2
REMARK VINA RESULT:    -5.847      4.349      8.889
REMARK INTER + INTRA:          -8.713
REMARK INTER:                  -7.809
REMARK INTRA:                  -0.904
REMARK UNBOUND:                -0.815
REMARK  Name = /home/qwerty/github/datacon2025hack/step_04_hit_selection/docking/ligands/lig_812.pdb
REMARK  8 active torsions:
REMARK  status: ('A' for Active; 'I' for Inactive)
REMARK    1  A    between atoms: C1_1  and  C2_2
REMARK    2  A    between atoms: C2_2  and  C3_3
REMARK    3  A    between atoms: C2_2  and  C4_4
REMARK    4  A    between atoms: C6_6  and  C7_7
REMARK    5  A    between atoms: N1_9  and  C8_10
REMARK    6  A    between atoms: C8_10  and  C9_11
REMARK    7  A    between atoms: C9_11  and  N2_12
REMARK    8  A    between atoms: C10_13  and  C11_15
REMARK                            x       y       z     vdW  Elec       q    Type
REMARK                         _______ _______ _______ _____ _____    ______ ____
ROOT
ATOM      1  C8  UNL     1      17.372  -1.305  23.936  0.00  0.00    +0.051 C 
ATOM      2  C16 UNL     1      17.478  -2.448  24.940  0.00  0.00    +0.029 C 
ATOM      3  C17 UNL     1      16.403  -1.361  25.112  0.00  0.00    +0.029 C 
ENDROOT
BRANCH   1   6
ATOM      4  C7  UNL     1      18.269   1.173  24.097  0.00  0.00    +0.283 C 
ATOM      5  O1  UNL     1      17.136   1.722  24.066  0.00  0.00    -0.267 OA
ATOM      6  N1  UNL     1      18.417  -0.260  24.002  0.00  0.00    -0.302 N 
ATOM      7  H9  UNL     1      19.400  -0.614  23.983  0.00  0.00    +0.150 HD
BRANCH   4  10
ATOM      8  C4  UNL     1      21.343   2.910  24.843  0.00  0.00    +0.087 A 
ATOM      9  C5  UNL     1      20.482   1.872  25.144  0.00  0.00    +0.081 A 
ATOM     10  C6  UNL     1      19.463   2.023  24.226  0.00  0.00    +0.222 A 
ATOM     11  O3  UNL     1      19.727   3.062  23.468  0.00  0.00    -0.350 OA
ATOM     12  N4  UNL     1      20.851   3.622  23.810  0.00  0.00    -0.082 NA
BRANCH   8  14
ATOM     13  C1  UNL     1      22.939   4.732  25.455  0.00  0.00    +0.014 C 
ATOM     14  C2  UNL     1      22.639   3.232  25.537  0.00  0.00    +0.035 C 
ATOM     15  C3  UNL     1      22.604   2.759  26.994  0.00  0.00    +0.014 C 
ENDBRANCH   8  14
ENDBRANCH   4  10
ENDBRANCH   1   6
BRANCH   1  16
ATOM     16  C9  UNL     1      16.835  -1.594  22.508  0.00  0.00    +0.130 C 
BRANCH  16  17
ATOM     17  N2  UNL     1      16.640  -0.427  21.639  0.00  0.00    -0.309 N 
ATOM     18  C10 UNL     1      15.395   0.290  21.645  0.00  0.00    +0.246 C 
ATOM     19  O2  UNL     1      14.406  -0.188  22.265  0.00  0.00    -0.270 OA
ATOM     20  H12 UNL     1      17.368  -0.127  20.958  0.00  0.00    +0.149 HD
BRANCH  18  21
ATOM     21  C11 UNL     1      15.246   1.576  20.923  0.00  0.00    +0.055 A 
ATOM     22  C12 UNL     1      16.362   2.279  20.435  0.00  0.00    +0.016 A 
ATOM     23  C13 UNL     1      16.190   3.491  19.765  0.00  0.00    +0.020 A 
ATOM     24  C14 UNL     1      14.903   4.001  19.591  0.00  0.00    +0.111 A 
ATOM     25  N3  UNL     1      13.831   3.321  20.076  0.00  0.00    -0.263 NA
ATOM     26  C15 UNL     1      13.971   2.138  20.733  0.00  0.00    +0.123 A 
ENDBRANCH  18  21
ENDBRANCH  16  17
ENDBRANCH   1  16
TORSDOF 6
ENDMDL
MODEL 3
REMARK VINA RESULT:    -5.769     10.851     13.948
REMARK INTER + INTRA:          -8.607
REMARK INTER:                  -7.688
REMARK INTRA:                  -0.919
REMARK UNBOUND:                -0.815
REMARK  Name = /home/qwerty/github/datacon2025hack/step_04_hit_selection/docking/ligands/lig_812.pdb
REMARK  8 active torsions:
REMARK  status: ('A' for Active; 'I' for Inactive)
REMARK    1  A    between atoms: C1_1  and  C2_2
REMARK    2  A    between atoms: C2_2  and  C3_3
REMARK    3  A    between atoms: C2_2  and  C4_4
REMARK    4  A    between atoms: C6_6  and  C7_7
REMARK    5  A    between atoms: N1_9  and  C8_10
REMARK    6  A    between atoms: C8_10  and  C9_11
REMARK    7  A    between atoms: C9_11  and  N2_12
REMARK    8  A    between atoms: C10_13  and  C11_15
REMARK                            x       y       z     vdW  Elec       q    Type
REMARK                         _______ _______ _______ _____ _____    ______ ____
ROOT
ATOM      1  C8  UNL     1      20.332   0.874  31.739  0.00  0.00    +0.051 C 
ATOM      2  C16 UNL     1      19.558  -0.065  32.658  0.00  0.00    +0.029 C 
ATOM      3  C17 UNL     1      18.809   0.939  31.766  0.00  0.00    +0.029 C 
ENDROOT
BRANCH   1   6
ATOM      4  C7  UNL     1      21.232   3.351  31.907  0.00  0.00    +0.283 C 
ATOM      5  O1  UNL     1      20.828   3.711  30.770  0.00  0.00    -0.267 OA
ATOM      6  N1  UNL     1      21.043   2.001  32.383  0.00  0.00    -0.302 N 
ATOM      7  H9  UNL     1      21.462   1.786  33.316  0.00  0.00    +0.150 HD
BRANCH   4  10
ATOM      8  C4  UNL     1      22.409   5.828  34.253  0.00  0.00    +0.087 A 
ATOM      9  C5  UNL     1      21.356   5.066  33.785  0.00  0.00    +0.081 A 
ATOM     10  C6  UNL     1      21.919   4.335  32.758  0.00  0.00    +0.222 A 
ATOM     11  O3  UNL     1      23.187   4.658  32.655  0.00  0.00    -0.350 OA
ATOM     12  N4  UNL     1      23.519   5.554  33.538  0.00  0.00    -0.082 NA
BRANCH   8  14
ATOM     13  C1  UNL     1      23.399   6.464  36.456  0.00  0.00    +0.014 C 
ATOM     14  C2  UNL     1      22.367   6.821  35.383  0.00  0.00    +0.035 C 
ATOM     15  C3  UNL     1      22.589   8.245  34.860  0.00  0.00    +0.014 C 
ENDBRANCH   8  14
ENDBRANCH   4  10
ENDBRANCH   1   6
BRANCH   1  16
ATOM     16  C9  UNL     1      21.036   0.298  30.481  0.00  0.00    +0.130 C 
BRANCH  16  17
ATOM     17  N2  UNL     1      20.800   1.012  29.220  0.00  0.00    -0.309 N 
ATOM     18  C10 UNL     1      21.901   1.404  28.385  0.00  0.00    +0.246 C 
ATOM     19  O2  UNL     1      23.081   1.296  28.820  0.00  0.00    -0.270 OA
ATOM     20  H12 UNL     1      19.844   1.303  28.929  0.00  0.00    +0.149 HD
BRANCH  18  21
ATOM     21  C11 UNL     1      21.678   1.949  27.025  0.00  0.00    +0.055 A 
ATOM     22  C12 UNL     1      22.482   2.979  26.504  0.00  0.00    +0.016 A 
ATOM     23  C13 UNL     1      22.242   3.478  25.223  0.00  0.00    +0.020 A 
ATOM     24  C14 UNL     1      21.195   2.950  24.468  0.00  0.00    +0.111 A 
ATOM     25  N3  UNL     1      20.416   1.962  24.982  0.00  0.00    -0.263 NA
ATOM     26  C15 UNL     1      20.628   1.459  26.229  0.00  0.00    +0.123 A 
ENDBRANCH  18  21
ENDBRANCH  16  17
ENDBRANCH   1  16
TORSDOF 6
ENDMDL
MODEL 4
REMARK VINA RESULT:    -5.724     14.341     16.933
REMARK INTER + INTRA:          -8.546
REMARK INTER:                  -7.712
REMARK INTRA:                  -0.834
REMARK UNBOUND:                -0.815
REMARK  Name = /home/qwerty/github/datacon2025hack/step_04_hit_selection/docking/ligands/lig_812.pdb
REMARK  8 active torsions:
REMARK  status: ('A' for Active; 'I' for Inactive)
REMARK    1  A    between atoms: C1_1  and  C2_2
REMARK    2  A    between atoms: C2_2  and  C3_3
REMARK    3  A    between atoms: C2_2  and  C4_4
REMARK    4  A    between atoms: C6_6  and  C7_7
REMARK    5  A    between atoms: N1_9  and  C8_10
REMARK    6  A    between atoms: C8_10  and  C9_11
REMARK    7  A    between atoms: C9_11  and  N2_12
REMARK    8  A    between atoms: C10_13  and  C11_15
REMARK                            x       y       z     vdW  Elec       q    Type
REMARK                         _______ _______ _______ _____ _____    ______ ____
ROOT
ATOM      1  C8  UNL     1      24.055   6.104  33.871  0.00  0.00    +0.051 C 
ATOM      2  C16 UNL     1      25.472   6.229  33.320  0.00  0.00    +0.029 C 
ATOM      3  C17 UNL     1      24.330   7.069  32.723  0.00  0.00    +0.029 C 
ENDROOT
BRANCH   1   6
ATOM      4  C7  UNL     1      21.910   4.711  33.218  0.00  0.00    +0.283 C 
ATOM      5  O1  UNL     1      21.105   5.677  33.285  0.00  0.00    -0.267 OA
ATOM      6  N1  UNL     1      23.312   4.873  33.524  0.00  0.00    -0.302 N 
ATOM      7  H9  UNL     1      23.886   4.001  33.492  0.00  0.00    +0.150 HD
BRANCH   4  10
ATOM      8  C4  UNL     1      20.764   1.635  31.718  0.00  0.00    +0.087 A 
ATOM      9  C5  UNL     1      21.299   2.897  31.540  0.00  0.00    +0.081 A 
ATOM     10  C6  UNL     1      21.397   3.389  32.825  0.00  0.00    +0.222 A 
ATOM     11  O3  UNL     1      20.954   2.480  33.662  0.00  0.00    -0.350 OA
ATOM     12  N4  UNL     1      20.564   1.410  33.032  0.00  0.00    -0.082 NA
BRANCH   8  14
ATOM     13  C1  UNL     1      19.207   1.077  29.847  0.00  0.00    +0.014 C 
ATOM     14  C2  UNL     1      20.441   0.636  30.640  0.00  0.00    +0.035 C 
ATOM     15  C3  UNL     1      21.644   0.431  29.714  0.00  0.00    +0.014 C 
ENDBRANCH   8  14
ENDBRANCH   4  10
ENDBRANCH   1   6
BRANCH   1  16
ATOM     16  C9  UNL     1      23.732   6.682  35.275  0.00  0.00    +0.130 C 
BRANCH  16  17
ATOM     17  N2  UNL     1      22.548   7.546  35.365  0.00  0.00    -0.309 N 
ATOM     18  C10 UNL     1      21.806   7.643  36.592  0.00  0.00    +0.246 C 
ATOM     19  O2  UNL     1      22.064   6.850  37.539  0.00  0.00    -0.270 OA
ATOM     20  H12 UNL     1      22.182   8.059  34.537  0.00  0.00    +0.149 HD
BRANCH  18  21
ATOM     21  C11 UNL     1      20.730   8.648  36.761  0.00  0.00    +0.055 A 
ATOM     22  C12 UNL     1      19.649   8.429  37.634  0.00  0.00    +0.016 A 
ATOM     23  C13 UNL     1      18.647   9.391  37.766  0.00  0.00    +0.020 A 
ATOM     24  C14 UNL     1      18.725  10.568  37.022  0.00  0.00    +0.111 A 
ATOM     25  N3  UNL     1      19.767  10.767  36.173  0.00  0.00    -0.263 NA
ATOM     26  C15 UNL     1      20.756   9.845  36.024  0.00  0.00    +0.123 A 
ENDBRANCH  18  21
ENDBRANCH  16  17
ENDBRANCH   1  16
TORSDOF 6
ENDMDL
MODEL 5
REMARK VINA RESULT:    -5.670      7.574     10.431
REMARK INTER + INTRA:          -8.474
REMARK INTER:                  -7.456
REMARK INTRA:                  -1.018
REMARK UNBOUND:                -0.815
REMARK  Name = /home/qwerty/github/datacon2025hack/step_04_hit_selection/docking/ligands/lig_812.pdb
REMARK  8 active torsions:
REMARK  status: ('A' for Active; 'I' for Inactive)
REMARK    1  A    between atoms: C1_1  and  C2_2
REMARK    2  A    between atoms: C2_2  and  C3_3
REMARK    3  A    between atoms: C2_2  and  C4_4
REMARK    4  A    between atoms: C6_6  and  C7_7
REMARK    5  A    between atoms: N1_9  and  C8_10
REMARK    6  A    between atoms: C8_10  and  C9_11
REMARK    7  A    between atoms: C9_11  and  N2_12
REMARK    8  A    between atoms: C10_13  and  C11_15
REMARK                            x       y       z     vdW  Elec       q    Type
REMARK                         _______ _______ _______ _____ _____    ______ ____
ROOT
ATOM      1  C8  UNL     1      21.770   2.527  26.709  0.00  0.00    +0.051 C 
ATOM      2  C16 UNL     1      22.520   3.158  25.541  0.00  0.00    +0.029 C 
ATOM      3  C17 UNL     1      21.571   4.007  26.404  0.00  0.00    +0.029 C 
ENDROOT
BRANCH   1   6
ATOM      4  C7  UNL     1      19.331   1.552  26.977  0.00  0.00    +0.283 C 
ATOM      5  O1  UNL     1      19.023   2.250  27.979  0.00  0.00    -0.267 OA
ATOM      6  N1  UNL     1      20.640   1.634  26.372  0.00  0.00    -0.302 N 
ATOM      7  H9  UNL     1      20.815   0.975  25.580  0.00  0.00    +0.150 HD
BRANCH   4  10
ATOM      8  C4  UNL     1      17.221  -0.752  25.169  0.00  0.00    +0.087 A 
ATOM      9  C5  UNL     1      18.389  -0.014  25.204  0.00  0.00    +0.081 A 
ATOM     10  C6  UNL     1      18.328   0.628  26.424  0.00  0.00    +0.222 A 
ATOM     11  O3  UNL     1      17.217   0.281  27.030  0.00  0.00    -0.350 OA
ATOM     12  N4  UNL     1      16.524  -0.548  26.305  0.00  0.00    -0.082 NA
BRANCH   8  14
ATOM     13  C1  UNL     1      17.220  -1.114  22.698  0.00  0.00    +0.014 C 
ATOM     14  C2  UNL     1      16.761  -1.654  24.056  0.00  0.00    +0.035 C 
ATOM     15  C3  UNL     1      17.265  -3.084  24.276  0.00  0.00    +0.014 C 
ENDBRANCH   8  14
ENDBRANCH   4  10
ENDBRANCH   1   6
BRANCH   1  16
ATOM     16  C9  UNL     1      22.554   2.124  27.987  0.00  0.00    +0.130 C 
BRANCH  16  17
ATOM     17  N2  UNL     1      21.927   2.466  29.270  0.00  0.00    -0.309 N 
ATOM     18  C10 UNL     1      21.533   1.435  30.189  0.00  0.00    +0.246 C 
ATOM     19  O2  UNL     1      21.560   0.229  29.820  0.00  0.00    -0.270 OA
ATOM     20  H12 UNL     1      21.699   3.450  29.520  0.00  0.00    +0.149 HD
BRANCH  18  21
ATOM     21  C11 UNL     1      21.078   1.762  31.562  0.00  0.00    +0.055 A 
ATOM     22  C12 UNL     1      21.790   2.660  32.377  0.00  0.00    +0.016 A 
ATOM     23  C13 UNL     1      21.341   2.942  33.669  0.00  0.00    +0.020 A 
ATOM     24  C14 UNL     1      20.185   2.323  34.142  0.00  0.00    +0.111 A 
ATOM     25  N3  UNL     1      19.509   1.449  33.351  0.00  0.00    -0.263 NA
ATOM     26  C15 UNL     1      19.925   1.155  32.090  0.00  0.00    +0.123 A 
ENDBRANCH  18  21
ENDBRANCH  16  17
ENDBRANCH   1  16
TORSDOF 6
ENDMDL
MODEL 6
REMARK VINA RESULT:    -5.669     12.277     15.418
REMARK INTER + INTRA:          -8.473
REMARK INTER:                  -7.384
REMARK INTRA:                  -1.089
REMARK UNBOUND:                -0.815
REMARK  Name = /home/qwerty/github/datacon2025hack/step_04_hit_selection/docking/ligands/lig_812.pdb
REMARK  8 active torsions:
REMARK  status: ('A' for Active; 'I' for Inactive)
REMARK    1  A    between atoms: C1_1  and  C2_2
REMARK    2  A    between atoms: C2_2  and  C3_3
REMARK    3  A    between atoms: C2_2  and  C4_4
REMARK    4  A    between atoms: C6_6  and  C7_7
REMARK    5  A    between atoms: N1_9  and  C8_10
REMARK    6  A    between atoms: C8_10  and  C9_11
REMARK    7  A    between atoms: C9_11  and  N2_12
REMARK    8  A    between atoms: C10_13  and  C11_15
REMARK                            x       y       z     vdW  Elec       q    Type
REMARK                         _______ _______ _______ _____ _____    ______ ____
ROOT
ATOM      1  C8  UNL     1      18.568   3.398  34.586  0.00  0.00    +0.051 C 
ATOM      2  C16 UNL     1      17.215   2.860  35.037  0.00  0.00    +0.029 C 
ATOM      3  C17 UNL     1      18.484   2.551  35.851  0.00  0.00    +0.029 C 
ENDROOT
BRANCH   1   6
ATOM      4  C7  UNL     1      20.549   2.321  33.212  0.00  0.00    +0.283 C 
ATOM      5  O1  UNL     1      21.437   2.535  34.079  0.00  0.00    -0.267 OA
ATOM      6  N1  UNL     1      19.184   2.750  33.407  0.00  0.00    -0.302 N 
ATOM      7  H9  UNL     1      18.535   2.574  32.607  0.00  0.00    +0.150 HD
BRANCH   4  10
ATOM      8  C4  UNL     1      21.857   1.030  30.106  0.00  0.00    +0.087 A 
ATOM      9  C5  UNL     1      21.908   2.007  31.082  0.00  0.00    +0.081 A 
ATOM     10  C6  UNL     1      20.925   1.624  31.971  0.00  0.00    +0.222 A 
ATOM     11  O3  UNL     1      20.364   0.521  31.534  0.00  0.00    -0.350 OA
ATOM     12  N4  UNL     1      20.899   0.133  30.413  0.00  0.00    -0.082 NA
BRANCH   8  14
ATOM     13  C1  UNL     1      22.525   2.179  27.991  0.00  0.00    +0.014 C 
ATOM     14  C2  UNL     1      22.719   0.944  28.875  0.00  0.00    +0.035 C 
ATOM     15  C3  UNL     1      24.193   0.770  29.259  0.00  0.00    +0.014 C 
ENDBRANCH   8  14
ENDBRANCH   4  10
ENDBRANCH   1   6
BRANCH   1  16
ATOM     16  C9  UNL     1      18.866   4.916  34.719  0.00  0.00    +0.130 C 
BRANCH  16  17
ATOM     17  N2  UNL     1      20.277   5.311  34.638  0.00  0.00    -0.309 N 
ATOM     18  C10 UNL     1      20.831   5.796  33.403  0.00  0.00    +0.246 C 
ATOM     19  O2  UNL     1      20.152   5.714  32.343  0.00  0.00    -0.270 OA
ATOM     20  H12 UNL     1      20.923   5.196  35.445  0.00  0.00    +0.149 HD
BRANCH  18  21
ATOM     21  C11 UNL     1      22.193   6.378  33.349  0.00  0.00    +0.055 A 
ATOM     22  C12 UNL     1      23.288   5.642  32.863  0.00  0.00    +0.016 A 
ATOM     23  C13 UNL     1      24.561   6.215  32.831  0.00  0.00    +0.020 A 
ATOM     24  C14 UNL     1      24.736   7.520  33.291  0.00  0.00    +0.111 A 
ATOM     25  N3  UNL     1      23.674   8.220  33.769  0.00  0.00    -0.263 NA
ATOM     26  C15 UNL     1      22.424   7.686  33.813  0.00  0.00    +0.123 A 
ENDBRANCH  18  21
ENDBRANCH  16  17
ENDBRANCH   1  16
TORSDOF 6
ENDMDL
MODEL 7
REMARK VINA RESULT:    -5.619     12.655     15.584
REMARK INTER + INTRA:          -8.404
REMARK INTER:                  -7.476
REMARK INTRA:                  -0.928
REMARK UNBOUND:                -0.815
REMARK  Name = /home/qwerty/github/datacon2025hack/step_04_hit_selection/docking/ligands/lig_812.pdb
REMARK  8 active torsions:
REMARK  status: ('A' for Active; 'I' for Inactive)
REMARK    1  A    between atoms: C1_1  and  C2_2
REMARK    2  A    between atoms: C2_2  and  C3_3
REMARK    3  A    between atoms: C2_2  and  C4_4
REMARK    4  A    between atoms: C6_6  and  C7_7
REMARK    5  A    between atoms: N1_9  and  C8_10
REMARK    6  A    between atoms: C8_10  and  C9_11
REMARK    7  A    between atoms: C9_11  and  N2_12
REMARK    8  A    between atoms: C10_13  and  C11_15
REMARK                            x       y       z     vdW  Elec       q    Type
REMARK                         _______ _______ _______ _____ _____    ______ ____
ROOT
ATOM      1  C8  UNL     1      11.916  14.419  28.366  0.00  0.00    +0.051 C 
ATOM      2  C16 UNL     1      12.926  15.267  27.601  0.00  0.00    +0.029 C 
ATOM      3  C17 UNL     1      13.108  13.742  27.697  0.00  0.00    +0.029 C 
ENDROOT
BRANCH   1   6
ATOM      4  C7  UNL     1      11.792  13.452  30.820  0.00  0.00    +0.283 C 
ATOM      5  O1  UNL     1      11.506  12.274  30.479  0.00  0.00    -0.267 OA
ATOM      6  N1  UNL     1      11.959  14.502  29.843  0.00  0.00    -0.302 N 
ATOM      7  H9  UNL     1      12.141  15.456  30.229  0.00  0.00    +0.150 HD
BRANCH   4  10
ATOM      8  C4  UNL     1      11.667  13.943  34.394  0.00  0.00    +0.087 A 
ATOM      9  C5  UNL     1      11.055  13.450  33.257  0.00  0.00    +0.081 A 
ATOM     10  C6  UNL     1      11.948  13.756  32.251  0.00  0.00    +0.222 A 
ATOM     11  O3  UNL     1      12.982  14.372  32.776  0.00  0.00    -0.350 OA
ATOM     12  N4  UNL     1      12.848  14.503  34.064  0.00  0.00    -0.082 NA
BRANCH   8  14
ATOM     13  C1  UNL     1       9.673  14.347  35.843  0.00  0.00    +0.014 C 
ATOM     14  C2  UNL     1      11.133  13.884  35.799  0.00  0.00    +0.035 C 
ATOM     15  C3  UNL     1      11.277  12.471  36.374  0.00  0.00    +0.014 C 
ENDBRANCH   8  14
ENDBRANCH   4  10
ENDBRANCH   1   6
BRANCH   1  16
ATOM     16  C9  UNL     1      10.499  14.202  27.771  0.00  0.00    +0.130 C 
BRANCH  16  17
ATOM     17  N2  UNL     1      10.026  12.814  27.708  0.00  0.00    -0.309 N 
ATOM     18  C10 UNL     1       8.746  12.452  28.255  0.00  0.00    +0.246 C 
ATOM     19  O2  UNL     1       8.108  13.291  28.948  0.00  0.00    -0.270 OA
ATOM     20  H12 UNL     1      10.621  12.051  27.326  0.00  0.00    +0.149 HD
BRANCH  18  21
ATOM     21  C11 UNL     1       8.169  11.105  28.033  0.00  0.00    +0.055 A 
ATOM     22  C12 UNL     1       8.251  10.468  26.782  0.00  0.00    +0.016 A 
ATOM     23  C13 UNL     1       7.691   9.202  26.601  0.00  0.00    +0.020 A 
ATOM     24  C14 UNL     1       7.046   8.580  27.670  0.00  0.00    +0.111 A 
ATOM     25  N3  UNL     1       6.961   9.208  28.872  0.00  0.00    -0.263 NA
ATOM     26  C15 UNL     1       7.497  10.442  29.075  0.00  0.00    +0.123 A 
ENDBRANCH  18  21
ENDBRANCH  16  17
ENDBRANCH   1  16
TORSDOF 6
ENDMDL
MODEL 8
REMARK VINA RESULT:    -5.534      9.388     13.126
REMARK INTER + INTRA:          -8.290
REMARK INTER:                  -7.319
REMARK INTRA:                  -0.971
REMARK UNBOUND:                -0.815
REMARK  Name = /home/qwerty/github/datacon2025hack/step_04_hit_selection/docking/ligands/lig_812.pdb
REMARK  8 active torsions:
REMARK  status: ('A' for Active; 'I' for Inactive)
REMARK    1  A    between atoms: C1_1  and  C2_2
REMARK    2  A    between atoms: C2_2  and  C3_3
REMARK    3  A    between atoms: C2_2  and  C4_4
REMARK    4  A    between atoms: C6_6  and  C7_7
REMARK    5  A    between atoms: N1_9  and  C8_10
REMARK    6  A    between atoms: C8_10  and  C9_11
REMARK    7  A    between atoms: C9_11  and  N2_12
REMARK    8  A    between atoms: C10_13  and  C11_15
REMARK                            x       y       z     vdW  Elec       q    Type
REMARK                         _______ _______ _______ _____ _____    ______ ____
ROOT
ATOM      1  C8  UNL     1       8.280  11.219  28.262  0.00  0.00    +0.051 C 
ATOM      2  C16 UNL     1       7.436  10.472  29.290  0.00  0.00    +0.029 C 
ATOM      3  C17 UNL     1       8.971  10.471  29.397  0.00  0.00    +0.029 C 
ENDROOT
BRANCH   1   6
ATOM      4  C7  UNL     1       9.549  10.476  26.070  0.00  0.00    +0.283 C 
ATOM      5  O1  UNL     1      10.663  10.966  26.394  0.00  0.00    -0.267 OA
ATOM      6  N1  UNL     1       8.389  10.609  26.919  0.00  0.00    -0.302 N 
ATOM      7  H9  UNL     1       7.499  10.216  26.536  0.00  0.00    +0.150 HD
BRANCH   4  10
ATOM      8  C4  UNL     1       9.653   9.105  22.733  0.00  0.00    +0.087 A 
ATOM      9  C5  UNL     1      10.101  10.067  23.618  0.00  0.00    +0.081 A 
ATOM     10  C6  UNL     1       9.438   9.760  24.789  0.00  0.00    +0.222 A 
ATOM     11  O3  UNL     1       8.677   8.711  24.582  0.00  0.00    -0.350 OA
ATOM     12  N4  UNL     1       8.780   8.288  23.356  0.00  0.00    -0.082 NA
BRANCH   8  14
ATOM     13  C1  UNL     1       9.342   7.759  20.652  0.00  0.00    +0.014 C 
ATOM     14  C2  UNL     1      10.052   8.957  21.289  0.00  0.00    +0.035 C 
ATOM     15  C3  UNL     1       9.759  10.245  20.513  0.00  0.00    +0.014 C 
ENDBRANCH   8  14
ENDBRANCH   4  10
ENDBRANCH   1   6
BRANCH   1  16
ATOM     16  C9  UNL     1       8.290  12.772  28.271  0.00  0.00    +0.130 C 
BRANCH  16  17
ATOM     17  N2  UNL     1       9.539  13.416  27.845  0.00  0.00    -0.309 N 
ATOM     18  C10 UNL     1      10.534  13.792  28.811  0.00  0.00    +0.246 C 
ATOM     19  O2  UNL     1      10.259  13.734  30.041  0.00  0.00    -0.270 OA
ATOM     20  H12 UNL     1       9.710  13.669  26.850  0.00  0.00    +0.149 HD
BRANCH  18  21
ATOM     21  C11 UNL     1      11.874  14.264  28.389  0.00  0.00    +0.055 A 
ATOM     22  C12 UNL     1      12.178  14.499  27.036  0.00  0.00    +0.016 A 
ATOM     23  C13 UNL     1      13.452  14.936  26.668  0.00  0.00    +0.020 A 
ATOM     24  C14 UNL     1      14.420  15.131  27.654  0.00  0.00    +0.111 A 
ATOM     25  N3  UNL     1      14.121  14.891  28.957  0.00  0.00    -0.263 NA
ATOM     26  C15 UNL     1      12.888  14.464  29.342  0.00  0.00    +0.123 A 
ENDBRANCH  18  21
ENDBRANCH  16  17
ENDBRANCH   1  16
TORSDOF 6
ENDMDL
MODEL 9
REMARK VINA RESULT:    -5.404     13.552     16.302
REMARK INTER + INTRA:          -8.114
REMARK INTER:                  -7.348
REMARK INTRA:                  -0.766
REMARK UNBOUND:                -0.815
REMARK  Name = /home/qwerty/github/datacon2025hack/step_04_hit_selection/docking/ligands/lig_812.pdb
REMARK  8 active torsions:
REMARK  status: ('A' for Active; 'I' for Inactive)
REMARK    1  A    between atoms: C1_1  and  C2_2
REMARK    2  A    between atoms: C2_2  and  C3_3
REMARK    3  A    between atoms: C2_2  and  C4_4
REMARK    4  A    between atoms: C6_6  and  C7_7
REMARK    5  A    between atoms: N1_9  and  C8_10
REMARK    6  A    between atoms: C8_10  and  C9_11
REMARK    7  A    between atoms: C9_11  and  N2_12
REMARK    8  A    between atoms: C10_13  and  C11_15
REMARK                            x       y       z     vdW  Elec       q    Type
REMARK                         _______ _______ _______ _____ _____    ______ ____
ROOT
ATOM      1  C8  UNL     1      12.354  14.209  29.545  0.00  0.00    +0.051 C 
ATOM      2  C16 UNL     1      13.498  14.871  28.784  0.00  0.00    +0.029 C 
ATOM      3  C17 UNL     1      13.440  13.340  28.919  0.00  0.00    +0.029 C 
ENDROOT
BRANCH   1   6
ATOM      4  C7  UNL     1      11.950  13.369  32.015  0.00  0.00    +0.283 C 
ATOM      5  O1  UNL     1      11.407  12.280  31.693  0.00  0.00    -0.267 OA
ATOM      6  N1  UNL     1      12.380  14.323  31.020  0.00  0.00    -0.302 N 
ATOM      7  H9  UNL     1      12.769  15.220  31.389  0.00  0.00    +0.150 HD
BRANCH   4  10
ATOM      8  C4  UNL     1      12.974  14.058  35.407  0.00  0.00    +0.087 A 
ATOM      9  C5  UNL     1      13.345  13.759  34.110  0.00  0.00    +0.081 A 
ATOM     10  C6  UNL     1      12.140  13.670  33.443  0.00  0.00    +0.222 A 
ATOM     11  O3  UNL     1      11.167  13.899  34.294  0.00  0.00    -0.350 OA
ATOM     12  N4  UNL     1      11.631  14.136  35.487  0.00  0.00    -0.082 NA
BRANCH   8  14
ATOM     13  C1  UNL     1      14.783  13.041  36.796  0.00  0.00    +0.014 C 
ATOM     14  C2  UNL     1      13.895  14.269  36.578  0.00  0.00    +0.035 C 
ATOM     15  C3  UNL     1      14.743  15.530  36.378  0.00  0.00    +0.014 C 
ENDBRANCH   8  14
ENDBRANCH   4  10
ENDBRANCH   1   6
BRANCH   1  16
ATOM     16  C9  UNL     1      10.932  14.197  28.921  0.00  0.00    +0.130 C 
BRANCH  16  17
ATOM     17  N2  UNL     1      10.195  12.930  29.007  0.00  0.00    -0.309 N 
ATOM     18  C10 UNL     1       8.939  12.767  28.328  0.00  0.00    +0.246 C 
ATOM     19  O2  UNL     1       8.381  13.771  27.805  0.00  0.00    -0.270 OA
ATOM     20  H12 UNL     1      10.528  12.145  29.604  0.00  0.00    +0.149 HD
BRANCH  18  21
ATOM     21  C11 UNL     1       8.277  11.444  28.244  0.00  0.00    +0.055 A 
ATOM     22  C12 UNL     1       7.670  10.853  29.366  0.00  0.00    +0.016 A 
ATOM     23  C13 UNL     1       7.061   9.601  29.258  0.00  0.00    +0.020 A 
ATOM     24  C14 UNL     1       7.067   8.942  28.029  0.00  0.00    +0.111 A 
ATOM     25  N3  UNL     1       7.665   9.515  26.952  0.00  0.00    -0.263 NA
ATOM     26  C15 UNL     1       8.267  10.733  27.031  0.00  0.00    +0.123 A 
ENDBRANCH  18  21
ENDBRANCH  16  17
ENDBRANCH   1  16
TORSDOF 6
ENDMDL
