MODEL 1
REMARK VINA RESULT:    -6.122      0.000      0.000
REMARK INTER + INTRA:          -8.816
REMARK INTER:                  -7.912
REMARK INTRA:                  -0.905
REMARK UNBOUND:                -0.905
REMARK  Name = /home/qwerty/github/datacon2025hack/step_04_hit_selection/docking/ligands/lig_31.pdb
REMARK  8 active torsions:
REMARK  status: ('A' for Active; 'I' for Inactive)
REMARK    1  A    between atoms: C1_1  and  O1_2
REMARK    2  A    between atoms: O1_2  and  C2_3
REMARK    3  A    between atoms: C4_5  and  C5_6
REMARK    4  A    between atoms: C9_12  and  C10_13
REMARK    5  A    between atoms: C19_24  and  O3_25
REMARK    6  A    between atoms: O3_25  and  C20_26
REMARK    7  A    between atoms: C21_27  and  O4_28
REMARK    8  A    between atoms: O4_28  and  C22_29
REMARK                            x       y       z     vdW  Elec       q    Type
REMARK                         _______ _______ _______ _____ _____    ______ ____
ROOT
ATOM      1  C5  UNL     1      21.187   1.315  29.753  0.00  0.00    +0.247 C 
ATOM      2  O2  UNL     1      21.247   0.139  30.194  0.00  0.00    -0.270 OA
ATOM      3  N1  UNL     1      21.229   2.409  30.685  0.00  0.00    -0.297 N 
ATOM      4  C6  UNL     1      22.524   2.770  31.272  0.00  0.00    +0.108 C 
ATOM      5  C7  UNL     1      22.347   3.398  32.660  0.00  0.00    +0.020 C 
ATOM      6  C8  UNL     1      21.291   4.508  32.635  0.00  0.00    +0.013 C 
ATOM      7  C9  UNL     1      19.947   4.011  32.075  0.00  0.00    +0.062 C 
ATOM      8  C17 UNL     1      20.145   3.401  30.678  0.00  0.00    +0.118 C 
ENDROOT
BRANCH   7   9
ATOM      9  C10 UNL     1      19.278   3.052  33.025  0.00  0.00    +0.083 A 
ATOM     10  N2  UNL     1      19.167   3.256  34.362  0.00  0.00    -0.248 NA
ATOM     11  C11 UNL     1      18.451   2.271  34.963  0.00  0.00    +0.052 A 
ATOM     12  C12 UNL     1      17.946   1.307  34.100  0.00  0.00    +0.013 A 
ATOM     13  S1  UNL     1      18.456   1.661  32.538  0.00  0.00    -0.076 S 
ATOM     14  C13 UNL     1      17.182   0.094  34.538  0.00  0.00    +0.044 C 
ATOM     15  C14 UNL     1      16.601   0.294  35.948  0.00  0.00    +0.006 C 
ATOM     16  C15 UNL     1      17.649   0.895  36.905  0.00  0.00    +0.006 C 
ATOM     17  C16 UNL     1      18.118   2.284  36.427  0.00  0.00    +0.056 C 
ENDBRANCH   7   9
BRANCH   1  20
ATOM     18  C2  UNL     1      19.791   1.325  26.215  0.00  0.00    +0.166 A 
ATOM     19  C3  UNL     1      19.942   1.087  27.594  0.00  0.00    +0.062 A 
ATOM     20  C4  UNL     1      21.064   1.554  28.293  0.00  0.00    +0.044 A 
ATOM     21  C18 UNL     1      22.065   2.236  27.593  0.00  0.00    +0.062 A 
ATOM     22  C19 UNL     1      21.932   2.498  26.219  0.00  0.00    +0.166 A 
ATOM     23  C21 UNL     1      20.790   2.060  25.528  0.00  0.00    +0.204 A 
BRANCH  18  25
ATOM     24  C1  UNL     1      18.557  -0.494  25.009  0.00  0.00    +0.277 C 
ATOM     25  O1  UNL     1      18.679   0.831  25.516  0.00  0.00    -0.491 OA
ENDBRANCH  18  25
BRANCH  22  26
ATOM     26  O3  UNL     1      22.915   3.199  25.501  0.00  0.00    -0.491 OA
ATOM     27  C20 UNL     1      23.052   4.621  25.493  0.00  0.00    +0.277 C 
ENDBRANCH  22  26
BRANCH  23  28
ATOM     28  O4  UNL     1      20.716   2.385  24.160  0.00  0.00    -0.488 OA
ATOM     29  C22 UNL     1      19.982   3.459  23.586  0.00  0.00    +0.277 C 
ENDBRANCH  23  28
ENDBRANCH   1  20
TORSDOF 5
ENDMDL
MODEL 2
REMARK VINA RESULT:    -6.036     13.381     15.175
REMARK INTER + INTRA:          -8.705
REMARK INTER:                  -7.834
REMARK INTRA:                  -0.872
REMARK UNBOUND:                -0.905
REMARK  Name = /home/qwerty/github/datacon2025hack/step_04_hit_selection/docking/ligands/lig_31.pdb
REMARK  8 active torsions:
REMARK  status: ('A' for Active; 'I' for Inactive)
REMARK    1  A    between atoms: C1_1  and  O1_2
REMARK    2  A    between atoms: O1_2  and  C2_3
REMARK    3  A    between atoms: C4_5  and  C5_6
REMARK    4  A    between atoms: C9_12  and  C10_13
REMARK    5  A    between atoms: C19_24  and  O3_25
REMARK    6  A    between atoms: O3_25  and  C20_26
REMARK    7  A    between atoms: C21_27  and  O4_28
REMARK    8  A    between atoms: O4_28  and  C22_29
REMARK                            x       y       z     vdW  Elec       q    Type
REMARK                         _______ _______ _______ _____ _____    ______ ____
ROOT
ATOM      1  C5  UNL     1      10.052  13.046  28.438  0.00  0.00    +0.247 C 
ATOM      2  O2  UNL     1       9.901  14.116  27.793  0.00  0.00    -0.270 OA
ATOM      3  N1  UNL     1      10.959  13.030  29.553  0.00  0.00    -0.297 N 
ATOM      4  C6  UNL     1      10.521  13.643  30.811  0.00  0.00    +0.108 C 
ATOM      5  C7  UNL     1      11.716  14.169  31.616  0.00  0.00    +0.020 C 
ATOM      6  C8  UNL     1      12.813  13.106  31.736  0.00  0.00    +0.013 C 
ATOM      7  C9  UNL     1      13.259  12.580  30.360  0.00  0.00    +0.062 C 
ATOM      8  C17 UNL     1      12.048  12.044  29.578  0.00  0.00    +0.118 C 
ENDROOT
BRANCH   7   9
ATOM      9  C10 UNL     1      14.014  13.631  29.591  0.00  0.00    +0.083 A 
ATOM     10  N2  UNL     1      15.008  14.392  30.113  0.00  0.00    -0.248 NA
ATOM     11  C11 UNL     1      15.566  15.202  29.177  0.00  0.00    +0.052 A 
ATOM     12  C12 UNL     1      15.053  15.051  27.894  0.00  0.00    +0.013 A 
ATOM     13  S1  UNL     1      13.821  13.910  27.937  0.00  0.00    -0.076 S 
ATOM     14  C13 UNL     1      15.466  15.878  26.714  0.00  0.00    +0.044 C 
ATOM     15  C14 UNL     1      16.834  16.537  26.961  0.00  0.00    +0.006 C 
ATOM     16  C15 UNL     1      16.908  17.165  28.366  0.00  0.00    +0.006 C 
ATOM     17  C16 UNL     1      16.733  16.100  29.469  0.00  0.00    +0.056 C 
ENDBRANCH   7   9
BRANCH   1  20
ATOM     18  C2  UNL     1       7.655  10.095  28.543  0.00  0.00    +0.166 A 
ATOM     19  C3  UNL     1       8.392  11.235  28.915  0.00  0.00    +0.062 A 
ATOM     20  C4  UNL     1       9.308  11.827  28.034  0.00  0.00    +0.044 A 
ATOM     21  C18 UNL     1       9.515  11.246  26.778  0.00  0.00    +0.062 A 
ATOM     22  C19 UNL     1       8.782  10.115  26.378  0.00  0.00    +0.166 A 
ATOM     23  C21 UNL     1       7.840   9.545  27.249  0.00  0.00    +0.204 A 
BRANCH  18  25
ATOM     24  C1  UNL     1       7.129   8.577  30.469  0.00  0.00    +0.277 C 
ATOM     25  O1  UNL     1       6.762   9.490  29.440  0.00  0.00    -0.491 OA
ENDBRANCH  18  25
BRANCH  22  26
ATOM     26  O3  UNL     1       8.959   9.529  25.114  0.00  0.00    -0.491 OA
ATOM     27  C20 UNL     1       8.310   9.967  23.920  0.00  0.00    +0.277 C 
ENDBRANCH  22  26
BRANCH  23  28
ATOM     28  O4  UNL     1       7.126   8.432  26.767  0.00  0.00    -0.488 OA
ATOM     29  C22 UNL     1       7.420   7.065  27.025  0.00  0.00    +0.277 C 
ENDBRANCH  23  28
ENDBRANCH   1  20
TORSDOF 5
ENDMDL
MODEL 3
REMARK VINA RESULT:    -6.033     11.666     14.829
REMARK INTER + INTRA:          -8.701
REMARK INTER:                  -7.818
REMARK INTRA:                  -0.883
REMARK UNBOUND:                -0.905
REMARK  Name = /home/qwerty/github/datacon2025hack/step_04_hit_selection/docking/ligands/lig_31.pdb
REMARK  8 active torsions:
REMARK  status: ('A' for Active; 'I' for Inactive)
REMARK    1  A    between atoms: C1_1  and  O1_2
REMARK    2  A    between atoms: O1_2  and  C2_3
REMARK    3  A    between atoms: C4_5  and  C5_6
REMARK    4  A    between atoms: C9_12  and  C10_13
REMARK    5  A    between atoms: C19_24  and  O3_25
REMARK    6  A    between atoms: O3_25  and  C20_26
REMARK    7  A    between atoms: C21_27  and  O4_28
REMARK    8  A    between atoms: O4_28  and  C22_29
REMARK                            x       y       z     vdW  Elec       q    Type
REMARK                         _______ _______ _______ _____ _____    ______ ____
ROOT
ATOM      1  C5  UNL     1      18.106  13.391  31.504  0.00  0.00    +0.247 C 
ATOM      2  O2  UNL     1      18.454  12.375  30.849  0.00  0.00    -0.270 OA
ATOM      3  N1  UNL     1      18.085  14.669  30.844  0.00  0.00    -0.297 N 
ATOM      4  C6  UNL     1      16.971  14.960  29.935  0.00  0.00    +0.108 C 
ATOM      5  C7  UNL     1      17.395  15.946  28.839  0.00  0.00    +0.020 C 
ATOM      6  C8  UNL     1      18.108  17.164  29.435  0.00  0.00    +0.013 C 
ATOM      7  C9  UNL     1      19.308  16.757  30.310  0.00  0.00    +0.062 C 
ATOM      8  C17 UNL     1      18.858  15.783  31.411  0.00  0.00    +0.118 C 
ENDROOT
BRANCH   7   9
ATOM      9  C10 UNL     1      20.429  16.196  29.476  0.00  0.00    +0.083 A 
ATOM     10  N2  UNL     1      21.149  15.095  29.807  0.00  0.00    -0.248 NA
ATOM     11  C11 UNL     1      22.043  14.769  28.838  0.00  0.00    +0.052 A 
ATOM     12  C12 UNL     1      22.000  15.577  27.709  0.00  0.00    +0.013 A 
ATOM     13  S1  UNL     1      20.849  16.777  27.948  0.00  0.00    -0.076 S 
ATOM     14  C13 UNL     1      22.931  15.449  26.540  0.00  0.00    +0.044 C 
ATOM     15  C14 UNL     1      23.577  14.054  26.507  0.00  0.00    +0.006 C 
ATOM     16  C15 UNL     1      24.080  13.636  27.902  0.00  0.00    +0.006 C 
ATOM     17  C16 UNL     1      22.922  13.554  28.918  0.00  0.00    +0.056 C 
ENDBRANCH   7   9
BRANCH   1  20
ATOM     18  C2  UNL     1      16.038  13.327  34.696  0.00  0.00    +0.166 A 
ATOM     19  C3  UNL     1      16.416  13.472  33.347  0.00  0.00    +0.062 A 
ATOM     20  C4  UNL     1      17.738  13.260  32.936  0.00  0.00    +0.044 A 
ATOM     21  C18 UNL     1      18.704  12.933  33.895  0.00  0.00    +0.062 A 
ATOM     22  C19 UNL     1      18.351  12.769  35.245  0.00  0.00    +0.166 A 
ATOM     23  C21 UNL     1      17.017  12.948  35.649  0.00  0.00    +0.204 A 
BRANCH  18  25
ATOM     24  C1  UNL     1      14.239  14.804  35.627  0.00  0.00    +0.277 C 
ATOM     25  O1  UNL     1      14.719  13.569  35.105  0.00  0.00    -0.491 OA
ENDBRANCH  18  25
BRANCH  22  26
ATOM     26  O3  UNL     1      19.299  12.421  36.221  0.00  0.00    -0.491 OA
ATOM     27  C20 UNL     1      20.700  12.678  36.116  0.00  0.00    +0.277 C 
ENDBRANCH  22  26
BRANCH  23  28
ATOM     28  O4  UNL     1      16.737  12.739  37.013  0.00  0.00    -0.488 OA
ATOM     29  C22 UNL     1      16.159  11.573  37.586  0.00  0.00    +0.277 C 
ENDBRANCH  23  28
ENDBRANCH   1  20
TORSDOF 5
ENDMDL
MODEL 4
REMARK VINA RESULT:    -5.921      3.170      9.280
REMARK INTER + INTRA:          -8.556
REMARK INTER:                  -7.631
REMARK INTRA:                  -0.925
REMARK UNBOUND:                -0.905
REMARK  Name = /home/qwerty/github/datacon2025hack/step_04_hit_selection/docking/ligands/lig_31.pdb
REMARK  8 active torsions:
REMARK  status: ('A' for Active; 'I' for Inactive)
REMARK    1  A    between atoms: C1_1  and  O1_2
REMARK    2  A    between atoms: O1_2  and  C2_3
REMARK    3  A    between atoms: C4_5  and  C5_6
REMARK    4  A    between atoms: C9_12  and  C10_13
REMARK    5  A    between atoms: C19_24  and  O3_25
REMARK    6  A    between atoms: O3_25  and  C20_26
REMARK    7  A    between atoms: C21_27  and  O4_28
REMARK    8  A    between atoms: O4_28  and  C22_29
REMARK                            x       y       z     vdW  Elec       q    Type
REMARK                         _______ _______ _______ _____ _____    ______ ____
ROOT
ATOM      1  C5  UNL     1      21.764   2.131  28.048  0.00  0.00    +0.247 C 
ATOM      2  O2  UNL     1      22.933   2.169  27.587  0.00  0.00    -0.270 OA
ATOM      3  N1  UNL     1      20.663   1.971  27.137  0.00  0.00    -0.297 N 
ATOM      4  C6  UNL     1      20.412   0.636  26.582  0.00  0.00    +0.108 C 
ATOM      5  C7  UNL     1      19.748   0.726  25.203  0.00  0.00    +0.020 C 
ATOM      6  C8  UNL     1      18.548   1.678  25.226  0.00  0.00    +0.013 C 
ATOM      7  C9  UNL     1      18.930   3.074  25.751  0.00  0.00    +0.062 C 
ATOM      8  C17 UNL     1      19.578   2.961  27.140  0.00  0.00    +0.118 C 
ENDROOT
BRANCH   7   9
ATOM      9  C10 UNL     1      19.808   3.805  24.770  0.00  0.00    +0.083 A 
ATOM     10  N2  UNL     1      19.611   3.814  23.428  0.00  0.00    -0.248 NA
ATOM     11  C11 UNL     1      20.505   4.615  22.794  0.00  0.00    +0.052 A 
ATOM     12  C12 UNL     1      21.383   5.289  23.633  0.00  0.00    +0.013 A 
ATOM     13  S1  UNL     1      21.074   4.827  25.219  0.00  0.00    -0.076 S 
ATOM     14  C13 UNL     1      22.494   6.178  23.161  0.00  0.00    +0.044 C 
ATOM     15  C14 UNL     1      22.241   6.647  21.718  0.00  0.00    +0.006 C 
ATOM     16  C15 UNL     1      21.795   5.478  20.819  0.00  0.00    +0.006 C 
ATOM     17  C16 UNL     1      20.471   4.860  21.313  0.00  0.00    +0.056 C 
ENDBRANCH   7   9
BRANCH   1  20
ATOM     18  C2  UNL     1      21.563   3.638  31.535  0.00  0.00    +0.166 A 
ATOM     19  C3  UNL     1      21.795   3.481  30.155  0.00  0.00    +0.062 A 
ATOM     20  C4  UNL     1      21.538   2.264  29.509  0.00  0.00    +0.044 A 
ATOM     21  C18 UNL     1      21.079   1.178  30.263  0.00  0.00    +0.062 A 
ATOM     22  C19 UNL     1      20.826   1.312  31.639  0.00  0.00    +0.166 A 
ATOM     23  C21 UNL     1      21.050   2.543  32.277  0.00  0.00    +0.204 A 
BRANCH  18  25
ATOM     24  C1  UNL     1      23.128   5.230  32.675  0.00  0.00    +0.277 C 
ATOM     25  O1  UNL     1      21.848   4.850  32.181  0.00  0.00    -0.491 OA
ENDBRANCH  18  25
BRANCH  22  26
ATOM     26  O3  UNL     1      20.345   0.242  32.411  0.00  0.00    -0.491 OA
ATOM     27  C20 UNL     1      18.985  -0.193  32.432  0.00  0.00    +0.277 C 
ENDBRANCH  22  26
BRANCH  23  28
ATOM     28  O4  UNL     1      20.748   2.607  33.651  0.00  0.00    -0.488 OA
ATOM     29  C22 UNL     1      19.576   3.164  34.232  0.00  0.00    +0.277 C 
ENDBRANCH  23  28
ENDBRANCH   1  20
TORSDOF 5
ENDMDL
MODEL 5
REMARK VINA RESULT:    -5.689      4.208      9.049
REMARK INTER + INTRA:          -8.256
REMARK INTER:                  -7.526
REMARK INTRA:                  -0.731
REMARK UNBOUND:                -0.905
REMARK  Name = /home/qwerty/github/datacon2025hack/step_04_hit_selection/docking/ligands/lig_31.pdb
REMARK  8 active torsions:
REMARK  status: ('A' for Active; 'I' for Inactive)
REMARK    1  A    between atoms: C1_1  and  O1_2
REMARK    2  A    between atoms: O1_2  and  C2_3
REMARK    3  A    between atoms: C4_5  and  C5_6
REMARK    4  A    between atoms: C9_12  and  C10_13
REMARK    5  A    between atoms: C19_24  and  O3_25
REMARK    6  A    between atoms: O3_25  and  C20_26
REMARK    7  A    between atoms: C21_27  and  O4_28
REMARK    8  A    between atoms: O4_28  and  C22_29
REMARK                            x       y       z     vdW  Elec       q    Type
REMARK                         _______ _______ _______ _____ _____    ______ ____
ROOT
ATOM      1  C5  UNL     1      19.732   0.858  25.535  0.00  0.00    +0.247 C 
ATOM      2  O2  UNL     1      20.201   1.229  24.429  0.00  0.00    -0.270 OA
ATOM      3  N1  UNL     1      18.614  -0.047  25.548  0.00  0.00    -0.297 N 
ATOM      4  C6  UNL     1      18.866  -1.463  25.260  0.00  0.00    +0.108 C 
ATOM      5  C7  UNL     1      17.632  -2.128  24.638  0.00  0.00    +0.020 C 
ATOM      6  C8  UNL     1      16.370  -1.825  25.452  0.00  0.00    +0.013 C 
ATOM      7  C9  UNL     1      16.152  -0.312  25.635  0.00  0.00    +0.062 C 
ATOM      8  C17 UNL     1      17.394   0.331  26.273  0.00  0.00    +0.118 C 
ENDROOT
BRANCH   7   9
ATOM      9  C10 UNL     1      15.774   0.347  24.334  0.00  0.00    +0.083 A 
ATOM     10  N2  UNL     1      16.425   1.410  23.800  0.00  0.00    -0.248 NA
ATOM     11  C11 UNL     1      15.922   1.751  22.586  0.00  0.00    +0.052 A 
ATOM     12  C12 UNL     1      14.903   0.927  22.126  0.00  0.00    +0.013 A 
ATOM     13  S1  UNL     1      14.576  -0.233  23.297  0.00  0.00    -0.076 S 
ATOM     14  C13 UNL     1      14.152   1.142  20.845  0.00  0.00    +0.044 C 
ATOM     15  C14 UNL     1      14.951   2.044  19.890  0.00  0.00    +0.006 C 
ATOM     16  C15 UNL     1      15.526   3.270  20.626  0.00  0.00    +0.006 C 
ATOM     17  C16 UNL     1      16.502   2.850  21.744  0.00  0.00    +0.056 C 
ENDBRANCH   7   9
BRANCH   1  20
ATOM     18  C2  UNL     1      20.395   3.042  28.578  0.00  0.00    +0.166 A 
ATOM     19  C3  UNL     1      19.865   2.558  27.367  0.00  0.00    +0.062 A 
ATOM     20  C4  UNL     1      20.327   1.363  26.798  0.00  0.00    +0.044 A 
ATOM     21  C18 UNL     1      21.359   0.663  27.433  0.00  0.00    +0.062 A 
ATOM     22  C19 UNL     1      21.896   1.117  28.649  0.00  0.00    +0.166 A 
ATOM     23  C21 UNL     1      21.407   2.297  29.235  0.00  0.00    +0.204 A 
BRANCH  18  25
ATOM     24  C1  UNL     1      18.859   4.388  30.032  0.00  0.00    +0.277 C 
ATOM     25  O1  UNL     1      19.949   4.254  29.127  0.00  0.00    -0.491 OA
ENDBRANCH  18  25
BRANCH  22  26
ATOM     26  O3  UNL     1      22.918   0.419  29.314  0.00  0.00    -0.491 OA
ATOM     27  C20 UNL     1      24.310   0.711  29.191  0.00  0.00    +0.277 C 
ENDBRANCH  22  26
BRANCH  23  28
ATOM     28  O4  UNL     1      21.975   2.673  30.467  0.00  0.00    -0.488 OA
ATOM     29  C22 UNL     1      21.501   2.316  31.759  0.00  0.00    +0.277 C 
ENDBRANCH  23  28
ENDBRANCH   1  20
TORSDOF 5
ENDMDL
MODEL 6
REMARK VINA RESULT:    -5.665      9.670     12.955
REMARK INTER + INTRA:          -8.226
REMARK INTER:                  -7.578
REMARK INTRA:                  -0.647
REMARK UNBOUND:                -0.905
REMARK  Name = /home/qwerty/github/datacon2025hack/step_04_hit_selection/docking/ligands/lig_31.pdb
REMARK  8 active torsions:
REMARK  status: ('A' for Active; 'I' for Inactive)
REMARK    1  A    between atoms: C1_1  and  O1_2
REMARK    2  A    between atoms: O1_2  and  C2_3
REMARK    3  A    between atoms: C4_5  and  C5_6
REMARK    4  A    between atoms: C9_12  and  C10_13
REMARK    5  A    between atoms: C19_24  and  O3_25
REMARK    6  A    between atoms: O3_25  and  C20_26
REMARK    7  A    between atoms: C21_27  and  O4_28
REMARK    8  A    between atoms: O4_28  and  C22_29
REMARK                            x       y       z     vdW  Elec       q    Type
REMARK                         _______ _______ _______ _____ _____    ______ ____
ROOT
ATOM      1  C5  UNL     1      18.096  11.465  36.701  0.00  0.00    +0.247 C 
ATOM      2  O2  UNL     1      19.121  12.191  36.764  0.00  0.00    -0.270 OA
ATOM      3  N1  UNL     1      18.259  10.036  36.667  0.00  0.00    -0.297 N 
ATOM      4  C6  UNL     1      18.585   9.346  37.920  0.00  0.00    +0.108 C 
ATOM      5  C7  UNL     1      19.379   8.061  37.653  0.00  0.00    +0.020 C 
ATOM      6  C8  UNL     1      18.705   7.207  36.574  0.00  0.00    +0.013 C 
ATOM      7  C9  UNL     1      18.476   7.998  35.274  0.00  0.00    +0.062 C 
ATOM      8  C17 UNL     1      17.665   9.272  35.561  0.00  0.00    +0.118 C 
ENDROOT
BRANCH   7   9
ATOM      9  C10 UNL     1      19.778   8.296  34.578  0.00  0.00    +0.083 A 
ATOM     10  N2  UNL     1      20.881   7.511  34.655  0.00  0.00    -0.248 NA
ATOM     11  C11 UNL     1      21.886   7.977  33.868  0.00  0.00    +0.052 A 
ATOM     12  C12 UNL     1      21.567   9.105  33.122  0.00  0.00    +0.013 A 
ATOM     13  S1  UNL     1      19.998   9.574  33.498  0.00  0.00    -0.076 S 
ATOM     14  C13 UNL     1      22.531   9.833  32.233  0.00  0.00    +0.044 C 
ATOM     15  C14 UNL     1      23.717   8.929  31.858  0.00  0.00    +0.006 C 
ATOM     16  C15 UNL     1      24.265   8.183  33.090  0.00  0.00    +0.006 C 
ATOM     17  C16 UNL     1      23.196   7.262  33.712  0.00  0.00    +0.056 C 
ENDBRANCH   7   9
BRANCH   1  20
ATOM     18  C2  UNL     1      15.335  14.032  36.199  0.00  0.00    +0.166 A 
ATOM     19  C3  UNL     1      16.605  13.430  36.280  0.00  0.00    +0.062 A 
ATOM     20  C4  UNL     1      16.749  12.086  36.651  0.00  0.00    +0.044 A 
ATOM     21  C18 UNL     1      15.608  11.346  36.981  0.00  0.00    +0.062 A 
ATOM     22  C19 UNL     1      14.328  11.920  36.895  0.00  0.00    +0.166 A 
ATOM     23  C21 UNL     1      14.184  13.257  36.489  0.00  0.00    +0.204 A 
BRANCH  18  25
ATOM     24  C1  UNL     1      15.124  16.461  36.786  0.00  0.00    +0.277 C 
ATOM     25  O1  UNL     1      15.200  15.386  35.856  0.00  0.00    -0.491 OA
ENDBRANCH  18  25
BRANCH  22  26
ATOM     26  O3  UNL     1      13.168  11.190  37.201  0.00  0.00    -0.491 OA
ATOM     27  C20 UNL     1      12.548  10.249  36.323  0.00  0.00    +0.277 C 
ENDBRANCH  22  26
BRANCH  23  28
ATOM     28  O4  UNL     1      12.869  13.752  36.401  0.00  0.00    -0.488 OA
ATOM     29  C22 UNL     1      12.087  13.865  35.219  0.00  0.00    +0.277 C 
ENDBRANCH  23  28
ENDBRANCH   1  20
TORSDOF 5
ENDMDL
MODEL 7
REMARK VINA RESULT:    -5.665     12.423     13.924
REMARK INTER + INTRA:          -8.225
REMARK INTER:                  -7.332
REMARK INTRA:                  -0.893
REMARK UNBOUND:                -0.905
REMARK  Name = /home/qwerty/github/datacon2025hack/step_04_hit_selection/docking/ligands/lig_31.pdb
REMARK  8 active torsions:
REMARK  status: ('A' for Active; 'I' for Inactive)
REMARK    1  A    between atoms: C1_1  and  O1_2
REMARK    2  A    between atoms: O1_2  and  C2_3
REMARK    3  A    between atoms: C4_5  and  C5_6
REMARK    4  A    between atoms: C9_12  and  C10_13
REMARK    5  A    between atoms: C19_24  and  O3_25
REMARK    6  A    between atoms: O3_25  and  C20_26
REMARK    7  A    between atoms: C21_27  and  O4_28
REMARK    8  A    between atoms: O4_28  and  C22_29
REMARK                            x       y       z     vdW  Elec       q    Type
REMARK                         _______ _______ _______ _____ _____    ______ ____
ROOT
ATOM      1  C5  UNL     1      12.057  13.521  31.769  0.00  0.00    +0.247 C 
ATOM      2  O2  UNL     1      13.112  14.194  31.644  0.00  0.00    -0.270 OA
ATOM      3  N1  UNL     1      11.606  13.175  33.091  0.00  0.00    -0.297 N 
ATOM      4  C6  UNL     1      10.955  14.214  33.895  0.00  0.00    +0.108 C 
ATOM      5  C7  UNL     1      11.162  13.965  35.394  0.00  0.00    +0.020 C 
ATOM      6  C8  UNL     1      10.821  12.518  35.767  0.00  0.00    +0.013 C 
ATOM      7  C9  UNL     1      11.612  11.504  34.920  0.00  0.00    +0.062 C 
ATOM      8  C17 UNL     1      11.377  11.762  33.423  0.00  0.00    +0.118 C 
ENDROOT
BRANCH   7   9
ATOM      9  C10 UNL     1      13.075  11.515  35.278  0.00  0.00    +0.083 A 
ATOM     10  N2  UNL     1      14.082  11.566  34.370  0.00  0.00    -0.248 NA
ATOM     11  C11 UNL     1      15.297  11.643  34.971  0.00  0.00    +0.052 A 
ATOM     12  C12 UNL     1      15.259  11.708  36.358  0.00  0.00    +0.013 A 
ATOM     13  S1  UNL     1      13.658  11.607  36.859  0.00  0.00    -0.076 S 
ATOM     14  C13 UNL     1      16.472  11.735  37.239  0.00  0.00    +0.044 C 
ATOM     15  C14 UNL     1      17.712  12.183  36.447  0.00  0.00    +0.006 C 
ATOM     16  C15 UNL     1      17.799  11.461  35.088  0.00  0.00    +0.006 C 
ATOM     17  C16 UNL     1      16.578  11.779  34.201  0.00  0.00    +0.056 C 
ENDBRANCH   7   9
BRANCH   1  20
ATOM     18  C2  UNL     1      11.204  11.792  28.490  0.00  0.00    +0.166 A 
ATOM     19  C3  UNL     1      11.906  12.237  29.627  0.00  0.00    +0.062 A 
ATOM     20  C4  UNL     1      11.306  13.089  30.564  0.00  0.00    +0.044 A 
ATOM     21  C18 UNL     1       9.998  13.532  30.339  0.00  0.00    +0.062 A 
ATOM     22  C19 UNL     1       9.271  13.093  29.219  0.00  0.00    +0.166 A 
ATOM     23  C21 UNL     1       9.863  12.210  28.301  0.00  0.00    +0.204 A 
BRANCH  18  25
ATOM     24  C1  UNL     1      12.171   9.598  27.755  0.00  0.00    +0.277 C 
ATOM     25  O1  UNL     1      11.821  10.962  27.542  0.00  0.00    -0.491 OA
ENDBRANCH  18  25
BRANCH  22  26
ATOM     26  O3  UNL     1       7.949  13.508  28.985  0.00  0.00    -0.491 OA
ATOM     27  C20 UNL     1       7.129  14.175  29.945  0.00  0.00    +0.277 C 
ENDBRANCH  22  26
BRANCH  23  28
ATOM     28  O4  UNL     1       9.062  11.793  27.220  0.00  0.00    -0.488 OA
ATOM     29  C22 UNL     1       8.327  10.580  27.134  0.00  0.00    +0.277 C 
ENDBRANCH  23  28
ENDBRANCH   1  20
TORSDOF 5
ENDMDL
MODEL 8
REMARK VINA RESULT:    -5.651     13.236     16.021
REMARK INTER + INTRA:          -8.207
REMARK INTER:                  -7.368
REMARK INTRA:                  -0.839
REMARK UNBOUND:                -0.905
REMARK  Name = /home/qwerty/github/datacon2025hack/step_04_hit_selection/docking/ligands/lig_31.pdb
REMARK  8 active torsions:
REMARK  status: ('A' for Active; 'I' for Inactive)
REMARK    1  A    between atoms: C1_1  and  O1_2
REMARK    2  A    between atoms: O1_2  and  C2_3
REMARK    3  A    between atoms: C4_5  and  C5_6
REMARK    4  A    between atoms: C9_12  and  C10_13
REMARK    5  A    between atoms: C19_24  and  O3_25
REMARK    6  A    between atoms: O3_25  and  C20_26
REMARK    7  A    between atoms: C21_27  and  O4_28
REMARK    8  A    between atoms: O4_28  and  C22_29
REMARK                            x       y       z     vdW  Elec       q    Type
REMARK                         _______ _______ _______ _____ _____    ______ ____
ROOT
ATOM      1  C5  UNL     1      20.433  16.266  25.356  0.00  0.00    +0.247 C 
ATOM      2  O2  UNL     1      19.818  16.839  24.421  0.00  0.00    -0.270 OA
ATOM      3  N1  UNL     1      21.732  15.707  25.093  0.00  0.00    -0.297 N 
ATOM      4  C6  UNL     1      22.874  16.622  24.997  0.00  0.00    +0.108 C 
ATOM      5  C7  UNL     1      23.963  16.054  24.079  0.00  0.00    +0.020 C 
ATOM      6  C8  UNL     1      24.296  14.604  24.447  0.00  0.00    +0.013 C 
ATOM      7  C9  UNL     1      23.045  13.708  24.445  0.00  0.00    +0.062 C 
ATOM      8  C17 UNL     1      21.974  14.287  25.383  0.00  0.00    +0.118 C 
ENDROOT
BRANCH   7   9
ATOM      9  C10 UNL     1      22.524  13.497  23.048  0.00  0.00    +0.083 A 
ATOM     10  N2  UNL     1      21.253  13.766  22.658  0.00  0.00    -0.248 NA
ATOM     11  C11 UNL     1      21.080  13.556  21.328  0.00  0.00    +0.052 A 
ATOM     12  C12 UNL     1      22.225  13.171  20.644  0.00  0.00    +0.013 A 
ATOM     13  S1  UNL     1      23.488  13.029  21.744  0.00  0.00    -0.076 S 
ATOM     14  C13 UNL     1      22.265  12.823  19.186  0.00  0.00    +0.044 C 
ATOM     15  C14 UNL     1      21.050  13.413  18.451  0.00  0.00    +0.006 C 
ATOM     16  C15 UNL     1      19.747  13.166  19.235  0.00  0.00    +0.006 C 
ATOM     17  C16 UNL     1      19.786  13.842  20.621  0.00  0.00    +0.056 C 
ENDBRANCH   7   9
BRANCH   1  20
ATOM     18  C2  UNL     1      17.887  15.596  28.101  0.00  0.00    +0.166 A 
ATOM     19  C3  UNL     1      18.488  15.724  26.834  0.00  0.00    +0.062 A 
ATOM     20  C4  UNL     1      19.811  16.167  26.700  0.00  0.00    +0.044 A 
ATOM     21  C18 UNL     1      20.529  16.521  27.848  0.00  0.00    +0.062 A 
ATOM     22  C19 UNL     1      19.956  16.390  29.125  0.00  0.00    +0.166 A 
ATOM     23  C21 UNL     1      18.642  15.912  29.259  0.00  0.00    +0.204 A 
BRANCH  18  25
ATOM     24  C1  UNL     1      15.491  15.568  27.361  0.00  0.00    +0.277 C 
ATOM     25  O1  UNL     1      16.553  15.180  28.227  0.00  0.00    -0.491 OA
ENDBRANCH  18  25
BRANCH  22  26
ATOM     26  O3  UNL     1      20.666  16.719  30.291  0.00  0.00    -0.491 OA
ATOM     27  C20 UNL     1      21.778  15.981  30.798  0.00  0.00    +0.277 C 
ENDBRANCH  22  26
BRANCH  23  28
ATOM     28  O4  UNL     1      18.148  15.782  30.571  0.00  0.00    -0.488 OA
ATOM     29  C22 UNL     1      18.121  14.592  31.348  0.00  0.00    +0.277 C 
ENDBRANCH  23  28
ENDBRANCH   1  20
TORSDOF 5
ENDMDL
MODEL 9
REMARK VINA RESULT:    -5.596      9.708     13.267
REMARK INTER + INTRA:          -8.136
REMARK INTER:                  -7.306
REMARK INTRA:                  -0.830
REMARK UNBOUND:                -0.905
REMARK  Name = /home/qwerty/github/datacon2025hack/step_04_hit_selection/docking/ligands/lig_31.pdb
REMARK  8 active torsions:
REMARK  status: ('A' for Active; 'I' for Inactive)
REMARK    1  A    between atoms: C1_1  and  O1_2
REMARK    2  A    between atoms: O1_2  and  C2_3
REMARK    3  A    between atoms: C4_5  and  C5_6
REMARK    4  A    between atoms: C9_12  and  C10_13
REMARK    5  A    between atoms: C19_24  and  O3_25
REMARK    6  A    between atoms: O3_25  and  C20_26
REMARK    7  A    between atoms: C21_27  and  O4_28
REMARK    8  A    between atoms: O4_28  and  C22_29
REMARK                            x       y       z     vdW  Elec       q    Type
REMARK                         _______ _______ _______ _____ _____    ______ ____
ROOT
ATOM      1  C5  UNL     1      18.061   5.902  21.213  0.00  0.00    +0.247 C 
ATOM      2  O2  UNL     1      17.858   6.703  22.160  0.00  0.00    -0.270 OA
ATOM      3  N1  UNL     1      19.257   6.044  20.426  0.00  0.00    -0.297 N 
ATOM      4  C6  UNL     1      20.522   5.575  21.000  0.00  0.00    +0.108 C 
ATOM      5  C7  UNL     1      21.710   6.367  20.440  0.00  0.00    +0.020 C 
ATOM      6  C8  UNL     1      21.655   6.440  18.910  0.00  0.00    +0.013 C 
ATOM      7  C9  UNL     1      20.318   7.016  18.409  0.00  0.00    +0.062 C 
ATOM      8  C17 UNL     1      19.143   6.198  18.969  0.00  0.00    +0.118 C 
ENDROOT
BRANCH   7   9
ATOM      9  C10 UNL     1      20.198   8.482  18.733  0.00  0.00    +0.083 A 
ATOM     10  N2  UNL     1      21.212   9.375  18.616  0.00  0.00    -0.248 NA
ATOM     11  C11 UNL     1      20.804  10.639  18.900  0.00  0.00    +0.052 A 
ATOM     12  C12 UNL     1      19.452  10.764  19.193  0.00  0.00    +0.013 A 
ATOM     13  S1  UNL     1      18.749   9.238  19.154  0.00  0.00    -0.076 S 
ATOM     14  C13 UNL     1      18.787  12.045  19.597  0.00  0.00    +0.044 C 
ATOM     15  C14 UNL     1      19.633  13.257  19.170  0.00  0.00    +0.006 C 
ATOM     16  C15 UNL     1      21.120  13.053  19.518  0.00  0.00    +0.006 C 
ATOM     17  C16 UNL     1      21.709  11.832  18.783  0.00  0.00    +0.056 C 
ENDBRANCH   7   9
BRANCH   1  20
ATOM     18  C2  UNL     1      16.349   2.507  21.099  0.00  0.00    +0.166 A 
ATOM     19  C3  UNL     1      17.290   3.525  21.346  0.00  0.00    +0.062 A 
ATOM     20  C4  UNL     1      17.067   4.840  20.915  0.00  0.00    +0.044 A 
ATOM     21  C18 UNL     1      15.903   5.131  20.195  0.00  0.00    +0.062 A 
ATOM     22  C19 UNL     1      14.942   4.136  19.947  0.00  0.00    +0.166 A 
ATOM     23  C21 UNL     1      15.151   2.826  20.411  0.00  0.00    +0.204 A 
BRANCH  18  25
ATOM     24  C1  UNL     1      16.790   0.772  22.855  0.00  0.00    +0.277 C 
ATOM     25  O1  UNL     1      16.592   1.187  21.507  0.00  0.00    -0.491 OA
ENDBRANCH  18  25
BRANCH  22  26
ATOM     26  O3  UNL     1      13.757   4.411  19.245  0.00  0.00    -0.491 OA
ATOM     27  C20 UNL     1      12.550   4.879  19.847  0.00  0.00    +0.277 C 
ENDBRANCH  22  26
BRANCH  23  28
ATOM     28  O4  UNL     1      14.131   1.893  20.148  0.00  0.00    -0.488 OA
ATOM     29  C22 UNL     1      13.228   1.340  21.096  0.00  0.00    +0.277 C 
ENDBRANCH  23  28
ENDBRANCH   1  20
TORSDOF 5
ENDMDL
