MODEL 1
REMARK VINA RESULT:    -7.117      0.000      0.000
REMARK INTER + INTRA:          -9.464
REMARK INTER:                  -8.781
REMARK INTRA:                  -0.683
REMARK UNBOUND:                -0.683
REMARK  Name = /home/qwerty/github/datacon2025hack/step_04_hit_selection/docking/ligands/lig_587.pdb
REMARK  5 active torsions:
REMARK  status: ('A' for Active; 'I' for Inactive)
REMARK    1  A    between atoms: C1_1  and  C2_2
REMARK    2  A    between atoms: C2_2  and  C3_3
REMARK    3  A    between atoms: C2_2  and  N2_13
REMARK    4  A    between atoms: N1_5  and  C4_6
REMARK    5  A    between atoms: C12_17  and  C13_19
REMARK                            x       y       z     vdW  Elec       q    Type
REMARK                         _______ _______ _______ _____ _____    ______ ____
ROOT
ATOM      1  N2  UNL     1      17.071  14.597  28.384  0.00  0.00    -0.289 NA
ATOM      2  C10 UNL     1      17.720  14.351  27.078  0.00  0.00    +0.104 C 
ATOM      3  C11 UNL     1      18.829  13.308  27.228  0.00  0.00    +0.123 C 
ATOM      4  N3  UNL     1      19.750  13.717  28.291  0.00  0.00    -0.294 N 
ATOM      5  C12 UNL     1      21.143  13.377  28.207  0.00  0.00    +0.263 C 
ATOM      6  O2  UNL     1      21.684  12.723  29.139  0.00  0.00    -0.268 OA
ATOM      7  C21 UNL     1      19.172  14.095  29.582  0.00  0.00    +0.123 C 
ATOM      8  C22 UNL     1      18.056  15.118  29.361  0.00  0.00    +0.104 C 
ENDROOT
BRANCH   5   9
ATOM      9  C13 UNL     1      21.956  13.809  27.056  0.00  0.00    +0.103 A 
ATOM     10  C14 UNL     1      22.647  15.016  26.971  0.00  0.00    +0.040 A 
ATOM     11  C15 UNL     1      23.234  15.004  25.725  0.00  0.00    +0.000 A 
ATOM     12  C16 UNL     1      24.045  15.946  25.096  0.00  0.00    +0.010 A 
ATOM     13  C17 UNL     1      24.501  15.654  23.796  0.00  0.00    +0.001 A 
ATOM     14  C18 UNL     1      24.136  14.444  23.165  0.00  0.00    +0.002 A 
ATOM     15  C19 UNL     1      23.313  13.514  23.826  0.00  0.00    +0.026 A 
ATOM     16  C20 UNL     1      22.881  13.829  25.114  0.00  0.00    +0.047 A 
ATOM     17  N4  UNL     1      22.096  13.090  25.915  0.00  0.00    -0.351 N 
ATOM     18  H19 UNL     1      21.668  12.165  25.689  0.00  0.00    +0.166 HD
ENDBRANCH   5   9
BRANCH   1  20
ATOM     19  C1  UNL     1      15.932  16.302  26.966  0.00  0.00    +0.034 C 
ATOM     20  C2  UNL     1      15.857  15.445  28.237  0.00  0.00    +0.140 C 
BRANCH  20  21
ATOM     21  C3  UNL     1      14.564  14.655  28.306  0.00  0.00    +0.234 C 
ATOM     22  O1  UNL     1      14.589  13.397  28.211  0.00  0.00    -0.274 OA
ATOM     23  N1  UNL     1      13.323  15.335  28.542  0.00  0.00    -0.283 N 
ATOM     24  H5  UNL     1      13.346  16.354  28.770  0.00  0.00    +0.155 HD
BRANCH  23  25
ATOM     25  C4  UNL     1      12.102  14.626  28.784  0.00  0.00    +0.047 A 
ATOM     26  C5  UNL     1      11.289  14.277  27.695  0.00  0.00    +0.024 A 
ATOM     27  C6  UNL     1      10.088  13.593  27.902  0.00  0.00    +0.002 A 
ATOM     28  C7  UNL     1       9.697  13.242  29.196  0.00  0.00    +0.001 A 
ATOM     29  C8  UNL     1      10.512  13.564  30.285  0.00  0.00    +0.017 A 
ATOM     30  C9  UNL     1      11.717  14.250  30.087  0.00  0.00    +0.039 A 
ATOM     31 BR1  UNL     1      12.842  14.581  31.603  0.00  0.00    -0.048 Br
ENDBRANCH  23  25
ENDBRANCH  20  21
ENDBRANCH   1  20
TORSDOF 4
ENDMDL
MODEL 2
REMARK VINA RESULT:    -6.981     11.478     16.007
REMARK INTER + INTRA:          -9.297
REMARK INTER:                  -8.674
REMARK INTRA:                  -0.622
REMARK UNBOUND:                -0.683
REMARK  Name = /home/qwerty/github/datacon2025hack/step_04_hit_selection/docking/ligands/lig_587.pdb
REMARK  5 active torsions:
REMARK  status: ('A' for Active; 'I' for Inactive)
REMARK    1  A    between atoms: C1_1  and  C2_2
REMARK    2  A    between atoms: C2_2  and  C3_3
REMARK    3  A    between atoms: C2_2  and  N2_13
REMARK    4  A    between atoms: N1_5  and  C4_6
REMARK    5  A    between atoms: C12_17  and  C13_19
REMARK                            x       y       z     vdW  Elec       q    Type
REMARK                         _______ _______ _______ _____ _____    ______ ____
ROOT
ATOM      1  N2  UNL     1       7.943   4.699  29.014  0.00  0.00    -0.289 NA
ATOM      2  C10 UNL     1       8.284   4.082  30.313  0.00  0.00    +0.104 C 
ATOM      3  C11 UNL     1       9.479   3.141  30.153  0.00  0.00    +0.123 C 
ATOM      4  N3  UNL     1       9.208   2.178  29.082  0.00  0.00    -0.294 N 
ATOM      5  C12 UNL     1       9.750   0.850  29.154  0.00  0.00    +0.263 C 
ATOM      6  O2  UNL     1      10.475   0.420  28.217  0.00  0.00    -0.268 OA
ATOM      7  C21 UNL     1       8.746   2.706  27.797  0.00  0.00    +0.123 C 
ATOM      8  C22 UNL     1       7.570   3.656  28.028  0.00  0.00    +0.104 C 
ENDROOT
BRANCH   5   9
ATOM      9  C13 UNL     1       9.446  -0.028  30.298  0.00  0.00    +0.103 A 
ATOM     10  C14 UNL     1       8.318  -0.840  30.406  0.00  0.00    +0.040 A 
ATOM     11  C15 UNL     1       8.435  -1.449  31.636  0.00  0.00    +0.000 A 
ATOM     12  C16 UNL     1       7.604  -2.366  32.277  0.00  0.00    +0.010 A 
ATOM     13  C17 UNL     1       7.987  -2.818  33.554  0.00  0.00    +0.001 A 
ATOM     14  C18 UNL     1       9.177  -2.345  34.152  0.00  0.00    +0.002 A 
ATOM     15  C19 UNL     1       9.995  -1.418  33.480  0.00  0.00    +0.026 A 
ATOM     16  C20 UNL     1       9.590  -0.992  32.215  0.00  0.00    +0.047 A 
ATOM     17  N4  UNL     1      10.216  -0.119  31.410  0.00  0.00    -0.351 N 
ATOM     18  H19 UNL     1      11.101   0.396  31.615  0.00  0.00    +0.166 HD
ENDBRANCH   5   9
BRANCH   1  20
ATOM     19  C1  UNL     1       6.033   5.515  30.394  0.00  0.00    +0.034 C 
ATOM     20  C2  UNL     1       6.925   5.773  29.171  0.00  0.00    +0.140 C 
BRANCH  20  21
ATOM     21  C3  UNL     1       7.525   7.166  29.200  0.00  0.00    +0.234 C 
ATOM     22  O1  UNL     1       8.704   7.336  29.618  0.00  0.00    -0.274 OA
ATOM     23  N1  UNL     1       6.775   8.278  28.691  0.00  0.00    -0.283 N 
ATOM     24  H5  UNL     1       5.866   8.091  28.210  0.00  0.00    +0.155 HD
BRANCH  23  25
ATOM     25  C4  UNL     1       7.354   9.579  28.538  0.00  0.00    +0.047 A 
ATOM     26  C5  UNL     1       7.436  10.424  29.654  0.00  0.00    +0.024 A 
ATOM     27  C6  UNL     1       7.988  11.703  29.532  0.00  0.00    +0.002 A 
ATOM     28  C7  UNL     1       8.473  12.140  28.298  0.00  0.00    +0.001 A 
ATOM     29  C8  UNL     1       8.417  11.297  27.185  0.00  0.00    +0.017 A 
ATOM     30  C9  UNL     1       7.864  10.014  27.298  0.00  0.00    +0.039 A 
ATOM     31 BR1  UNL     1       7.900   8.864  25.765  0.00  0.00    -0.048 Br
ENDBRANCH  23  25
ENDBRANCH  20  21
ENDBRANCH   1  20
TORSDOF 4
ENDMDL
MODEL 3
REMARK VINA RESULT:    -6.882      8.825     11.153
REMARK INTER + INTRA:          -9.175
REMARK INTER:                  -8.590
REMARK INTRA:                  -0.585
REMARK UNBOUND:                -0.683
REMARK  Name = /home/qwerty/github/datacon2025hack/step_04_hit_selection/docking/ligands/lig_587.pdb
REMARK  5 active torsions:
REMARK  status: ('A' for Active; 'I' for Inactive)
REMARK    1  A    between atoms: C1_1  and  C2_2
REMARK    2  A    between atoms: C2_2  and  C3_3
REMARK    3  A    between atoms: C2_2  and  N2_13
REMARK    4  A    between atoms: N1_5  and  C4_6
REMARK    5  A    between atoms: C12_17  and  C13_19
REMARK                            x       y       z     vdW  Elec       q    Type
REMARK                         _______ _______ _______ _____ _____    ______ ____
ROOT
ATOM      1  N2  UNL     1      10.586  11.835  30.624  0.00  0.00    -0.289 NA
ATOM      2  C10 UNL     1      10.309  12.404  29.288  0.00  0.00    +0.104 C 
ATOM      3  C11 UNL     1       8.943  11.931  28.786  0.00  0.00    +0.123 C 
ATOM      4  N3  UNL     1       8.875  10.469  28.845  0.00  0.00    -0.294 N 
ATOM      5  C12 UNL     1       8.099   9.745  27.878  0.00  0.00    +0.263 C 
ATOM      6  O2  UNL     1       7.185   8.968  28.265  0.00  0.00    -0.268 OA
ATOM      7  C21 UNL     1       9.254   9.822  30.103  0.00  0.00    +0.123 C 
ATOM      8  C22 UNL     1      10.613  10.355  30.561  0.00  0.00    +0.104 C 
ENDROOT
BRANCH   5   9
ATOM      9  C13 UNL     1       8.377   9.877  26.436  0.00  0.00    +0.103 A 
ATOM     10  C14 UNL     1       9.645   9.828  25.858  0.00  0.00    +0.040 A 
ATOM     11  C15 UNL     1       9.428  10.023  24.511  0.00  0.00    +0.000 A 
ATOM     12  C16 UNL     1      10.325  10.069  23.446  0.00  0.00    +0.010 A 
ATOM     13  C17 UNL     1       9.803  10.293  22.158  0.00  0.00    +0.001 A 
ATOM     14  C18 UNL     1       8.413  10.464  21.970  0.00  0.00    +0.002 A 
ATOM     15  C19 UNL     1       7.533  10.414  23.066  0.00  0.00    +0.026 A 
ATOM     16  C20 UNL     1       8.080  10.188  24.329  0.00  0.00    +0.047 A 
ATOM     17  N4  UNL     1       7.425  10.105  25.498  0.00  0.00    -0.351 N 
ATOM     18  H19 UNL     1       6.398  10.217  25.648  0.00  0.00    +0.166 HD
ENDBRANCH   5   9
BRANCH   1  20
ATOM     19  C1  UNL     1      11.778  13.968  31.121  0.00  0.00    +0.034 C 
ATOM     20  C2  UNL     1      11.806  12.437  31.229  0.00  0.00    +0.140 C 
BRANCH  20  21
ATOM     21  C3  UNL     1      12.054  11.980  32.653  0.00  0.00    +0.234 C 
ATOM     22  O1  UNL     1      13.224  12.005  33.128  0.00  0.00    -0.274 OA
ATOM     23  N1  UNL     1      10.951  11.581  33.479  0.00  0.00    -0.283 N 
ATOM     24  H5  UNL     1       9.981  11.715  33.116  0.00  0.00    +0.155 HD
BRANCH  23  25
ATOM     25  C4  UNL     1      11.108  11.304  34.875  0.00  0.00    +0.047 A 
ATOM     26  C5  UNL     1      11.427  10.000  35.280  0.00  0.00    +0.024 A 
ATOM     27  C6  UNL     1      11.577   9.699  36.637  0.00  0.00    +0.002 A 
ATOM     28  C7  UNL     1      11.422  10.701  37.597  0.00  0.00    +0.001 A 
ATOM     29  C8  UNL     1      11.129  12.009  37.202  0.00  0.00    +0.017 A 
ATOM     30  C9  UNL     1      10.975  12.320  35.844  0.00  0.00    +0.039 A 
ATOM     31 BR1  UNL     1      10.668  14.146  35.352  0.00  0.00    -0.048 Br
ENDBRANCH  23  25
ENDBRANCH  20  21
ENDBRANCH   1  20
TORSDOF 4
ENDMDL
MODEL 4
REMARK VINA RESULT:    -6.876     12.558     14.336
REMARK INTER + INTRA:          -9.167
REMARK INTER:                  -8.460
REMARK INTRA:                  -0.706
REMARK UNBOUND:                -0.683
REMARK  Name = /home/qwerty/github/datacon2025hack/step_04_hit_selection/docking/ligands/lig_587.pdb
REMARK  5 active torsions:
REMARK  status: ('A' for Active; 'I' for Inactive)
REMARK    1  A    between atoms: C1_1  and  C2_2
REMARK    2  A    between atoms: C2_2  and  C3_3
REMARK    3  A    between atoms: C2_2  and  N2_13
REMARK    4  A    between atoms: N1_5  and  C4_6
REMARK    5  A    between atoms: C12_17  and  C13_19
REMARK                            x       y       z     vdW  Elec       q    Type
REMARK                         _______ _______ _______ _____ _____    ______ ____
ROOT
ATOM      1  N2  UNL     1      11.048   4.128  22.483  0.00  0.00    -0.289 NA
ATOM      2  C10 UNL     1      12.050   3.591  23.428  0.00  0.00    +0.104 C 
ATOM      3  C11 UNL     1      13.367   3.317  22.700  0.00  0.00    +0.123 C 
ATOM      4  N3  UNL     1      13.120   2.465  21.535  0.00  0.00    -0.294 N 
ATOM      5  C12 UNL     1      14.119   1.528  21.103  0.00  0.00    +0.263 C 
ATOM      6  O2  UNL     1      14.557   1.582  19.922  0.00  0.00    -0.268 OA
ATOM      7  C21 UNL     1      12.055   2.868  20.614  0.00  0.00    +0.123 C 
ATOM      8  C22 UNL     1      10.776   3.149  21.404  0.00  0.00    +0.104 C 
ENDROOT
BRANCH   5   9
ATOM      9  C13 UNL     1      14.619   0.484  22.016  0.00  0.00    +0.103 A 
ATOM     10  C14 UNL     1      15.834  -0.185  21.878  0.00  0.00    +0.040 A 
ATOM     11  C15 UNL     1      15.867  -1.079  22.926  0.00  0.00    +0.000 A 
ATOM     12  C16 UNL     1      16.839  -2.008  23.295  0.00  0.00    +0.010 A 
ATOM     13  C17 UNL     1      16.589  -2.801  24.430  0.00  0.00    +0.001 A 
ATOM     14  C18 UNL     1      15.388  -2.650  25.159  0.00  0.00    +0.002 A 
ATOM     15  C19 UNL     1      14.426  -1.704  24.760  0.00  0.00    +0.026 A 
ATOM     16  C20 UNL     1      14.703  -0.931  23.633  0.00  0.00    +0.047 A 
ATOM     17  N4  UNL     1      13.928   0.019  23.085  0.00  0.00    -0.351 N 
ATOM     18  H19 UNL     1      12.981   0.316  23.409  0.00  0.00    +0.166 HD
ENDBRANCH   5   9
BRANCH   1  20
ATOM     19  C1  UNL     1      10.078   4.715  24.704  0.00  0.00    +0.034 C 
ATOM     20  C2  UNL     1       9.828   4.600  23.194  0.00  0.00    +0.140 C 
BRANCH  20  21
ATOM     21  C3  UNL     1       9.260   5.883  22.620  0.00  0.00    +0.234 C 
ATOM     22  O1  UNL     1       8.242   5.843  21.874  0.00  0.00    -0.274 OA
ATOM     23  N1  UNL     1       9.841   7.145  22.977  0.00  0.00    -0.283 N 
ATOM     24  H5  UNL     1      10.581   7.164  23.714  0.00  0.00    +0.155 HD
BRANCH  23  25
ATOM     25  C4  UNL     1       9.243   8.391  22.602  0.00  0.00    +0.047 A 
ATOM     26  C5  UNL     1       8.300   8.980  23.457  0.00  0.00    +0.024 A 
ATOM     27  C6  UNL     1       7.693  10.191  23.111  0.00  0.00    +0.002 A 
ATOM     28  C7  UNL     1       8.034  10.828  21.916  0.00  0.00    +0.001 A 
ATOM     29  C8  UNL     1       8.990  10.261  21.069  0.00  0.00    +0.017 A 
ATOM     30  C9  UNL     1       9.602   9.047  21.406  0.00  0.00    +0.039 A 
ATOM     31 BR1  UNL     1      10.975   8.363  20.257  0.00  0.00    -0.048 Br
ENDBRANCH  23  25
ENDBRANCH  20  21
ENDBRANCH   1  20
TORSDOF 4
ENDMDL
MODEL 5
REMARK VINA RESULT:    -6.864     10.092     12.686
REMARK INTER + INTRA:          -9.153
REMARK INTER:                  -8.400
REMARK INTRA:                  -0.753
REMARK UNBOUND:                -0.683
REMARK  Name = /home/qwerty/github/datacon2025hack/step_04_hit_selection/docking/ligands/lig_587.pdb
REMARK  5 active torsions:
REMARK  status: ('A' for Active; 'I' for Inactive)
REMARK    1  A    between atoms: C1_1  and  C2_2
REMARK    2  A    between atoms: C2_2  and  C3_3
REMARK    3  A    between atoms: C2_2  and  N2_13
REMARK    4  A    between atoms: N1_5  and  C4_6
REMARK    5  A    between atoms: C12_17  and  C13_19
REMARK                            x       y       z     vdW  Elec       q    Type
REMARK                         _______ _______ _______ _____ _____    ______ ____
ROOT
ATOM      1  N2  UNL     1      20.669   2.143  32.757  0.00  0.00    -0.289 NA
ATOM      2  C10 UNL     1      21.938   2.893  32.651  0.00  0.00    +0.104 C 
ATOM      3  C11 UNL     1      22.065   3.884  33.809  0.00  0.00    +0.123 C 
ATOM      4  N3  UNL     1      20.869   4.728  33.869  0.00  0.00    -0.294 N 
ATOM      5  C12 UNL     1      20.970   6.086  34.325  0.00  0.00    +0.263 C 
ATOM      6  O2  UNL     1      20.268   6.472  35.299  0.00  0.00    -0.268 OA
ATOM      7  C21 UNL     1      19.566   4.061  33.854  0.00  0.00    +0.123 C 
ATOM      8  C22 UNL     1      19.514   3.069  32.691  0.00  0.00    +0.104 C 
ENDROOT
BRANCH   5   9
ATOM      9  C13 UNL     1      21.862   7.045  33.649  0.00  0.00    +0.103 A 
ATOM     10  C14 UNL     1      21.505   7.844  32.563  0.00  0.00    +0.040 A 
ATOM     11  C15 UNL     1      22.646   8.548  32.250  0.00  0.00    +0.000 A 
ATOM     12  C16 UNL     1      22.881   9.498  31.258  0.00  0.00    +0.010 A 
ATOM     13  C17 UNL     1      24.172  10.053  31.174  0.00  0.00    +0.001 A 
ATOM     14  C18 UNL     1      25.184   9.649  32.074  0.00  0.00    +0.002 A 
ATOM     15  C19 UNL     1      24.915   8.686  33.064  0.00  0.00    +0.026 A 
ATOM     16  C20 UNL     1      23.626   8.157  33.124  0.00  0.00    +0.047 A 
ATOM     17  N4  UNL     1      23.162   7.235  33.982  0.00  0.00    -0.351 N 
ATOM     18  H19 UNL     1      23.704   6.752  34.733  0.00  0.00    +0.166 HD
ENDBRANCH   5   9
BRANCH   1  20
ATOM     19  C1  UNL     1      19.405   0.117  32.040  0.00  0.00    +0.034 C 
ATOM     20  C2  UNL     1      20.609   1.030  31.771  0.00  0.00    +0.140 C 
BRANCH  20  21
ATOM     21  C3  UNL     1      20.642   1.505  30.331  0.00  0.00    +0.234 C 
ATOM     22  O1  UNL     1      19.627   1.358  29.595  0.00  0.00    -0.274 OA
ATOM     23  N1  UNL     1      21.804   2.178  29.826  0.00  0.00    -0.283 N 
ATOM     24  H5  UNL     1      22.569   2.425  30.494  0.00  0.00    +0.155 HD
BRANCH  23  25
ATOM     25  C4  UNL     1      21.825   2.794  28.533  0.00  0.00    +0.047 A 
ATOM     26  C5  UNL     1      22.145   2.015  27.412  0.00  0.00    +0.024 A 
ATOM     27  C6  UNL     1      22.182   2.592  26.139  0.00  0.00    +0.002 A 
ATOM     28  C7  UNL     1      21.885   3.947  25.977  0.00  0.00    +0.001 A 
ATOM     29  C8  UNL     1      21.541   4.726  27.085  0.00  0.00    +0.017 A 
ATOM     30  C9  UNL     1      21.504   4.157  28.365  0.00  0.00    +0.039 A 
ATOM     31 BR1  UNL     1      20.932   5.246  29.835  0.00  0.00    -0.048 Br
ENDBRANCH  23  25
ENDBRANCH  20  21
ENDBRANCH   1  20
TORSDOF 4
ENDMDL
MODEL 6
REMARK VINA RESULT:    -6.832     12.191     13.670
REMARK INTER + INTRA:          -9.113
REMARK INTER:                  -8.378
REMARK INTRA:                  -0.735
REMARK UNBOUND:                -0.683
REMARK  Name = /home/qwerty/github/datacon2025hack/step_04_hit_selection/docking/ligands/lig_587.pdb
REMARK  5 active torsions:
REMARK  status: ('A' for Active; 'I' for Inactive)
REMARK    1  A    between atoms: C1_1  and  C2_2
REMARK    2  A    between atoms: C2_2  and  C3_3
REMARK    3  A    between atoms: C2_2  and  N2_13
REMARK    4  A    between atoms: N1_5  and  C4_6
REMARK    5  A    between atoms: C12_17  and  C13_19
REMARK                            x       y       z     vdW  Elec       q    Type
REMARK                         _______ _______ _______ _____ _____    ______ ____
ROOT
ATOM      1  N2  UNL     1      20.115   1.556  27.713  0.00  0.00    -0.289 NA
ATOM      2  C10 UNL     1      21.364   2.304  27.969  0.00  0.00    +0.104 C 
ATOM      3  C11 UNL     1      21.953   1.900  29.322  0.00  0.00    +0.123 C 
ATOM      4  N3  UNL     1      20.937   2.047  30.367  0.00  0.00    -0.294 N 
ATOM      5  C12 UNL     1      21.325   2.409  31.701  0.00  0.00    +0.263 C 
ATOM      6  O2  UNL     1      21.008   1.665  32.668  0.00  0.00    -0.268 OA
ATOM      7  C21 UNL     1      19.628   1.435  30.131  0.00  0.00    +0.123 C 
ATOM      8  C22 UNL     1      19.107   1.858  28.757  0.00  0.00    +0.104 C 
ENDROOT
BRANCH   5   9
ATOM      9  C13 UNL     1      22.064   3.659  31.959  0.00  0.00    +0.103 A 
ATOM     10  C14 UNL     1      21.695   4.919  31.491  0.00  0.00    +0.040 A 
ATOM     11  C15 UNL     1      22.679   5.769  31.945  0.00  0.00    +0.000 A 
ATOM     12  C16 UNL     1      22.833   7.145  31.787  0.00  0.00    +0.010 A 
ATOM     13  C17 UNL     1      23.962   7.750  32.371  0.00  0.00    +0.001 A 
ATOM     14  C18 UNL     1      24.898   6.973  33.089  0.00  0.00    +0.002 A 
ATOM     15  C19 UNL     1      24.715   5.585  33.231  0.00  0.00    +0.026 A 
ATOM     16  C20 UNL     1      23.586   5.015  32.643  0.00  0.00    +0.047 A 
ATOM     17  N4  UNL     1      23.225   3.722  32.657  0.00  0.00    -0.351 N 
ATOM     18  H19 UNL     1      23.747   2.932  33.096  0.00  0.00    +0.166 HD
ENDBRANCH   5   9
BRANCH   1  20
ATOM     19  C1  UNL     1      20.801   1.954  25.350  0.00  0.00    +0.034 C 
ATOM     20  C2  UNL     1      19.629   1.768  26.323  0.00  0.00    +0.140 C 
BRANCH  20  21
ATOM     21  C3  UNL     1      18.675   0.687  25.851  0.00  0.00    +0.234 C 
ATOM     22  O1  UNL     1      19.123  -0.444  25.514  0.00  0.00    -0.274 OA
ATOM     23  N1  UNL     1      17.262   0.931  25.850  0.00  0.00    -0.283 N 
ATOM     24  H5  UNL     1      16.907   1.816  26.278  0.00  0.00    +0.155 HD
BRANCH  23  25
ATOM     25  C4  UNL     1      16.312  -0.106  25.578  0.00  0.00    +0.047 A 
ATOM     26  C5  UNL     1      15.736  -0.801  26.650  0.00  0.00    +0.024 A 
ATOM     27  C6  UNL     1      14.813  -1.824  26.413  0.00  0.00    +0.002 A 
ATOM     28  C7  UNL     1      14.449  -2.149  25.105  0.00  0.00    +0.001 A 
ATOM     29  C8  UNL     1      14.999  -1.446  24.030  0.00  0.00    +0.017 A 
ATOM     30  C9  UNL     1      15.927  -0.420  24.258  0.00  0.00    +0.039 A 
ATOM     31 BR1  UNL     1      16.577   0.576  22.755  0.00  0.00    -0.048 Br
ENDBRANCH  23  25
ENDBRANCH  20  21
ENDBRANCH   1  20
TORSDOF 4
ENDMDL
MODEL 7
REMARK VINA RESULT:    -6.825      8.552     11.293
REMARK INTER + INTRA:          -9.104
REMARK INTER:                  -8.348
REMARK INTRA:                  -0.756
REMARK UNBOUND:                -0.683
REMARK  Name = /home/qwerty/github/datacon2025hack/step_04_hit_selection/docking/ligands/lig_587.pdb
REMARK  5 active torsions:
REMARK  status: ('A' for Active; 'I' for Inactive)
REMARK    1  A    between atoms: C1_1  and  C2_2
REMARK    2  A    between atoms: C2_2  and  C3_3
REMARK    3  A    between atoms: C2_2  and  N2_13
REMARK    4  A    between atoms: N1_5  and  C4_6
REMARK    5  A    between atoms: C12_17  and  C13_19
REMARK                            x       y       z     vdW  Elec       q    Type
REMARK                         _______ _______ _______ _____ _____    ______ ____
ROOT
ATOM      1  N2  UNL     1       9.721  11.015  26.869  0.00  0.00    -0.289 NA
ATOM      2  C10 UNL     1       9.149  11.129  28.228  0.00  0.00    +0.104 C 
ATOM      3  C11 UNL     1       9.353  12.545  28.769  0.00  0.00    +0.123 C 
ATOM      4  N3  UNL     1      10.770  12.909  28.678  0.00  0.00    -0.294 N 
ATOM      5  C12 UNL     1      11.352  13.783  29.657  0.00  0.00    +0.263 C 
ATOM      6  O2  UNL     1      11.919  14.847  29.287  0.00  0.00    -0.268 OA
ATOM      7  C21 UNL     1      11.441  12.708  27.392  0.00  0.00    +0.123 C 
ATOM      8  C22 UNL     1      11.178  11.285  26.896  0.00  0.00    +0.104 C 
ENDROOT
BRANCH   5   9
ATOM      9  C13 UNL     1      11.322  13.438  31.090  0.00  0.00    +0.103 A 
ATOM     10  C14 UNL     1      11.553  12.166  31.612  0.00  0.00    +0.040 A 
ATOM     11  C15 UNL     1      11.395  12.307  32.973  0.00  0.00    +0.000 A 
ATOM     12  C16 UNL     1      11.509  11.373  34.001  0.00  0.00    +0.010 A 
ATOM     13  C17 UNL     1      11.283  11.816  35.318  0.00  0.00    +0.001 A 
ATOM     14  C18 UNL     1      10.951  13.166  35.571  0.00  0.00    +0.002 A 
ATOM     15  C19 UNL     1      10.843  14.085  34.512  0.00  0.00    +0.026 A 
ATOM     16  C20 UNL     1      11.075  13.617  33.219  0.00  0.00    +0.047 A 
ATOM     17  N4  UNL     1      11.023  14.319  32.075  0.00  0.00    -0.351 N 
ATOM     18  H19 UNL     1      10.779  15.329  31.974  0.00  0.00    +0.166 HD
ENDBRANCH   5   9
BRANCH   1  20
ATOM     19  C1  UNL     1       7.836   9.583  26.087  0.00  0.00    +0.034 C 
ATOM     20  C2  UNL     1       9.358   9.719  26.233  0.00  0.00    +0.140 C 
BRANCH  20  21
ATOM     21  C3  UNL     1      10.071   9.478  24.917  0.00  0.00    +0.234 C 
ATOM     22  O1  UNL     1      10.842   8.487  24.790  0.00  0.00    -0.274 OA
ATOM     23  N1  UNL     1       9.820  10.342  23.799  0.00  0.00    -0.283 N 
ATOM     24  H5  UNL     1       9.065  11.059  23.881  0.00  0.00    +0.155 HD
BRANCH  23  25
ATOM     25  C4  UNL     1      10.333  10.061  22.491  0.00  0.00    +0.047 A 
ATOM     26  C5  UNL     1      11.597  10.553  22.136  0.00  0.00    +0.024 A 
ATOM     27  C6  UNL     1      12.119  10.303  20.863  0.00  0.00    +0.002 A 
ATOM     28  C7  UNL     1      11.388   9.549  19.943  0.00  0.00    +0.001 A 
ATOM     29  C8  UNL     1      10.137   9.035  20.296  0.00  0.00    +0.017 A 
ATOM     30  C9  UNL     1       9.606   9.282  21.569  0.00  0.00    +0.039 A 
ATOM     31 BR1  UNL     1       7.931   8.473  22.035  0.00  0.00    -0.048 Br
ENDBRANCH  23  25
ENDBRANCH  20  21
ENDBRANCH   1  20
TORSDOF 4
ENDMDL
MODEL 8
REMARK VINA RESULT:    -6.802      8.656     13.333
REMARK INTER + INTRA:          -9.075
REMARK INTER:                  -8.513
REMARK INTRA:                  -0.563
REMARK UNBOUND:                -0.683
REMARK  Name = /home/qwerty/github/datacon2025hack/step_04_hit_selection/docking/ligands/lig_587.pdb
REMARK  5 active torsions:
REMARK  status: ('A' for Active; 'I' for Inactive)
REMARK    1  A    between atoms: C1_1  and  C2_2
REMARK    2  A    between atoms: C2_2  and  C3_3
REMARK    3  A    between atoms: C2_2  and  N2_13
REMARK    4  A    between atoms: N1_5  and  C4_6
REMARK    5  A    between atoms: C12_17  and  C13_19
REMARK                            x       y       z     vdW  Elec       q    Type
REMARK                         _______ _______ _______ _____ _____    ______ ____
ROOT
ATOM      1  N2  UNL     1      19.237   9.989  36.309  0.00  0.00    -0.289 NA
ATOM      2  C10 UNL     1      17.833   9.677  35.964  0.00  0.00    +0.104 C 
ATOM      3  C11 UNL     1      17.261  10.761  35.050  0.00  0.00    +0.123 C 
ATOM      4  N3  UNL     1      17.452  12.077  35.664  0.00  0.00    -0.294 N 
ATOM      5  C12 UNL     1      16.493  13.122  35.441  0.00  0.00    +0.263 C 
ATOM      6  O2  UNL     1      16.870  14.223  34.956  0.00  0.00    -0.268 OA
ATOM      7  C21 UNL     1      18.794  12.413  36.144  0.00  0.00    +0.123 C 
ATOM      8  C22 UNL     1      19.318  11.281  37.030  0.00  0.00    +0.104 C 
ENDROOT
BRANCH   5   9
ATOM      9  C13 UNL     1      15.075  12.934  35.800  0.00  0.00    +0.103 A 
ATOM     10  C14 UNL     1      14.587  11.930  36.635  0.00  0.00    +0.040 A 
ATOM     11  C15 UNL     1      13.223  12.122  36.661  0.00  0.00    +0.000 A 
ATOM     12  C16 UNL     1      12.222  11.423  37.332  0.00  0.00    +0.010 A 
ATOM     13  C17 UNL     1      10.893  11.855  37.161  0.00  0.00    +0.001 A 
ATOM     14  C18 UNL     1      10.602  12.962  36.332  0.00  0.00    +0.002 A 
ATOM     15  C19 UNL     1      11.636  13.646  35.666  0.00  0.00    +0.026 A 
ATOM     16  C20 UNL     1      12.942  13.196  35.858  0.00  0.00    +0.047 A 
ATOM     17  N4  UNL     1      14.065  13.700  35.321  0.00  0.00    -0.351 N 
ATOM     18  H19 UNL     1      14.134  14.502  34.656  0.00  0.00    +0.166 HD
ENDBRANCH   5   9
BRANCH   1  20
ATOM     19  C1  UNL     1      18.846   7.982  37.735  0.00  0.00    +0.034 C 
ATOM     20  C2  UNL     1      19.887   8.856  37.022  0.00  0.00    +0.140 C 
BRANCH  20  21
ATOM     21  C3  UNL     1      20.796   8.032  36.132  0.00  0.00    +0.234 C 
ATOM     22  O1  UNL     1      20.335   7.033  35.512  0.00  0.00    -0.274 OA
ATOM     23  N1  UNL     1      22.163   8.425  35.945  0.00  0.00    -0.283 N 
ATOM     24  H5  UNL     1      22.480   9.338  36.343  0.00  0.00    +0.155 HD
BRANCH  23  25
ATOM     25  C4  UNL     1      23.015   7.785  34.988  0.00  0.00    +0.047 A 
ATOM     26  C5  UNL     1      23.782   6.682  35.388  0.00  0.00    +0.024 A 
ATOM     27  C6  UNL     1      24.629   6.043  34.478  0.00  0.00    +0.002 A 
ATOM     28  C7  UNL     1      24.705   6.494  33.158  0.00  0.00    +0.001 A 
ATOM     29  C8  UNL     1      23.926   7.577  32.744  0.00  0.00    +0.017 A 
ATOM     30  C9  UNL     1      23.076   8.225  33.650  0.00  0.00    +0.039 A 
ATOM     31 BR1  UNL     1      21.959   9.643  33.004  0.00  0.00    -0.048 Br
ENDBRANCH  23  25
ENDBRANCH  20  21
ENDBRANCH   1  20
TORSDOF 4
ENDMDL
MODEL 9
REMARK VINA RESULT:    -6.786     11.708     14.433
REMARK INTER + INTRA:          -9.057
REMARK INTER:                  -8.320
REMARK INTRA:                  -0.737
REMARK UNBOUND:                -0.683
REMARK  Name = /home/qwerty/github/datacon2025hack/step_04_hit_selection/docking/ligands/lig_587.pdb
REMARK  5 active torsions:
REMARK  status: ('A' for Active; 'I' for Inactive)
REMARK    1  A    between atoms: C1_1  and  C2_2
REMARK    2  A    between atoms: C2_2  and  C3_3
REMARK    3  A    between atoms: C2_2  and  N2_13
REMARK    4  A    between atoms: N1_5  and  C4_6
REMARK    5  A    between atoms: C12_17  and  C13_19
REMARK                            x       y       z     vdW  Elec       q    Type
REMARK                         _______ _______ _______ _____ _____    ______ ____
ROOT
ATOM      1  N2  UNL     1      21.188   2.703  29.998  0.00  0.00    -0.289 NA
ATOM      2  C10 UNL     1      20.715   1.337  29.688  0.00  0.00    +0.104 C 
ATOM      3  C11 UNL     1      21.171   0.926  28.286  0.00  0.00    +0.123 C 
ATOM      4  N3  UNL     1      20.757   1.942  27.315  0.00  0.00    -0.294 N 
ATOM      5  C12 UNL     1      20.422   1.560  25.972  0.00  0.00    +0.263 C 
ATOM      6  O2  UNL     1      21.032   2.085  25.003  0.00  0.00    -0.268 OA
ATOM      7  C21 UNL     1      21.082   3.339  27.614  0.00  0.00    +0.123 C 
ATOM      8  C22 UNL     1      20.624   3.677  29.034  0.00  0.00    +0.104 C 
ENDROOT
BRANCH   5   9
ATOM      9  C13 UNL     1      19.351   0.581  25.711  0.00  0.00    +0.103 A 
ATOM     10  C14 UNL     1      18.010   0.751  26.053  0.00  0.00    +0.040 A 
ATOM     11  C15 UNL     1      17.391  -0.412  25.650  0.00  0.00    +0.000 A 
ATOM     12  C16 UNL     1      16.056  -0.803  25.732  0.00  0.00    +0.010 A 
ATOM     13  C17 UNL     1      15.714  -2.074  25.231  0.00  0.00    +0.001 A 
ATOM     14  C18 UNL     1      16.703  -2.911  24.668  0.00  0.00    +0.002 A 
ATOM     15  C19 UNL     1      18.043  -2.487  24.601  0.00  0.00    +0.026 A 
ATOM     16  C20 UNL     1      18.351  -1.223  25.103  0.00  0.00    +0.047 A 
ATOM     17  N4  UNL     1      19.555  -0.630  25.137  0.00  0.00    -0.351 N 
ATOM     18  H19 UNL     1      20.460  -1.034  24.809  0.00  0.00    +0.166 HD
ENDBRANCH   5   9
BRANCH   1  20
ATOM     19  C1  UNL     1      21.023   1.808  32.319  0.00  0.00    +0.034 C 
ATOM     20  C2  UNL     1      20.944   3.053  31.424  0.00  0.00    +0.140 C 
BRANCH  20  21
ATOM     21  C3  UNL     1      21.842   4.165  31.929  0.00  0.00    +0.234 C 
ATOM     22  O1  UNL     1      23.025   3.907  32.286  0.00  0.00    -0.274 OA
ATOM     23  N1  UNL     1      21.367   5.519  31.940  0.00  0.00    -0.283 N 
ATOM     24  H5  UNL     1      20.444   5.728  31.497  0.00  0.00    +0.155 HD
BRANCH  23  25
ATOM     25  C4  UNL     1      22.226   6.623  32.245  0.00  0.00    +0.047 A 
ATOM     26  C5  UNL     1      22.882   7.286  31.198  0.00  0.00    +0.024 A 
ATOM     27  C6  UNL     1      23.734   8.361  31.467  0.00  0.00    +0.002 A 
ATOM     28  C7  UNL     1      23.925   8.790  32.782  0.00  0.00    +0.001 A 
ATOM     29  C8  UNL     1      23.257   8.151  33.830  0.00  0.00    +0.017 A 
ATOM     30  C9  UNL     1      22.402   7.071  33.570  0.00  0.00    +0.039 A 
ATOM     31 BR1  UNL     1      21.438   6.294  35.033  0.00  0.00    -0.048 Br
ENDBRANCH  23  25
ENDBRANCH  20  21
ENDBRANCH   1  20
TORSDOF 4
ENDMDL
