REMARK  Name = /home/qwerty/github/datacon2025hack/step_04_hit_selection/docking/ligands/lig_364.pdb
REMARK  6 active torsions:
REMARK  status: ('A' for Active; 'I' for Inactive)
REMARK    1  A    between atoms: C1_2  and  C11_14
REMARK    2  A    between atoms: N1_3  and  C2_4
REMARK    3  A    between atoms: C2_4  and  C3_5
REMARK    4  A    between atoms: C14_17  and  C15_18
REMARK    5  A    between atoms: C17_20  and  C18_21
REMARK    6  A    between atoms: C24_30  and  C25_31
REMARK                            x       y       z     vdW  Elec       q    Type
REMARK                         _______ _______ _______ _____ _____    ______ ____
ROOT
ATOM      1  C15 UNL     1      -2.278  -1.355  -0.388  0.00  0.00    +0.013 A 
ATOM      2  C16 UNL     1      -2.815  -2.652  -0.556  0.00  0.00    +0.039 A 
ATOM      3  C17 UNL     1      -4.162  -2.929  -0.182  0.00  0.00    +0.075 A 
ATOM      4  N4  UNL     1      -4.926  -1.935   0.369  0.00  0.00    -0.228 NA
ATOM      5  C23 UNL     1      -4.394  -0.701   0.533  0.00  0.00    +0.159 A 
ATOM      6  N5  UNL     1      -4.996   0.369   1.061  0.00  0.00    -0.323 N 
ATOM      7  C24 UNL     1      -4.035   1.329   1.009  0.00  0.00    +0.143 A 
ATOM      8  N6  UNL     1      -2.865   0.893   0.463  0.00  0.00    -0.225 NA
ATOM      9  C31 UNL     1      -3.125  -0.395   0.171  0.00  0.00    +0.116 A 
ATOM     10  H17 UNL     1      -5.983   0.439   1.391  0.00  0.00    +0.169 HD
ENDROOT
BRANCH   7  11
ATOM     11  C25 UNL     1      -4.229   2.726   1.457  0.00  0.00    +0.055 A 
ATOM     12  C26 UNL     1      -3.478   3.753   0.855  0.00  0.00    +0.052 A 
ATOM     13  C27 UNL     1      -3.646   5.083   1.253  0.00  0.00    +0.124 A 
ATOM     14  F1  UNL     1      -2.922   6.064   0.659  0.00  0.00    -0.205 F 
ATOM     15  C28 UNL     1      -4.557   5.401   2.261  0.00  0.00    +0.041 A 
ATOM     16  C29 UNL     1      -5.297   4.390   2.878  0.00  0.00    +0.042 A 
ATOM     17  C30 UNL     1      -5.137   3.057   2.485  0.00  0.00    +0.134 A 
ATOM     18  F2  UNL     1      -5.833   2.097   3.145  0.00  0.00    -0.205 F 
ENDBRANCH   7  11
BRANCH   1  22
ATOM     19  C11 UNL     1       1.784  -0.443  -1.501  0.00  0.00    +0.037 A 
ATOM     20  C12 UNL     1       0.737   0.432  -1.840  0.00  0.00    +0.013 A 
ATOM     21  C13 UNL     1      -0.580   0.137  -1.477  0.00  0.00    +0.009 A 
ATOM     22  C14 UNL     1      -0.881  -1.042  -0.775  0.00  0.00    -0.016 A 
ATOM     23  C32 UNL     1       0.160  -1.927  -0.455  0.00  0.00    +0.009 A 
ATOM     24  C33 UNL     1       1.478  -1.632  -0.815  0.00  0.00    +0.013 A 
BRANCH  19  26
ATOM     25  O1  UNL     1       4.016  -1.094  -1.967  0.00  0.00    -0.270 OA
ATOM     26  C1  UNL     1       3.188  -0.146  -1.877  0.00  0.00    +0.244 C 
ATOM     27  N1  UNL     1       3.625   1.201  -2.126  0.00  0.00    -0.306 N 
ATOM     28  H1  UNL     1       2.999   2.004  -1.894  0.00  0.00    +0.149 HD
BRANCH  27  29
ATOM     29  C2  UNL     1       4.986   1.510  -2.557  0.00  0.00    +0.157 C 
BRANCH  29  30
ATOM     30  C3  UNL     1       5.913   1.487  -1.383  0.00  0.00    +0.034 A 
ATOM     31  C4  UNL     1       6.033   2.506  -0.442  0.00  0.00    +0.032 A 
ATOM     32  C5  UNL     1       6.941   2.031   0.480  0.00  0.00    -0.000 A 
ATOM     33  C6  UNL     1       7.444   2.614   1.642  0.00  0.00    +0.010 A 
ATOM     34  C7  UNL     1       8.366   1.872   2.402  0.00  0.00    +0.001 A 
ATOM     35  C8  UNL     1       8.756   0.578   1.989  0.00  0.00    +0.002 A 
ATOM     36  C9  UNL     1       8.227   0.015   0.812  0.00  0.00    +0.026 A 
ATOM     37  C10 UNL     1       7.318   0.776   0.078  0.00  0.00    +0.047 A 
ATOM     38  N2  UNL     1       6.693   0.428  -1.059  0.00  0.00    -0.357 N 
ATOM     39  H9  UNL     1       6.784  -0.473  -1.578  0.00  0.00    +0.166 HD
ENDBRANCH  29  30
ENDBRANCH  27  29
ENDBRANCH  19  26
ENDBRANCH   1  22
BRANCH   3  40
ATOM     40  C18 UNL     1      -4.754  -4.279  -0.360  0.00  0.00    +0.019 A 
ATOM     41  C19 UNL     1      -5.784  -4.715   0.491  0.00  0.00    +0.013 A 
ATOM     42  C20 UNL     1      -6.349  -5.980   0.322  0.00  0.00    +0.020 A 
ATOM     43  C21 UNL     1      -5.888  -6.804  -0.704  0.00  0.00    +0.111 A 
ATOM     44  N3  UNL     1      -4.903  -6.369  -1.533  0.00  0.00    -0.263 NA
ATOM     45  C22 UNL     1      -4.333  -5.143  -1.389  0.00  0.00    +0.120 A 
ENDBRANCH   3  40
TORSDOF 6
