MODEL 1
REMARK VINA RESULT:    -7.402      0.000      0.000
REMARK INTER + INTRA:         -10.301
REMARK INTER:                  -9.566
REMARK INTRA:                  -0.736
REMARK UNBOUND:                -0.736
REMARK  Name = /home/qwerty/github/datacon2025hack/step_04_hit_selection/docking/ligands/lig_801.pdb
REMARK  6 active torsions:
REMARK  status: ('A' for Active; 'I' for Inactive)
REMARK    1  A    between atoms: C1_1  and  C2_2
REMARK    2  A    between atoms: C5_5  and  N1_6
REMARK    3  A    between atoms: C8_9  and  N2_10
REMARK    4  A    between atoms: C12_14  and  C13_15
REMARK    5  A    between atoms: C13_15  and  N3_16
REMARK    6  A    between atoms: N4_19  and  C15_20
REMARK                            x       y       z     vdW  Elec       q    Type
REMARK                         _______ _______ _______ _____ _____    ______ ____
ROOT
ATOM      1  N2  UNL     1       9.031   8.253  21.329  0.00  0.00    -0.291 NA
ATOM      2  C9  UNL     1       8.222   7.306  22.136  0.00  0.00    +0.085 C 
ATOM      3  C10 UNL     1       7.844   6.080  21.304  0.00  0.00    +0.016 C 
ATOM      4  C11 UNL     1       9.085   5.296  20.843  0.00  0.00    +0.007 C 
ATOM      5  C12 UNL     1      10.371   6.154  20.847  0.00  0.00    +0.020 C 
ATOM      6  C21 UNL     1      10.082   7.629  20.480  0.00  0.00    +0.090 C 
ENDROOT
BRANCH   1  10
ATOM      7  N1  UNL     1       9.310   9.625  24.466  0.00  0.00    -0.270 N 
ATOM      8  C6  UNL     1      10.702   9.265  24.234  0.00  0.00    +0.116 C 
ATOM      9  C7  UNL     1      10.908   9.278  22.707  0.00  0.00    +0.048 C 
ATOM     10  C8  UNL     1       9.514   9.453  22.062  0.00  0.00    +0.145 C 
ATOM     11  C22 UNL     1       8.648   9.771  23.221  0.00  0.00    +0.237 C 
ATOM     12  O2  UNL     1       7.457  10.171  23.111  0.00  0.00    -0.274 OA
BRANCH   7  17
ATOM     13  C1  UNL     1       6.717   9.596  29.608  0.00  0.00    +0.044 C 
ATOM     14  C2  UNL     1       7.423   9.595  28.284  0.00  0.00    -0.050 A 
ATOM     15  C3  UNL     1       7.412   8.448  27.478  0.00  0.00    +0.005 A 
ATOM     16  C4  UNL     1       8.037   8.458  26.228  0.00  0.00    +0.024 A 
ATOM     17  C5  UNL     1       8.680   9.617  25.761  0.00  0.00    +0.036 A 
ATOM     18  C23 UNL     1       8.661  10.774  26.558  0.00  0.00    +0.024 A 
ATOM     19  C24 UNL     1       8.034  10.764  27.809  0.00  0.00    +0.005 A 
ENDBRANCH   7  17
ENDBRANCH   1  10
BRANCH   5  20
ATOM     20  C13 UNL     1      11.489   5.538  19.978  0.00  0.00    +0.110 C 
BRANCH  20  21
ATOM     21  N3  UNL     1      11.551   4.077  20.073  0.00  0.00    -0.299 N 
ATOM     22  C14 UNL     1      12.737   3.410  20.526  0.00  0.00    +0.304 C 
ATOM     23  O1  UNL     1      13.750   4.084  20.859  0.00  0.00    -0.253 OA
ATOM     24  N4  UNL     1      12.747   1.979  20.636  0.00  0.00    -0.269 N 
ATOM     25  H20 UNL     1      10.729   3.487  19.814  0.00  0.00    +0.150 HD
ATOM     26  H21 UNL     1      11.825   1.485  20.625  0.00  0.00    +0.156 HD
BRANCH  24  27
ATOM     27  C15 UNL     1      13.928   1.196  20.882  0.00  0.00    +0.035 A 
ATOM     28  C16 UNL     1      14.919   1.033  19.897  0.00  0.00    +0.026 A 
ATOM     29  C17 UNL     1      16.047   0.246  20.154  0.00  0.00    +0.040 A 
ATOM     30  C18 UNL     1      16.188  -0.395  21.388  0.00  0.00    +0.124 A 
ATOM     31  F1  UNL     1      17.281  -1.158  21.634  0.00  0.00    -0.205 F 
ATOM     32  C19 UNL     1      15.197  -0.256  22.363  0.00  0.00    +0.040 A 
ATOM     33  C20 UNL     1      14.068   0.528  22.109  0.00  0.00    +0.026 A 
ENDBRANCH  24  27
ENDBRANCH  20  21
ENDBRANCH   5  20
TORSDOF 5
ENDMDL
MODEL 2
REMARK VINA RESULT:    -7.370      4.417      8.163
REMARK INTER + INTRA:         -10.260
REMARK INTER:                  -8.787
REMARK INTRA:                  -1.474
REMARK UNBOUND:                -0.736
REMARK  Name = /home/qwerty/github/datacon2025hack/step_04_hit_selection/docking/ligands/lig_801.pdb
REMARK  6 active torsions:
REMARK  status: ('A' for Active; 'I' for Inactive)
REMARK    1  A    between atoms: C1_1  and  C2_2
REMARK    2  A    between atoms: C5_5  and  N1_6
REMARK    3  A    between atoms: C8_9  and  N2_10
REMARK    4  A    between atoms: C12_14  and  C13_15
REMARK    5  A    between atoms: C13_15  and  N3_16
REMARK    6  A    between atoms: N4_19  and  C15_20
REMARK                            x       y       z     vdW  Elec       q    Type
REMARK                         _______ _______ _______ _____ _____    ______ ____
ROOT
ATOM      1  N2  UNL     1      13.482   1.247  21.605  0.00  0.00    -0.291 NA
ATOM      2  C9  UNL     1      14.845   0.773  21.957  0.00  0.00    +0.085 C 
ATOM      3  C10 UNL     1      15.739   0.740  20.717  0.00  0.00    +0.016 C 
ATOM      4  C11 UNL     1      15.919   2.139  20.104  0.00  0.00    +0.007 C 
ATOM      5  C12 UNL     1      14.796   3.121  20.511  0.00  0.00    +0.020 C 
ATOM      6  C21 UNL     1      13.434   2.406  20.673  0.00  0.00    +0.090 C 
ENDROOT
BRANCH   1  10
ATOM      7  N1  UNL     1      10.368   2.399  22.482  0.00  0.00    -0.270 N 
ATOM      8  C6  UNL     1      10.112   0.966  22.506  0.00  0.00    +0.116 C 
ATOM      9  C7  UNL     1      11.460   0.286  22.812  0.00  0.00    +0.048 C 
ATOM     10  C8  UNL     1      12.547   1.384  22.751  0.00  0.00    +0.145 C 
ATOM     11  C22 UNL     1      11.754   2.633  22.664  0.00  0.00    +0.237 C 
ATOM     12  O2  UNL     1      12.254   3.784  22.782  0.00  0.00    -0.274 OA
BRANCH   7  17
ATOM     13  C1  UNL     1       6.391   6.295  21.008  0.00  0.00    +0.044 C 
ATOM     14  C2  UNL     1       7.447   5.306  21.406  0.00  0.00    -0.050 A 
ATOM     15  C3  UNL     1       7.339   4.605  22.616  0.00  0.00    +0.005 A 
ATOM     16  C4  UNL     1       8.302   3.656  22.970  0.00  0.00    +0.024 A 
ATOM     17  C5  UNL     1       9.387   3.388  22.118  0.00  0.00    +0.036 A 
ATOM     18  C23 UNL     1       9.474   4.071  20.892  0.00  0.00    +0.024 A 
ATOM     19  C24 UNL     1       8.510   5.020  20.538  0.00  0.00    +0.005 A 
ENDBRANCH   7  17
ENDBRANCH   1  10
BRANCH   5  20
ATOM     20  C13 UNL     1      14.714   4.341  19.568  0.00  0.00    +0.110 C 
BRANCH  20  21
ATOM     21  N3  UNL     1      14.409   5.591  20.271  0.00  0.00    -0.299 N 
ATOM     22  C14 UNL     1      13.064   6.076  20.377  0.00  0.00    +0.304 C 
ATOM     23  O1  UNL     1      12.116   5.419  19.866  0.00  0.00    -0.253 OA
ATOM     24  N4  UNL     1      12.803   7.287  21.102  0.00  0.00    -0.269 N 
ATOM     25  H20 UNL     1      15.167   6.156  20.714  0.00  0.00    +0.150 HD
ATOM     26  H21 UNL     1      13.553   7.644  21.736  0.00  0.00    +0.156 HD
BRANCH  24  27
ATOM     27  C15 UNL     1      11.537   7.970  21.104  0.00  0.00    +0.035 A 
ATOM     28  C16 UNL     1      11.238   8.965  20.153  0.00  0.00    +0.026 A 
ATOM     29  C17 UNL     1      10.008   9.631  20.193  0.00  0.00    +0.040 A 
ATOM     30  C18 UNL     1       9.075   9.321  21.186  0.00  0.00    +0.124 A 
ATOM     31  F1  UNL     1       7.885   9.970  21.223  0.00  0.00    -0.205 F 
ATOM     32  C19 UNL     1       9.374   8.352  22.146  0.00  0.00    +0.040 A 
ATOM     33  C20 UNL     1      10.602   7.685  22.111  0.00  0.00    +0.026 A 
ENDBRANCH  24  27
ENDBRANCH  20  21
ENDBRANCH   5  20
TORSDOF 5
ENDMDL
MODEL 3
REMARK VINA RESULT:    -7.335     12.897     15.461
REMARK INTER + INTRA:         -10.215
REMARK INTER:                  -9.611
REMARK INTRA:                  -0.603
REMARK UNBOUND:                -0.736
REMARK  Name = /home/qwerty/github/datacon2025hack/step_04_hit_selection/docking/ligands/lig_801.pdb
REMARK  6 active torsions:
REMARK  status: ('A' for Active; 'I' for Inactive)
REMARK    1  A    between atoms: C1_1  and  C2_2
REMARK    2  A    between atoms: C5_5  and  N1_6
REMARK    3  A    between atoms: C8_9  and  N2_10
REMARK    4  A    between atoms: C12_14  and  C13_15
REMARK    5  A    between atoms: C13_15  and  N3_16
REMARK    6  A    between atoms: N4_19  and  C15_20
REMARK                            x       y       z     vdW  Elec       q    Type
REMARK                         _______ _______ _______ _____ _____    ______ ____
ROOT
ATOM      1  N2  UNL     1      15.581  12.964  36.638  0.00  0.00    -0.291 NA
ATOM      2  C9  UNL     1      16.325  13.191  35.374  0.00  0.00    +0.085 C 
ATOM      3  C10 UNL     1      17.832  13.222  35.636  0.00  0.00    +0.016 C 
ATOM      4  C11 UNL     1      18.342  11.883  36.197  0.00  0.00    +0.007 C 
ATOM      5  C12 UNL     1      17.222  11.042  36.850  0.00  0.00    +0.020 C 
ATOM      6  C21 UNL     1      16.159  11.930  37.539  0.00  0.00    +0.090 C 
ENDROOT
BRANCH   1  10
ATOM      7  N1  UNL     1      13.058  12.848  34.311  0.00  0.00    -0.270 N 
ATOM      8  C6  UNL     1      13.082  11.449  34.713  0.00  0.00    +0.116 C 
ATOM      9  C7  UNL     1      13.619  11.418  36.157  0.00  0.00    +0.048 C 
ATOM     10  C8  UNL     1      14.107  12.847  36.490  0.00  0.00    +0.145 C 
ATOM     11  C22 UNL     1      13.607  13.645  35.346  0.00  0.00    +0.237 C 
ATOM     12  O2  UNL     1      13.629  14.905  35.314  0.00  0.00    -0.274 OA
BRANCH   7  17
ATOM     13  C1  UNL     1      11.704  14.582  28.988  0.00  0.00    +0.044 C 
ATOM     14  C2  UNL     1      12.058  14.164  30.385  0.00  0.00    -0.050 A 
ATOM     15  C3  UNL     1      11.050  13.808  31.292  0.00  0.00    +0.005 A 
ATOM     16  C4  UNL     1      11.380  13.382  32.583  0.00  0.00    +0.024 A 
ATOM     17  C5  UNL     1      12.724  13.300  32.984  0.00  0.00    +0.036 A 
ATOM     18  C23 UNL     1      13.732  13.627  32.061  0.00  0.00    +0.024 A 
ATOM     19  C24 UNL     1      13.401  14.052  30.770  0.00  0.00    +0.005 A 
ENDBRANCH   7  17
ENDBRANCH   1  10
BRANCH   5  20
ATOM     20  C13 UNL     1      17.781   9.953  37.792  0.00  0.00    +0.110 C 
BRANCH  20  21
ATOM     21  N3  UNL     1      19.245   9.890  37.793  0.00  0.00    -0.299 N 
ATOM     22  C14 UNL     1      19.957   9.105  36.827  0.00  0.00    +0.304 C 
ATOM     23  O1  UNL     1      19.322   8.458  35.950  0.00  0.00    -0.253 OA
ATOM     24  N4  UNL     1      21.393   9.096  36.841  0.00  0.00    -0.269 N 
ATOM     25  H20 UNL     1      19.804  10.419  38.498  0.00  0.00    +0.150 HD
ATOM     26  H21 UNL     1      21.877   9.846  37.385  0.00  0.00    +0.156 HD
BRANCH  24  27
ATOM     27  C15 UNL     1      22.202   8.200  36.060  0.00  0.00    +0.035 A 
ATOM     28  C16 UNL     1      22.747   7.028  36.618  0.00  0.00    +0.026 A 
ATOM     29  C17 UNL     1      23.551   6.185  35.843  0.00  0.00    +0.040 A 
ATOM     30  C18 UNL     1      23.829   6.511  34.513  0.00  0.00    +0.124 A 
ATOM     31  F1  UNL     1      24.611   5.694  33.764  0.00  0.00    -0.205 F 
ATOM     32  C19 UNL     1      23.311   7.684  33.959  0.00  0.00    +0.040 A 
ATOM     33  C20 UNL     1      22.508   8.529  34.731  0.00  0.00    +0.026 A 
ENDBRANCH  24  27
ENDBRANCH  20  21
ENDBRANCH   5  20
TORSDOF 5
ENDMDL
MODEL 4
REMARK VINA RESULT:    -7.289      5.388     10.281
REMARK INTER + INTRA:         -10.156
REMARK INTER:                  -8.728
REMARK INTRA:                  -1.428
REMARK UNBOUND:                -0.736
REMARK  Name = /home/qwerty/github/datacon2025hack/step_04_hit_selection/docking/ligands/lig_801.pdb
REMARK  6 active torsions:
REMARK  status: ('A' for Active; 'I' for Inactive)
REMARK    1  A    between atoms: C1_1  and  C2_2
REMARK    2  A    between atoms: C5_5  and  N1_6
REMARK    3  A    between atoms: C8_9  and  N2_10
REMARK    4  A    between atoms: C12_14  and  C13_15
REMARK    5  A    between atoms: C13_15  and  N3_16
REMARK    6  A    between atoms: N4_19  and  C15_20
REMARK                            x       y       z     vdW  Elec       q    Type
REMARK                         _______ _______ _______ _____ _____    ______ ____
ROOT
ATOM      1  N2  UNL     1      16.592  -1.210  24.816  0.00  0.00    -0.291 NA
ATOM      2  C9  UNL     1      16.139  -2.588  24.503  0.00  0.00    +0.085 C 
ATOM      3  C10 UNL     1      15.152  -3.082  25.562  0.00  0.00    +0.016 C 
ATOM      4  C11 UNL     1      13.881  -2.216  25.608  0.00  0.00    +0.007 C 
ATOM      5  C12 UNL     1      14.095  -0.807  25.007  0.00  0.00    +0.020 C 
ATOM      6  C21 UNL     1      15.525  -0.278  25.270  0.00  0.00    +0.090 C 
ENDROOT
BRANCH   1  10
ATOM      7  N1  UNL     1      16.862   1.360  22.553  0.00  0.00    -0.270 N 
ATOM      8  C6  UNL     1      17.751   1.858  23.592  0.00  0.00    +0.116 C 
ATOM      9  C7  UNL     1      18.292   0.620  24.334  0.00  0.00    +0.048 C 
ATOM     10  C8  UNL     1      17.504  -0.603  23.812  0.00  0.00    +0.145 C 
ATOM     11  C22 UNL     1      16.757  -0.050  22.658  0.00  0.00    +0.237 C 
ATOM     12  O2  UNL     1      16.128  -0.762  21.830  0.00  0.00    -0.274 OA
BRANCH   7  17
ATOM     13  C1  UNL     1      13.611   4.674  19.144  0.00  0.00    +0.044 C 
ATOM     14  C2  UNL     1      14.475   3.839  20.042  0.00  0.00    -0.050 A 
ATOM     15  C3  UNL     1      14.041   3.510  21.334  0.00  0.00    +0.005 A 
ATOM     16  C4  UNL     1      14.829   2.701  22.159  0.00  0.00    +0.024 A 
ATOM     17  C5  UNL     1      16.061   2.204  21.703  0.00  0.00    +0.036 A 
ATOM     18  C23 UNL     1      16.478   2.511  20.396  0.00  0.00    +0.024 A 
ATOM     19  C24 UNL     1      15.689   3.319  19.571  0.00  0.00    +0.005 A 
ENDBRANCH   7  17
ENDBRANCH   1  10
BRANCH   5  20
ATOM     20  C13 UNL     1      13.005   0.192  25.453  0.00  0.00    +0.110 C 
BRANCH  20  21
ATOM     21  N3  UNL     1      11.865   0.247  24.533  0.00  0.00    -0.299 N 
ATOM     22  C14 UNL     1      11.446   1.484  23.942  0.00  0.00    +0.304 C 
ATOM     23  O1  UNL     1      12.066   2.551  24.206  0.00  0.00    -0.253 OA
ATOM     24  N4  UNL     1      10.346   1.492  23.019  0.00  0.00    -0.269 N 
ATOM     25  H20 UNL     1      11.334  -0.616  24.284  0.00  0.00    +0.150 HD
ATOM     26  H21 UNL     1      10.046   0.576  22.615  0.00  0.00    +0.156 HD
BRANCH  24  27
ATOM     27  C15 UNL     1       9.714   2.686  22.526  0.00  0.00    +0.035 A 
ATOM     28  C16 UNL     1      10.209   3.366  21.397  0.00  0.00    +0.026 A 
ATOM     29  C17 UNL     1       9.589   4.539  20.952  0.00  0.00    +0.040 A 
ATOM     30  C18 UNL     1       8.482   5.049  21.635  0.00  0.00    +0.124 A 
ATOM     31  F1  UNL     1       7.885   6.187  21.203  0.00  0.00    -0.205 F 
ATOM     32  C19 UNL     1       8.000   4.393  22.770  0.00  0.00    +0.040 A 
ATOM     33  C20 UNL     1       8.617   3.221  23.218  0.00  0.00    +0.026 A 
ENDBRANCH  24  27
ENDBRANCH  20  21
ENDBRANCH   5  20
TORSDOF 5
ENDMDL
MODEL 5
REMARK VINA RESULT:    -7.236     14.149     18.065
REMARK INTER + INTRA:         -10.087
REMARK INTER:                  -9.391
REMARK INTRA:                  -0.696
REMARK UNBOUND:                -0.736
REMARK  Name = /home/qwerty/github/datacon2025hack/step_04_hit_selection/docking/ligands/lig_801.pdb
REMARK  6 active torsions:
REMARK  status: ('A' for Active; 'I' for Inactive)
REMARK    1  A    between atoms: C1_1  and  C2_2
REMARK    2  A    between atoms: C5_5  and  N1_6
REMARK    3  A    between atoms: C8_9  and  N2_10
REMARK    4  A    between atoms: C12_14  and  C13_15
REMARK    5  A    between atoms: C13_15  and  N3_16
REMARK    6  A    between atoms: N4_19  and  C15_20
REMARK                            x       y       z     vdW  Elec       q    Type
REMARK                         _______ _______ _______ _____ _____    ______ ____
ROOT
ATOM      1  N2  UNL     1      22.211   7.672  34.056  0.00  0.00    -0.291 NA
ATOM      2  C9  UNL     1      22.985   6.434  34.326  0.00  0.00    +0.085 C 
ATOM      3  C10 UNL     1      23.684   6.523  35.683  0.00  0.00    +0.016 C 
ATOM      4  C11 UNL     1      22.676   6.655  36.838  0.00  0.00    +0.007 C 
ATOM      5  C12 UNL     1      21.301   7.189  36.374  0.00  0.00    +0.020 C 
ATOM      6  C21 UNL     1      21.437   8.201  35.212  0.00  0.00    +0.090 C 
ENDROOT
BRANCH   1  10
ATOM      7  N1  UNL     1      21.081   5.625  31.540  0.00  0.00    -0.270 N 
ATOM      8  C6  UNL     1      19.831   5.848  32.252  0.00  0.00    +0.116 C 
ATOM      9  C7  UNL     1      19.965   7.212  32.956  0.00  0.00    +0.048 C 
ATOM     10  C8  UNL     1      21.434   7.666  32.790  0.00  0.00    +0.145 C 
ATOM     11  C22 UNL     1      21.977   6.688  31.819  0.00  0.00    +0.237 C 
ATOM     12  O2  UNL     1      23.103   6.809  31.265  0.00  0.00    -0.274 OA
BRANCH   7  17
ATOM     13  C1  UNL     1      22.464   0.772  28.766  0.00  0.00    +0.044 C 
ATOM     14  C2  UNL     1      22.071   2.025  29.490  0.00  0.00    -0.050 A 
ATOM     15  C3  UNL     1      22.213   2.111  30.882  0.00  0.00    +0.005 A 
ATOM     16  C4  UNL     1      21.882   3.292  31.554  0.00  0.00    +0.024 A 
ATOM     17  C5  UNL     1      21.407   4.407  30.844  0.00  0.00    +0.036 A 
ATOM     18  C23 UNL     1      21.296   4.327  29.445  0.00  0.00    +0.024 A 
ATOM     19  C24 UNL     1      21.629   3.146  28.773  0.00  0.00    +0.005 A 
ENDBRANCH   7  17
ENDBRANCH   1  10
BRANCH   5  20
ATOM     20  C13 UNL     1      20.464   7.746  37.546  0.00  0.00    +0.110 C 
BRANCH  20  21
ATOM     21  N3  UNL     1      20.385   9.209  37.553  0.00  0.00    -0.299 N 
ATOM     22  C14 UNL     1      19.199   9.893  37.127  0.00  0.00    +0.304 C 
ATOM     23  O1  UNL     1      18.195   9.232  36.744  0.00  0.00    -0.253 OA
ATOM     24  N4  UNL     1      19.149  11.327  37.180  0.00  0.00    -0.269 N 
ATOM     25  H20 UNL     1      21.193   9.788  37.872  0.00  0.00    +0.150 HD
ATOM     26  H21 UNL     1      19.873  11.816  37.754  0.00  0.00    +0.156 HD
BRANCH  24  27
ATOM     27  C15 UNL     1      18.102  12.120  36.597  0.00  0.00    +0.035 A 
ATOM     28  C16 UNL     1      18.297  12.822  35.392  0.00  0.00    +0.026 A 
ATOM     29  C17 UNL     1      17.268  13.607  34.858  0.00  0.00    +0.040 A 
ATOM     30  C18 UNL     1      16.046  13.709  35.527  0.00  0.00    +0.124 A 
ATOM     31  F1  UNL     1      15.052  14.472  35.009  0.00  0.00    -0.205 F 
ATOM     32  C19 UNL     1      15.853  13.034  36.735  0.00  0.00    +0.040 A 
ATOM     33  C20 UNL     1      16.878  12.251  37.272  0.00  0.00    +0.026 A 
ENDBRANCH  24  27
ENDBRANCH  20  21
ENDBRANCH   5  20
TORSDOF 5
ENDMDL
MODEL 6
REMARK VINA RESULT:    -7.137     13.629     17.839
REMARK INTER + INTRA:          -9.959
REMARK INTER:                  -9.240
REMARK INTRA:                  -0.719
REMARK UNBOUND:                -0.736
REMARK  Name = /home/qwerty/github/datacon2025hack/step_04_hit_selection/docking/ligands/lig_801.pdb
REMARK  6 active torsions:
REMARK  status: ('A' for Active; 'I' for Inactive)
REMARK    1  A    between atoms: C1_1  and  C2_2
REMARK    2  A    between atoms: C5_5  and  N1_6
REMARK    3  A    between atoms: C8_9  and  N2_10
REMARK    4  A    between atoms: C12_14  and  C13_15
REMARK    5  A    between atoms: C13_15  and  N3_16
REMARK    6  A    between atoms: N4_19  and  C15_20
REMARK                            x       y       z     vdW  Elec       q    Type
REMARK                         _______ _______ _______ _____ _____    ______ ____
ROOT
ATOM      1  N2  UNL     1      20.873   6.060  33.834  0.00  0.00    -0.291 NA
ATOM      2  C9  UNL     1      22.324   6.362  33.756  0.00  0.00    +0.085 C 
ATOM      3  C10 UNL     1      22.597   7.802  34.192  0.00  0.00    +0.016 C 
ATOM      4  C11 UNL     1      22.190   8.044  35.656  0.00  0.00    +0.007 C 
ATOM      5  C12 UNL     1      21.156   7.014  36.167  0.00  0.00    +0.020 C 
ATOM      6  C21 UNL     1      20.183   6.569  35.050  0.00  0.00    +0.090 C 
ENDROOT
BRANCH   1  10
ATOM      7  N1  UNL     1      21.248   3.621  31.445  0.00  0.00    -0.270 N 
ATOM      8  C6  UNL     1      22.128   3.089  32.476  0.00  0.00    +0.116 C 
ATOM      9  C7  UNL     1      21.600   3.623  33.821  0.00  0.00    +0.048 C 
ATOM     10  C8  UNL     1      20.501   4.662  33.497  0.00  0.00    +0.145 C 
ATOM     11  C22 UNL     1      20.296   4.486  32.040  0.00  0.00    +0.237 C 
ATOM     12  O2  UNL     1      19.346   5.017  31.403  0.00  0.00    -0.274 OA
BRANCH   7  17
ATOM     13  C1  UNL     1      22.192   2.927  25.807  0.00  0.00    +0.044 C 
ATOM     14  C2  UNL     1      21.912   3.104  27.270  0.00  0.00    -0.050 A 
ATOM     15  C3  UNL     1      21.986   2.009  28.141  0.00  0.00    +0.005 A 
ATOM     16  C4  UNL     1      21.762   2.179  29.511  0.00  0.00    +0.024 A 
ATOM     17  C5  UNL     1      21.464   3.450  30.031  0.00  0.00    +0.036 A 
ATOM     18  C23 UNL     1      21.422   4.551  29.158  0.00  0.00    +0.024 A 
ATOM     19  C24 UNL     1      21.647   4.379  27.789  0.00  0.00    +0.005 A 
ENDBRANCH   7  17
ENDBRANCH   1  10
BRANCH   5  20
ATOM     20  C13 UNL     1      20.418   7.503  37.433  0.00  0.00    +0.110 C 
BRANCH  20  21
ATOM     21  N3  UNL     1      20.353   8.963  37.532  0.00  0.00    -0.299 N 
ATOM     22  C14 UNL     1      19.194   9.688  37.099  0.00  0.00    +0.304 C 
ATOM     23  O1  UNL     1      18.203   9.066  36.627  0.00  0.00    -0.253 OA
ATOM     24  N4  UNL     1      19.156  11.116  37.243  0.00  0.00    -0.269 N 
ATOM     25  H20 UNL     1      21.151   9.510  37.925  0.00  0.00    +0.150 HD
ATOM     26  H21 UNL     1      19.857  11.557  37.880  0.00  0.00    +0.156 HD
BRANCH  24  27
ATOM     27  C15 UNL     1      18.144  11.959  36.666  0.00  0.00    +0.035 A 
ATOM     28  C16 UNL     1      16.850  12.034  37.215  0.00  0.00    +0.026 A 
ATOM     29  C17 UNL     1      15.877  12.844  36.619  0.00  0.00    +0.040 A 
ATOM     30  C18 UNL     1      16.182  13.573  35.466  0.00  0.00    +0.124 A 
ATOM     31  F1  UNL     1      15.236  14.356  34.890  0.00  0.00    -0.205 F 
ATOM     32  C19 UNL     1      17.457  13.486  34.903  0.00  0.00    +0.040 A 
ATOM     33  C20 UNL     1      18.431  12.677  35.494  0.00  0.00    +0.026 A 
ENDBRANCH  24  27
ENDBRANCH  20  21
ENDBRANCH   5  20
TORSDOF 5
ENDMDL
MODEL 7
REMARK VINA RESULT:    -7.117     13.683     18.134
REMARK INTER + INTRA:          -9.933
REMARK INTER:                  -8.905
REMARK INTRA:                  -1.028
REMARK UNBOUND:                -0.736
REMARK  Name = /home/qwerty/github/datacon2025hack/step_04_hit_selection/docking/ligands/lig_801.pdb
REMARK  6 active torsions:
REMARK  status: ('A' for Active; 'I' for Inactive)
REMARK    1  A    between atoms: C1_1  and  C2_2
REMARK    2  A    between atoms: C5_5  and  N1_6
REMARK    3  A    between atoms: C8_9  and  N2_10
REMARK    4  A    between atoms: C12_14  and  C13_15
REMARK    5  A    between atoms: C13_15  and  N3_16
REMARK    6  A    between atoms: N4_19  and  C15_20
REMARK                            x       y       z     vdW  Elec       q    Type
REMARK                         _______ _______ _______ _____ _____    ______ ____
ROOT
ATOM      1  N2  UNL     1      20.050   8.220  35.935  0.00  0.00    -0.291 NA
ATOM      2  C9  UNL     1      20.914   9.418  35.778  0.00  0.00    +0.085 C 
ATOM      3  C10 UNL     1      20.065  10.662  35.515  0.00  0.00    +0.016 C 
ATOM      4  C11 UNL     1      19.120  10.968  36.689  0.00  0.00    +0.007 C 
ATOM      5  C12 UNL     1      18.849   9.733  37.579  0.00  0.00    +0.020 C 
ATOM      6  C21 UNL     1      18.827   8.423  36.757  0.00  0.00    +0.090 C 
ENDROOT
BRANCH   1  10
ATOM      7  N1  UNL     1      21.656   5.529  34.529  0.00  0.00    -0.270 N 
ATOM      8  C6  UNL     1      22.808   6.265  35.031  0.00  0.00    +0.116 C 
ATOM      9  C7  UNL     1      22.310   7.092  36.232  0.00  0.00    +0.048 C 
ATOM     10  C8  UNL     1      20.769   6.963  36.264  0.00  0.00    +0.145 C 
ATOM     11  C22 UNL     1      20.503   5.902  35.265  0.00  0.00    +0.237 C 
ATOM     12  O2  UNL     1      19.377   5.357  35.112  0.00  0.00    -0.274 OA
BRANCH   7  17
ATOM     13  C1  UNL     1      21.638   2.310  29.754  0.00  0.00    +0.044 C 
ATOM     14  C2  UNL     1      21.678   3.148  30.997  0.00  0.00    -0.050 A 
ATOM     15  C3  UNL     1      21.584   4.544  30.911  0.00  0.00    +0.005 A 
ATOM     16  C4  UNL     1      21.583   5.325  32.072  0.00  0.00    +0.024 A 
ATOM     17  C5  UNL     1      21.671   4.721  33.337  0.00  0.00    +0.036 A 
ATOM     18  C23 UNL     1      21.733   3.319  33.420  0.00  0.00    +0.024 A 
ATOM     19  C24 UNL     1      21.733   2.539  32.259  0.00  0.00    +0.005 A 
ENDBRANCH   7  17
ENDBRANCH   1  10
BRANCH   5  20
ATOM     20  C13 UNL     1      17.587   9.905  38.452  0.00  0.00    +0.110 C 
BRANCH  20  21
ATOM     21  N3  UNL     1      16.349   9.559  37.747  0.00  0.00    -0.299 N 
ATOM     22  C14 UNL     1      15.425  10.571  37.327  0.00  0.00    +0.304 C 
ATOM     23  O1  UNL     1      15.674  11.786  37.557  0.00  0.00    -0.253 OA
ATOM     24  N4  UNL     1      14.239  10.195  36.610  0.00  0.00    -0.269 N 
ATOM     25  H20 UNL     1      16.115   8.565  37.532  0.00  0.00    +0.150 HD
ATOM     26  H21 UNL     1      14.206   9.234  36.200  0.00  0.00    +0.156 HD
BRANCH  24  27
ATOM     27  C15 UNL     1      13.153  11.090  36.320  0.00  0.00    +0.035 A 
ATOM     28  C16 UNL     1      12.097  11.284  37.230  0.00  0.00    +0.026 A 
ATOM     29  C17 UNL     1      11.039  12.143  36.912  0.00  0.00    +0.040 A 
ATOM     30  C18 UNL     1      11.019  12.804  35.681  0.00  0.00    +0.124 A 
ATOM     31  F1  UNL     1       9.992  13.634  35.374  0.00  0.00    -0.205 F 
ATOM     32  C19 UNL     1      12.052  12.599  34.762  0.00  0.00    +0.040 A 
ATOM     33  C20 UNL     1      13.109  11.740  35.076  0.00  0.00    +0.026 A 
ENDBRANCH  24  27
ENDBRANCH  20  21
ENDBRANCH   5  20
TORSDOF 5
ENDMDL
MODEL 8
REMARK VINA RESULT:    -7.057     13.511     15.059
REMARK INTER + INTRA:          -9.855
REMARK INTER:                  -8.805
REMARK INTRA:                  -1.050
REMARK UNBOUND:                -0.736
REMARK  Name = /home/qwerty/github/datacon2025hack/step_04_hit_selection/docking/ligands/lig_801.pdb
REMARK  6 active torsions:
REMARK  status: ('A' for Active; 'I' for Inactive)
REMARK    1  A    between atoms: C1_1  and  C2_2
REMARK    2  A    between atoms: C5_5  and  N1_6
REMARK    3  A    between atoms: C8_9  and  N2_10
REMARK    4  A    between atoms: C12_14  and  C13_15
REMARK    5  A    between atoms: C13_15  and  N3_16
REMARK    6  A    between atoms: N4_19  and  C15_20
REMARK                            x       y       z     vdW  Elec       q    Type
REMARK                         _______ _______ _______ _____ _____    ______ ____
ROOT
ATOM      1  N2  UNL     1      20.648   8.883  35.260  0.00  0.00    -0.291 NA
ATOM      2  C9  UNL     1      20.987   8.834  36.705  0.00  0.00    +0.085 C 
ATOM      3  C10 UNL     1      21.410   7.422  37.109  0.00  0.00    +0.016 C 
ATOM      4  C11 UNL     1      22.673   6.965  36.358  0.00  0.00    +0.007 C 
ATOM      5  C12 UNL     1      22.908   7.752  35.048  0.00  0.00    +0.020 C 
ATOM      6  C21 UNL     1      21.577   8.145  34.364  0.00  0.00    +0.090 C 
ENDROOT
BRANCH   1  10
ATOM      7  N1  UNL     1      18.316  11.391  35.523  0.00  0.00    -0.270 N 
ATOM      8  C6  UNL     1      19.422  12.013  36.237  0.00  0.00    +0.116 C 
ATOM      9  C7  UNL     1      20.713  11.393  35.667  0.00  0.00    +0.048 C 
ATOM     10  C8  UNL     1      20.288  10.229  34.743  0.00  0.00    +0.145 C 
ATOM     11  C22 UNL     1      18.820  10.402  34.641  0.00  0.00    +0.237 C 
ATOM     12  O2  UNL     1      18.099   9.767  33.826  0.00  0.00    -0.274 OA
BRANCH   7  17
ATOM     13  C1  UNL     1      12.744  12.219  36.721  0.00  0.00    +0.044 C 
ATOM     14  C2  UNL     1      14.203  12.024  36.437  0.00  0.00    -0.050 A 
ATOM     15  C3  UNL     1      14.874  10.895  36.927  0.00  0.00    +0.005 A 
ATOM     16  C4  UNL     1      16.226  10.692  36.631  0.00  0.00    +0.024 A 
ATOM     17  C5  UNL     1      16.927  11.613  35.835  0.00  0.00    +0.036 A 
ATOM     18  C23 UNL     1      16.242  12.727  35.320  0.00  0.00    +0.024 A 
ATOM     19  C24 UNL     1      14.891  12.929  35.615  0.00  0.00    +0.005 A 
ENDBRANCH   7  17
ENDBRANCH   1  10
BRANCH   5  20
ATOM     20  C13 UNL     1      23.871   7.019  34.089  0.00  0.00    +0.110 C 
BRANCH  20  21
ATOM     21  N3  UNL     1      23.675   5.567  34.076  0.00  0.00    -0.299 N 
ATOM     22  C14 UNL     1      22.957   4.922  33.016  0.00  0.00    +0.304 C 
ATOM     23  O1  UNL     1      22.486   5.607  32.067  0.00  0.00    -0.253 OA
ATOM     24  N4  UNL     1      22.815   3.494  33.022  0.00  0.00    -0.269 N 
ATOM     25  H20 UNL     1      24.058   4.967  34.840  0.00  0.00    +0.150 HD
ATOM     26  H21 UNL     1      23.443   2.947  33.654  0.00  0.00    +0.156 HD
BRANCH  24  27
ATOM     27  C15 UNL     1      21.954   2.764  32.131  0.00  0.00    +0.035 A 
ATOM     28  C16 UNL     1      22.425   2.261  30.903  0.00  0.00    +0.026 A 
ATOM     29  C17 UNL     1      21.559   1.575  30.044  0.00  0.00    +0.040 A 
ATOM     30  C18 UNL     1      20.218   1.397  30.395  0.00  0.00    +0.124 A 
ATOM     31  F1  UNL     1      19.381   0.734  29.559  0.00  0.00    -0.205 F 
ATOM     32  C19 UNL     1      19.738   1.914  31.601  0.00  0.00    +0.040 A 
ATOM     33  C20 UNL     1      20.600   2.601  32.461  0.00  0.00    +0.026 A 
ENDBRANCH  24  27
ENDBRANCH  20  21
ENDBRANCH   5  20
TORSDOF 5
ENDMDL
MODEL 9
REMARK VINA RESULT:    -7.020      4.334     10.590
REMARK INTER + INTRA:          -9.808
REMARK INTER:                  -9.174
REMARK INTRA:                  -0.634
REMARK UNBOUND:                -0.736
REMARK  Name = /home/qwerty/github/datacon2025hack/step_04_hit_selection/docking/ligands/lig_801.pdb
REMARK  6 active torsions:
REMARK  status: ('A' for Active; 'I' for Inactive)
REMARK    1  A    between atoms: C1_1  and  C2_2
REMARK    2  A    between atoms: C5_5  and  N1_6
REMARK    3  A    between atoms: C8_9  and  N2_10
REMARK    4  A    between atoms: C12_14  and  C13_15
REMARK    5  A    between atoms: C13_15  and  N3_16
REMARK    6  A    between atoms: N4_19  and  C15_20
REMARK                            x       y       z     vdW  Elec       q    Type
REMARK                         _______ _______ _______ _____ _____    ______ ____
ROOT
ATOM      1  N2  UNL     1      14.326   1.490  22.307  0.00  0.00    -0.291 NA
ATOM      2  C9  UNL     1      13.086   0.676  22.380  0.00  0.00    +0.085 C 
ATOM      3  C10 UNL     1      11.864   1.576  22.566  0.00  0.00    +0.016 C 
ATOM      4  C11 UNL     1      11.674   2.536  21.379  0.00  0.00    +0.007 C 
ATOM      5  C12 UNL     1      12.975   2.757  20.574  0.00  0.00    +0.020 C 
ATOM      6  C21 UNL     1      14.229   2.723  21.480  0.00  0.00    +0.090 C 
ENDROOT
BRANCH   1  10
ATOM      7  N1  UNL     1      17.156   0.281  23.831  0.00  0.00    -0.270 N 
ATOM      8  C6  UNL     1      16.413  -0.962  23.678  0.00  0.00    +0.116 C 
ATOM      9  C7  UNL     1      15.484  -0.769  22.464  0.00  0.00    +0.048 C 
ATOM     10  C8  UNL     1      15.572   0.720  22.057  0.00  0.00    +0.145 C 
ATOM     11  C22 UNL     1      16.700   1.223  22.876  0.00  0.00    +0.237 C 
ATOM     12  O2  UNL     1      17.227   2.356  22.712  0.00  0.00    -0.274 OA
BRANCH   7  17
ATOM     13  C1  UNL     1      20.726   1.453  28.196  0.00  0.00    +0.044 C 
ATOM     14  C2  UNL     1      19.801   1.113  27.065  0.00  0.00    -0.050 A 
ATOM     15  C3  UNL     1      18.415   1.073  27.274  0.00  0.00    +0.005 A 
ATOM     16  C4  UNL     1      17.549   0.793  26.212  0.00  0.00    +0.024 A 
ATOM     17  C5  UNL     1      18.055   0.554  24.923  0.00  0.00    +0.036 A 
ATOM     18  C23 UNL     1      19.442   0.627  24.712  0.00  0.00    +0.024 A 
ATOM     19  C24 UNL     1      20.308   0.907  25.774  0.00  0.00    +0.005 A 
ENDBRANCH   7  17
ENDBRANCH   1  10
BRANCH   5  20
ATOM     20  C13 UNL     1      12.914   4.028  19.698  0.00  0.00    +0.110 C 
BRANCH  20  21
ATOM     21  N3  UNL     1      11.561   4.576  19.575  0.00  0.00    -0.299 N 
ATOM     22  C14 UNL     1      11.225   5.860  20.118  0.00  0.00    +0.304 C 
ATOM     23  O1  UNL     1      12.106   6.542  20.710  0.00  0.00    -0.253 OA
ATOM     24  N4  UNL     1       9.897   6.377  19.948  0.00  0.00    -0.269 N 
ATOM     25  H20 UNL     1      10.809   4.043  19.084  0.00  0.00    +0.150 HD
ATOM     26  H21 UNL     1       9.290   5.924  19.227  0.00  0.00    +0.156 HD
BRANCH  24  27
ATOM     27  C15 UNL     1       9.394   7.547  20.615  0.00  0.00    +0.035 A 
ATOM     28  C16 UNL     1       9.888   8.831  20.317  0.00  0.00    +0.026 A 
ATOM     29  C17 UNL     1       9.397   9.951  20.999  0.00  0.00    +0.040 A 
ATOM     30  C18 UNL     1       8.423   9.797  21.990  0.00  0.00    +0.124 A 
ATOM     31  F1  UNL     1       7.952  10.883  22.650  0.00  0.00    -0.205 F 
ATOM     32  C19 UNL     1       7.945   8.523  22.306  0.00  0.00    +0.040 A 
ATOM     33  C20 UNL     1       8.433   7.402  21.628  0.00  0.00    +0.026 A 
ENDBRANCH  24  27
ENDBRANCH  20  21
ENDBRANCH   5  20
TORSDOF 5
ENDMDL
