MODEL 1
REMARK VINA RESULT:    -7.372      0.000      0.000
REMARK INTER + INTRA:          -9.650
REMARK INTER:                  -9.095
REMARK INTRA:                  -0.554
REMARK UNBOUND:                -0.554
REMARK  Name = /home/qwerty/github/datacon2025hack/step_04_hit_selection/docking/ligands/lig_570.pdb
REMARK  4 active torsions:
REMARK  status: ('A' for Active; 'I' for Inactive)
REMARK    1  A    between atoms: N1_3  and  C2_4
REMARK    2  A    between atoms: C5_7  and  C6_8
REMARK    3  A    between atoms: N6_24  and  C16_25
REMARK    4  A    between atoms: C16_25  and  C17_26
REMARK                            x       y       z     vdW  Elec       q    Type
REMARK                         _______ _______ _______ _____ _____    ______ ____
ROOT
ATOM      1  O1  UNL     1       9.997   2.970  21.683  0.00  0.00    -0.252 OA
ATOM      2  C1  UNL     1      10.811   3.886  21.384  0.00  0.00    +0.307 C 
ATOM      3  N1  UNL     1      12.225   3.604  21.392  0.00  0.00    -0.269 N 
ATOM      4  N4  UNL     1      10.306   5.196  21.028  0.00  0.00    -0.283 N 
ATOM      5  C10 UNL     1       8.872   5.473  21.349  0.00  0.00    +0.111 C 
ATOM      6  C11 UNL     1       8.362   6.912  21.059  0.00  0.00    +0.043 C 
ATOM      7  C12 UNL     1       9.532   7.874  21.070  0.00  0.00    +0.101 C 
ATOM      8  C13 UNL     1      10.498   7.423  19.987  0.00  0.00    +0.112 C 
ATOM      9  C14 UNL     1      11.250   6.204  20.480  0.00  0.00    +0.133 C 
ATOM     10  N5  UNL     1      11.290   8.606  19.701  0.00  0.00    -0.293 N 
ATOM     11  C15 UNL     1      10.426   9.682  20.036  0.00  0.00    +0.303 C 
ATOM     12  O2  UNL     1      10.667  10.879  19.728  0.00  0.00    -0.253 OA
ATOM     13  N6  UNL     1       9.254   9.266  20.736  0.00  0.00    -0.276 N 
ATOM     14  H1  UNL     1      12.869   4.192  20.819  0.00  0.00    +0.156 HD
ATOM     15  H15 UNL     1      12.073   8.660  19.012  0.00  0.00    +0.151 HD
ENDROOT
BRANCH   3  16
ATOM     16  C2  UNL     1      12.802   2.469  22.062  0.00  0.00    +0.035 A 
ATOM     17  C3  UNL     1      13.341   1.422  21.303  0.00  0.00    +0.024 A 
ATOM     18  C4  UNL     1      13.928   0.318  21.929  0.00  0.00    +0.012 A 
ATOM     19  C5  UNL     1      14.004   0.248  23.333  0.00  0.00    +0.003 A 
ATOM     20  C8  UNL     1      13.479   1.312  24.090  0.00  0.00    +0.012 A 
ATOM     21  C9  UNL     1      12.891   2.413  23.462  0.00  0.00    +0.024 A 
BRANCH  19  22
ATOM     22  C6  UNL     1      14.623  -0.916  24.023  0.00  0.00    +0.102 A 
ATOM     23  C7  UNL     1      15.804  -1.546  23.606  0.00  0.00    +0.097 A 
ATOM     24  S1  UNL     1      16.045  -2.763  24.719  0.00  0.00    +0.029 S 
ATOM     25  N2  UNL     1      14.716  -2.491  25.670  0.00  0.00    -0.110 NA
ATOM     26  N3  UNL     1      14.061  -1.458  25.151  0.00  0.00    -0.141 NA
ENDBRANCH  19  22
ENDBRANCH   3  16
BRANCH  13  27
ATOM     27  C16 UNL     1       8.382  10.156  21.501  0.00  0.00    +0.144 C 
BRANCH  27  28
ATOM     28  C17 UNL     1       8.672  10.048  22.974  0.00  0.00    -0.030 A 
ATOM     29  C18 UNL     1       9.993  10.138  23.445  0.00  0.00    +0.005 A 
ATOM     30  C19 UNL     1      10.258  10.076  24.816  0.00  0.00    +0.000 A 
ATOM     31  C20 UNL     1       9.208   9.930  25.727  0.00  0.00    +0.000 A 
ATOM     32  C21 UNL     1       7.892   9.848  25.268  0.00  0.00    +0.000 A 
ATOM     33  C22 UNL     1       7.622   9.910  23.897  0.00  0.00    +0.005 A 
ENDBRANCH  27  28
ENDBRANCH  13  27
TORSDOF 4
ENDMDL
MODEL 2
REMARK VINA RESULT:    -7.296     10.958     11.998
REMARK INTER + INTRA:          -9.556
REMARK INTER:                  -8.817
REMARK INTRA:                  -0.740
REMARK UNBOUND:                -0.554
REMARK  Name = /home/qwerty/github/datacon2025hack/step_04_hit_selection/docking/ligands/lig_570.pdb
REMARK  4 active torsions:
REMARK  status: ('A' for Active; 'I' for Inactive)
REMARK    1  A    between atoms: N1_3  and  C2_4
REMARK    2  A    between atoms: C5_7  and  C6_8
REMARK    3  A    between atoms: N6_24  and  C16_25
REMARK    4  A    between atoms: C16_25  and  C17_26
REMARK                            x       y       z     vdW  Elec       q    Type
REMARK                         _______ _______ _______ _____ _____    ______ ____
ROOT
ATOM      1  O1  UNL     1      20.322   5.249  23.520  0.00  0.00    -0.252 OA
ATOM      2  C1  UNL     1      21.524   5.604  23.373  0.00  0.00    +0.307 C 
ATOM      3  N1  UNL     1      22.537   5.030  24.222  0.00  0.00    -0.269 N 
ATOM      4  N4  UNL     1      21.858   6.569  22.347  0.00  0.00    -0.283 N 
ATOM      5  C10 UNL     1      20.720   7.327  21.741  0.00  0.00    +0.111 C 
ATOM      6  C11 UNL     1      21.091   8.433  20.714  0.00  0.00    +0.043 C 
ATOM      7  C12 UNL     1      22.506   8.907  20.973  0.00  0.00    +0.101 C 
ATOM      8  C13 UNL     1      23.422   7.704  20.815  0.00  0.00    +0.112 C 
ATOM      9  C14 UNL     1      23.289   6.825  22.042  0.00  0.00    +0.133 C 
ATOM     10  N5  UNL     1      24.730   8.283  20.567  0.00  0.00    -0.293 N 
ATOM     11  C15 UNL     1      24.438   9.539  19.970  0.00  0.00    +0.303 C 
ATOM     12  O2  UNL     1      25.311  10.254  19.412  0.00  0.00    -0.253 OA
ATOM     13  N6  UNL     1      23.059   9.893  20.051  0.00  0.00    -0.276 N 
ATOM     14  H1  UNL     1      23.529   5.015  23.899  0.00  0.00    +0.156 HD
ATOM     15  H15 UNL     1      25.615   7.746  20.427  0.00  0.00    +0.151 HD
ENDROOT
BRANCH   3  16
ATOM     16  C2  UNL     1      22.247   4.360  25.462  0.00  0.00    +0.035 A 
ATOM     17  C3  UNL     1      22.463   2.980  25.565  0.00  0.00    +0.024 A 
ATOM     18  C4  UNL     1      22.209   2.308  26.765  0.00  0.00    +0.012 A 
ATOM     19  C5  UNL     1      21.749   3.010  27.896  0.00  0.00    +0.003 A 
ATOM     20  C8  UNL     1      21.553   4.399  27.791  0.00  0.00    +0.012 A 
ATOM     21  C9  UNL     1      21.805   5.068  26.590  0.00  0.00    +0.024 A 
BRANCH  19  22
ATOM     22  C6  UNL     1      21.472   2.318  29.183  0.00  0.00    +0.102 A 
ATOM     23  C7  UNL     1      21.384   2.962  30.424  0.00  0.00    +0.097 A 
ATOM     24  S1  UNL     1      21.055   1.739  31.509  0.00  0.00    +0.029 S 
ATOM     25  N2  UNL     1      21.029   0.470  30.445  0.00  0.00    -0.110 NA
ATOM     26  N3  UNL     1      21.272   0.961  29.235  0.00  0.00    -0.141 NA
ENDBRANCH  19  22
ENDBRANCH   3  16
BRANCH  13  27
ATOM     27  C16 UNL     1      22.533  11.243  19.850  0.00  0.00    +0.144 C 
BRANCH  27  28
ATOM     28  C17 UNL     1      22.573  12.026  21.136  0.00  0.00    -0.030 A 
ATOM     29  C18 UNL     1      23.758  12.665  21.540  0.00  0.00    +0.005 A 
ATOM     30  C19 UNL     1      23.784  13.424  22.713  0.00  0.00    +0.000 A 
ATOM     31  C20 UNL     1      22.628  13.556  23.487  0.00  0.00    +0.000 A 
ATOM     32  C21 UNL     1      21.445  12.932  23.088  0.00  0.00    +0.000 A 
ATOM     33  C22 UNL     1      21.414  12.172  21.915  0.00  0.00    +0.005 A 
ENDBRANCH  27  28
ENDBRANCH  13  27
TORSDOF 4
ENDMDL
MODEL 3
REMARK VINA RESULT:    -7.202      7.531     11.951
REMARK INTER + INTRA:          -9.441
REMARK INTER:                  -8.745
REMARK INTRA:                  -0.696
REMARK UNBOUND:                -0.554
REMARK  Name = /home/qwerty/github/datacon2025hack/step_04_hit_selection/docking/ligands/lig_570.pdb
REMARK  4 active torsions:
REMARK  status: ('A' for Active; 'I' for Inactive)
REMARK    1  A    between atoms: N1_3  and  C2_4
REMARK    2  A    between atoms: C5_7  and  C6_8
REMARK    3  A    between atoms: N6_24  and  C16_25
REMARK    4  A    between atoms: C16_25  and  C17_26
REMARK                            x       y       z     vdW  Elec       q    Type
REMARK                         _______ _______ _______ _____ _____    ______ ____
ROOT
ATOM      1  O1  UNL     1      19.829   6.587  20.932  0.00  0.00    -0.252 OA
ATOM      2  C1  UNL     1      18.736   6.349  20.347  0.00  0.00    +0.307 C 
ATOM      3  N1  UNL     1      18.212   7.313  19.413  0.00  0.00    -0.269 N 
ATOM      4  N4  UNL     1      18.042   5.109  20.620  0.00  0.00    -0.283 N 
ATOM      5  C10 UNL     1      18.495   4.333  21.816  0.00  0.00    +0.111 C 
ATOM      6  C11 UNL     1      17.681   3.055  22.164  0.00  0.00    +0.043 C 
ATOM      7  C12 UNL     1      16.282   3.179  21.597  0.00  0.00    +0.101 C 
ATOM      8  C13 UNL     1      16.416   3.331  20.090  0.00  0.00    +0.112 C 
ATOM      9  C14 UNL     1      16.871   4.743  19.782  0.00  0.00    +0.133 C 
ATOM     10  N5  UNL     1      15.117   2.938  19.576  0.00  0.00    -0.293 N 
ATOM     11  C15 UNL     1      14.620   2.040  20.558  0.00  0.00    +0.303 C 
ATOM     12  O2  UNL     1      13.608   1.314  20.377  0.00  0.00    -0.253 OA
ATOM     13  N6  UNL     1      15.394   2.033  21.756  0.00  0.00    -0.276 N 
ATOM     14  H1  UNL     1      17.546   7.001  18.673  0.00  0.00    +0.156 HD
ATOM     15  H15 UNL     1      14.838   2.937  18.569  0.00  0.00    +0.151 HD
ENDROOT
BRANCH   3  16
ATOM     16  C2  UNL     1      18.645   8.684  19.362  0.00  0.00    +0.035 A 
ATOM     17  C3  UNL     1      17.869   9.674  19.978  0.00  0.00    +0.024 A 
ATOM     18  C4  UNL     1      18.278  11.011  19.962  0.00  0.00    +0.012 A 
ATOM     19  C5  UNL     1      19.486  11.384  19.343  0.00  0.00    +0.003 A 
ATOM     20  C8  UNL     1      20.272  10.382  18.743  0.00  0.00    +0.012 A 
ATOM     21  C9  UNL     1      19.860   9.046  18.759  0.00  0.00    +0.024 A 
BRANCH  19  22
ATOM     22  C6  UNL     1      19.942  12.799  19.313  0.00  0.00    +0.102 A 
ATOM     23  C7  UNL     1      20.885  13.308  18.410  0.00  0.00    +0.097 A 
ATOM     24  S1  UNL     1      21.019  14.921  18.806  0.00  0.00    +0.029 S 
ATOM     25  N2  UNL     1      19.934  14.956  20.056  0.00  0.00    -0.110 NA
ATOM     26  N3  UNL     1      19.446  13.727  20.194  0.00  0.00    -0.141 NA
ENDBRANCH  19  22
ENDBRANCH   3  16
BRANCH  13  27
ATOM     27  C16 UNL     1      14.939   1.494  23.038  0.00  0.00    +0.144 C 
BRANCH  27  28
ATOM     28  C17 UNL     1      15.738   0.275  23.416  0.00  0.00    -0.030 A 
ATOM     29  C18 UNL     1      16.268  -0.562  22.421  0.00  0.00    +0.005 A 
ATOM     30  C19 UNL     1      17.043  -1.671  22.771  0.00  0.00    +0.000 A 
ATOM     31  C20 UNL     1      17.298  -1.949  24.117  0.00  0.00    +0.000 A 
ATOM     32  C21 UNL     1      16.782  -1.117  25.113  0.00  0.00    +0.000 A 
ATOM     33  C22 UNL     1      16.007  -0.006  24.766  0.00  0.00    +0.005 A 
ENDBRANCH  27  28
ENDBRANCH  13  27
TORSDOF 4
ENDMDL
MODEL 4
REMARK VINA RESULT:    -7.137     13.766     15.760
REMARK INTER + INTRA:          -9.360
REMARK INTER:                  -8.771
REMARK INTRA:                  -0.589
REMARK UNBOUND:                -0.554
REMARK  Name = /home/qwerty/github/datacon2025hack/step_04_hit_selection/docking/ligands/lig_570.pdb
REMARK  4 active torsions:
REMARK  status: ('A' for Active; 'I' for Inactive)
REMARK    1  A    between atoms: N1_3  and  C2_4
REMARK    2  A    between atoms: C5_7  and  C6_8
REMARK    3  A    between atoms: N6_24  and  C16_25
REMARK    4  A    between atoms: C16_25  and  C17_26
REMARK                            x       y       z     vdW  Elec       q    Type
REMARK                         _______ _______ _______ _____ _____    ______ ____
ROOT
ATOM      1  O1  UNL     1      18.644  12.789  35.494  0.00  0.00    -0.252 OA
ATOM      2  C1  UNL     1      17.817  11.920  35.886  0.00  0.00    +0.307 C 
ATOM      3  N1  UNL     1      18.257  10.561  36.073  0.00  0.00    -0.269 N 
ATOM      4  N4  UNL     1      16.449  12.313  36.149  0.00  0.00    -0.283 N 
ATOM      5  C10 UNL     1      16.022  13.650  35.633  0.00  0.00    +0.111 C 
ATOM      6  C11 UNL     1      14.525  14.024  35.829  0.00  0.00    +0.043 C 
ATOM      7  C12 UNL     1      13.703  12.759  35.961  0.00  0.00    +0.101 C 
ATOM      8  C13 UNL     1      14.226  12.004  37.172  0.00  0.00    +0.112 C 
ATOM      9  C14 UNL     1      15.537  11.339  36.803  0.00  0.00    +0.133 C 
ATOM     10  N5  UNL     1      13.132  11.125  37.543  0.00  0.00    -0.293 N 
ATOM     11  C15 UNL     1      11.975  11.807  37.078  0.00  0.00    +0.303 C 
ATOM     12  O2  UNL     1      10.805  11.472  37.397  0.00  0.00    -0.253 OA
ATOM     13  N6  UNL     1      12.279  12.915  36.233  0.00  0.00    -0.276 N 
ATOM     14  H1  UNL     1      17.728   9.934  36.718  0.00  0.00    +0.156 HD
ATOM     15  H15 UNL     1      13.145  10.439  38.331  0.00  0.00    +0.151 HD
ENDROOT
BRANCH   3  16
ATOM     16  C2  UNL     1      19.470  10.035  35.505  0.00  0.00    +0.035 A 
ATOM     17  C3  UNL     1      20.467   9.534  36.352  0.00  0.00    +0.024 A 
ATOM     18  C4  UNL     1      21.645   8.997  35.825  0.00  0.00    +0.012 A 
ATOM     19  C5  UNL     1      21.843   8.934  34.433  0.00  0.00    +0.003 A 
ATOM     20  C8  UNL     1      20.831   9.421  33.586  0.00  0.00    +0.012 A 
ATOM     21  C9  UNL     1      19.654   9.958  34.115  0.00  0.00    +0.024 A 
BRANCH  19  22
ATOM     22  C6  UNL     1      23.089   8.368  33.848  0.00  0.00    +0.102 A 
ATOM     23  C7  UNL     1      23.583   7.087  34.129  0.00  0.00    +0.097 A 
ATOM     24  S1  UNL     1      24.974   6.966  33.218  0.00  0.00    +0.029 S 
ATOM     25  N2  UNL     1      24.936   8.464  32.513  0.00  0.00    -0.110 NA
ATOM     26  N3  UNL     1      23.852   9.087  32.963  0.00  0.00    -0.141 NA
ENDBRANCH  19  22
ENDBRANCH   3  16
BRANCH  13  27
ATOM     27  C16 UNL     1      11.320  13.570  35.343  0.00  0.00    +0.144 C 
BRANCH  27  28
ATOM     28  C17 UNL     1      11.403  12.992  33.955  0.00  0.00    -0.030 A 
ATOM     29  C18 UNL     1      11.226  11.613  33.749  0.00  0.00    +0.005 A 
ATOM     30  C19 UNL     1      11.264  11.083  32.457  0.00  0.00    +0.000 A 
ATOM     31  C20 UNL     1      11.473  11.925  31.360  0.00  0.00    +0.000 A 
ATOM     32  C21 UNL     1      11.642  13.297  31.555  0.00  0.00    +0.000 A 
ATOM     33  C22 UNL     1      11.604  13.832  32.847  0.00  0.00    +0.005 A 
ENDBRANCH  27  28
ENDBRANCH  13  27
TORSDOF 4
ENDMDL
MODEL 5
REMARK VINA RESULT:    -6.966     12.473     15.376
REMARK INTER + INTRA:          -9.149
REMARK INTER:                  -8.480
REMARK INTRA:                  -0.669
REMARK UNBOUND:                -0.554
REMARK  Name = /home/qwerty/github/datacon2025hack/step_04_hit_selection/docking/ligands/lig_570.pdb
REMARK  4 active torsions:
REMARK  status: ('A' for Active; 'I' for Inactive)
REMARK    1  A    between atoms: N1_3  and  C2_4
REMARK    2  A    between atoms: C5_7  and  C6_8
REMARK    3  A    between atoms: N6_24  and  C16_25
REMARK    4  A    between atoms: C16_25  and  C17_26
REMARK                            x       y       z     vdW  Elec       q    Type
REMARK                         _______ _______ _______ _____ _____    ______ ____
ROOT
ATOM      1  O1  UNL     1      17.742   2.498  34.286  0.00  0.00    -0.252 OA
ATOM      2  C1  UNL     1      17.544   1.261  34.435  0.00  0.00    +0.307 C 
ATOM      3  N1  UNL     1      18.257   0.327  33.598  0.00  0.00    -0.269 N 
ATOM      4  N4  UNL     1      16.617   0.808  35.449  0.00  0.00    -0.283 N 
ATOM      5  C10 UNL     1      15.709   1.840  36.039  0.00  0.00    +0.111 C 
ATOM      6  C11 UNL     1      14.647   1.331  37.054  0.00  0.00    +0.043 C 
ATOM      7  C12 UNL     1      14.365  -0.134  36.796  0.00  0.00    +0.101 C 
ATOM      8  C13 UNL     1      15.674  -0.886  36.975  0.00  0.00    +0.112 C 
ATOM      9  C14 UNL     1      16.544  -0.644  35.758  0.00  0.00    +0.133 C 
ATOM     10  N5  UNL     1      15.266  -2.257  37.222  0.00  0.00    -0.293 N 
ATOM     11  C15 UNL     1      13.975  -2.129  37.801  0.00  0.00    +0.303 C 
ATOM     12  O2  UNL     1      13.372  -3.085  38.354  0.00  0.00    -0.253 OA
ATOM     13  N6  UNL     1      13.446  -0.807  37.708  0.00  0.00    -0.276 N 
ATOM     14  H1  UNL     1      18.396  -0.653  33.926  0.00  0.00    +0.156 HD
ATOM     15  H15 UNL     1      15.912  -3.064  37.374  0.00  0.00    +0.151 HD
ENDROOT
BRANCH   3  16
ATOM     16  C2  UNL     1      18.900   0.698  32.366  0.00  0.00    +0.035 A 
ATOM     17  C3  UNL     1      20.287   0.548  32.241  0.00  0.00    +0.024 A 
ATOM     18  C4  UNL     1      20.934   0.881  31.047  0.00  0.00    +0.012 A 
ATOM     19  C5  UNL     1      20.200   1.355  29.943  0.00  0.00    +0.003 A 
ATOM     20  C8  UNL     1      18.805   1.485  30.067  0.00  0.00    +0.012 A 
ATOM     21  C9  UNL     1      18.161   1.153  31.263  0.00  0.00    +0.024 A 
BRANCH  19  22
ATOM     22  C6  UNL     1      20.866   1.715  28.662  0.00  0.00    +0.102 A 
ATOM     23  C7  UNL     1      20.248   1.657  27.406  0.00  0.00    +0.097 A 
ATOM     24  S1  UNL     1      21.421   2.166  26.337  0.00  0.00    +0.029 S 
ATOM     25  N2  UNL     1      22.639   2.441  27.425  0.00  0.00    -0.110 NA
ATOM     26  N3  UNL     1      22.168   2.147  28.632  0.00  0.00    -0.141 NA
ENDBRANCH  19  22
ENDBRANCH   3  16
BRANCH  13  27
ATOM     27  C16 UNL     1      12.037  -0.461  37.889  0.00  0.00    +0.144 C 
BRANCH  27  28
ATOM     28  C17 UNL     1      11.266  -0.688  36.616  0.00  0.00    -0.030 A 
ATOM     29  C18 UNL     1      10.780  -1.968  36.301  0.00  0.00    +0.005 A 
ATOM     30  C19 UNL     1      10.031  -2.171  35.138  0.00  0.00    +0.000 A 
ATOM     31  C20 UNL     1       9.756  -1.098  34.286  0.00  0.00    +0.000 A 
ATOM     32  C21 UNL     1      10.229   0.179  34.596  0.00  0.00    +0.000 A 
ATOM     33  C22 UNL     1      10.978   0.386  35.759  0.00  0.00    +0.005 A 
ENDBRANCH  27  28
ENDBRANCH  13  27
TORSDOF 4
ENDMDL
MODEL 6
REMARK VINA RESULT:    -6.811     10.566     11.925
REMARK INTER + INTRA:          -8.959
REMARK INTER:                  -8.316
REMARK INTRA:                  -0.643
REMARK UNBOUND:                -0.554
REMARK  Name = /home/qwerty/github/datacon2025hack/step_04_hit_selection/docking/ligands/lig_570.pdb
REMARK  4 active torsions:
REMARK  status: ('A' for Active; 'I' for Inactive)
REMARK    1  A    between atoms: N1_3  and  C2_4
REMARK    2  A    between atoms: C5_7  and  C6_8
REMARK    3  A    between atoms: N6_24  and  C16_25
REMARK    4  A    between atoms: C16_25  and  C17_26
REMARK                            x       y       z     vdW  Elec       q    Type
REMARK                         _______ _______ _______ _____ _____    ______ ____
ROOT
ATOM      1  O1  UNL     1      17.752  10.720  19.434  0.00  0.00    -0.252 OA
ATOM      2  C1  UNL     1      18.990  10.668  19.197  0.00  0.00    +0.307 C 
ATOM      3  N1  UNL     1      19.604   9.391  18.930  0.00  0.00    -0.269 N 
ATOM      4  N4  UNL     1      19.761  11.893  19.185  0.00  0.00    -0.283 N 
ATOM      5  C10 UNL     1      19.109  13.103  19.773  0.00  0.00    +0.111 C 
ATOM      6  C11 UNL     1      19.977  14.391  19.850  0.00  0.00    +0.043 C 
ATOM      7  C12 UNL     1      21.443  14.010  19.866  0.00  0.00    +0.101 C 
ATOM      8  C13 UNL     1      21.728  13.253  18.579  0.00  0.00    +0.112 C 
ATOM      9  C14 UNL     1      21.166  11.851  18.704  0.00  0.00    +0.133 C 
ATOM     10  N5  UNL     1      23.165  13.366  18.410  0.00  0.00    -0.293 N 
ATOM     11  C15 UNL     1      23.491  14.577  19.077  0.00  0.00    +0.303 C 
ATOM     12  O2  UNL     1      24.613  15.139  18.974  0.00  0.00    -0.253 OA
ATOM     13  N6  UNL     1      22.415  15.097  19.856  0.00  0.00    -0.276 N 
ATOM     14  H1  UNL     1      20.496   9.354  18.390  0.00  0.00    +0.156 HD
ATOM     15  H15 UNL     1      23.719  12.945  17.631  0.00  0.00    +0.151 HD
ENDROOT
BRANCH   3  16
ATOM     16  C2  UNL     1      18.995   8.133  19.269  0.00  0.00    +0.035 A 
ATOM     17  C3  UNL     1      19.306   7.526  20.493  0.00  0.00    +0.024 A 
ATOM     18  C4  UNL     1      18.713   6.313  20.857  0.00  0.00    +0.012 A 
ATOM     19  C5  UNL     1      17.777   5.690  20.008  0.00  0.00    +0.003 A 
ATOM     20  C8  UNL     1      17.454   6.315  18.789  0.00  0.00    +0.012 A 
ATOM     21  C9  UNL     1      18.051   7.526  18.427  0.00  0.00    +0.024 A 
BRANCH  19  22
ATOM     22  C6  UNL     1      17.132   4.401  20.373  0.00  0.00    +0.102 A 
ATOM     23  C7  UNL     1      17.364   3.711  21.571  0.00  0.00    +0.097 A 
ATOM     24  S1  UNL     1      16.398   2.357  21.469  0.00  0.00    +0.029 S 
ATOM     25  N2  UNL     1      15.730   2.645  19.981  0.00  0.00    -0.110 NA
ATOM     26  N3  UNL     1      16.236   3.789  19.533  0.00  0.00    -0.141 NA
ENDBRANCH  19  22
ENDBRANCH   3  16
BRANCH  13  27
ATOM     27  C16 UNL     1      22.559  16.106  20.906  0.00  0.00    +0.144 C 
BRANCH  27  28
ATOM     28  C17 UNL     1      23.047  15.476  22.184  0.00  0.00    -0.030 A 
ATOM     29  C18 UNL     1      24.407  15.539  22.530  0.00  0.00    +0.005 A 
ATOM     30  C19 UNL     1      24.853  14.989  23.735  0.00  0.00    +0.000 A 
ATOM     31  C20 UNL     1      23.946  14.379  24.605  0.00  0.00    +0.000 A 
ATOM     32  C21 UNL     1      22.590  14.320  24.272  0.00  0.00    +0.000 A 
ATOM     33  C22 UNL     1      22.140  14.869  23.067  0.00  0.00    +0.005 A 
ENDBRANCH  27  28
ENDBRANCH  13  27
TORSDOF 4
ENDMDL
MODEL 7
REMARK VINA RESULT:    -6.788      9.629     12.667
REMARK INTER + INTRA:          -8.930
REMARK INTER:                  -8.263
REMARK INTRA:                  -0.667
REMARK UNBOUND:                -0.554
REMARK  Name = /home/qwerty/github/datacon2025hack/step_04_hit_selection/docking/ligands/lig_570.pdb
REMARK  4 active torsions:
REMARK  status: ('A' for Active; 'I' for Inactive)
REMARK    1  A    between atoms: N1_3  and  C2_4
REMARK    2  A    between atoms: C5_7  and  C6_8
REMARK    3  A    between atoms: N6_24  and  C16_25
REMARK    4  A    between atoms: C16_25  and  C17_26
REMARK                            x       y       z     vdW  Elec       q    Type
REMARK                         _______ _______ _______ _____ _____    ______ ____
ROOT
ATOM      1  O1  UNL     1      21.732   7.623  21.421  0.00  0.00    -0.252 OA
ATOM      2  C1  UNL     1      20.645   7.934  20.860  0.00  0.00    +0.307 C 
ATOM      3  N1  UNL     1      20.449   9.288  20.404  0.00  0.00    -0.269 N 
ATOM      4  N4  UNL     1      19.627   6.922  20.677  0.00  0.00    -0.283 N 
ATOM      5  C10 UNL     1      19.794   5.653  21.450  0.00  0.00    +0.111 C 
ATOM      6  C11 UNL     1      18.647   4.610  21.329  0.00  0.00    +0.043 C 
ATOM      7  C12 UNL     1      17.364   5.315  20.943  0.00  0.00    +0.101 C 
ATOM      8  C13 UNL     1      17.607   5.997  19.606  0.00  0.00    +0.112 C 
ATOM      9  C14 UNL     1      18.443   7.239  19.838  0.00  0.00    +0.133 C 
ATOM     10  N5  UNL     1      16.275   6.200  19.063  0.00  0.00    -0.293 N 
ATOM     11  C15 UNL     1      15.506   5.161  19.652  0.00  0.00    +0.303 C 
ATOM     12  O2  UNL     1      14.345   4.863  19.269  0.00  0.00    -0.253 OA
ATOM     13  N6  UNL     1      16.191   4.482  20.704  0.00  0.00    -0.276 N 
ATOM     14  H1  UNL     1      19.759   9.479  19.645  0.00  0.00    +0.156 HD
ATOM     15  H15 UNL     1      16.056   6.664  18.153  0.00  0.00    +0.151 HD
ENDROOT
BRANCH   3  16
ATOM     16  C2  UNL     1      21.240  10.400  20.859  0.00  0.00    +0.035 A 
ATOM     17  C3  UNL     1      22.504  10.621  20.295  0.00  0.00    +0.024 A 
ATOM     18  C4  UNL     1      23.285  11.707  20.703  0.00  0.00    +0.012 A 
ATOM     19  C5  UNL     1      22.807  12.608  21.674  0.00  0.00    +0.003 A 
ATOM     20  C8  UNL     1      21.530  12.391  22.223  0.00  0.00    +0.012 A 
ATOM     21  C9  UNL     1      20.752  11.304  21.815  0.00  0.00    +0.024 A 
BRANCH  19  22
ATOM     22  C6  UNL     1      23.619  13.770  22.125  0.00  0.00    +0.102 A 
ATOM     23  C7  UNL     1      23.891  14.898  21.338  0.00  0.00    +0.097 A 
ATOM     24  S1  UNL     1      24.819  15.877  22.317  0.00  0.00    +0.029 S 
ATOM     25  N2  UNL     1      24.863  14.910  23.660  0.00  0.00    -0.110 NA
ATOM     26  N3  UNL     1      24.165  13.814  23.383  0.00  0.00    -0.141 NA
ENDBRANCH  19  22
ENDBRANCH   3  16
BRANCH  13  27
ATOM     27  C16 UNL     1      15.545   3.633  21.705  0.00  0.00    +0.144 C 
BRANCH  27  28
ATOM     28  C17 UNL     1      15.917   2.189  21.497  0.00  0.00    -0.030 A 
ATOM     29  C18 UNL     1      16.198   1.363  22.598  0.00  0.00    +0.005 A 
ATOM     30  C19 UNL     1      16.505   0.013  22.407  0.00  0.00    +0.000 A 
ATOM     31  C20 UNL     1      16.528  -0.524  21.117  0.00  0.00    +0.000 A 
ATOM     32  C21 UNL     1      16.242   0.288  20.017  0.00  0.00    +0.000 A 
ATOM     33  C22 UNL     1      15.934   1.639  20.204  0.00  0.00    +0.005 A 
ENDBRANCH  27  28
ENDBRANCH  13  27
TORSDOF 4
ENDMDL
MODEL 8
REMARK VINA RESULT:    -6.695      6.120      7.126
REMARK INTER + INTRA:          -8.815
REMARK INTER:                  -8.131
REMARK INTRA:                  -0.684
REMARK UNBOUND:                -0.554
REMARK  Name = /home/qwerty/github/datacon2025hack/step_04_hit_selection/docking/ligands/lig_570.pdb
REMARK  4 active torsions:
REMARK  status: ('A' for Active; 'I' for Inactive)
REMARK    1  A    between atoms: N1_3  and  C2_4
REMARK    2  A    between atoms: C5_7  and  C6_8
REMARK    3  A    between atoms: N6_24  and  C16_25
REMARK    4  A    between atoms: C16_25  and  C17_26
REMARK                            x       y       z     vdW  Elec       q    Type
REMARK                         _______ _______ _______ _____ _____    ______ ____
ROOT
ATOM      1  O1  UNL     1       7.732   3.710  28.310  0.00  0.00    -0.252 OA
ATOM      2  C1  UNL     1       7.832   3.101  27.209  0.00  0.00    +0.307 C 
ATOM      3  N1  UNL     1       7.740   1.663  27.188  0.00  0.00    -0.269 N 
ATOM      4  N4  UNL     1       8.024   3.862  25.993  0.00  0.00    -0.283 N 
ATOM      5  C10 UNL     1       8.415   5.297  26.153  0.00  0.00    +0.111 C 
ATOM      6  C11 UNL     1       8.719   6.083  24.846  0.00  0.00    +0.043 C 
ATOM      7  C12 UNL     1       9.124   5.112  23.757  0.00  0.00    +0.101 C 
ATOM      8  C13 UNL     1       7.960   4.157  23.545  0.00  0.00    +0.112 C 
ATOM      9  C14 UNL     1       7.933   3.161  24.686  0.00  0.00    +0.133 C 
ATOM     10  N5  UNL     1       8.178   3.619  22.215  0.00  0.00    -0.293 N 
ATOM     11  C15 UNL     1       8.907   4.641  21.550  0.00  0.00    +0.303 C 
ATOM     12  O2  UNL     1       9.104   4.647  20.306  0.00  0.00    -0.253 OA
ATOM     13  N6  UNL     1       9.371   5.664  22.429  0.00  0.00    -0.276 N 
ATOM     14  H1  UNL     1       7.456   1.180  26.308  0.00  0.00    +0.156 HD
ATOM     15  H15 UNL     1       7.575   2.909  21.741  0.00  0.00    +0.151 HD
ENDROOT
BRANCH   3  16
ATOM     16  C2  UNL     1       7.907   0.840  28.357  0.00  0.00    +0.035 A 
ATOM     17  C3  UNL     1       9.197   0.588  28.842  0.00  0.00    +0.024 A 
ATOM     18  C4  UNL     1       9.387  -0.190  29.988  0.00  0.00    +0.012 A 
ATOM     19  C5  UNL     1       8.284  -0.717  30.686  0.00  0.00    +0.003 A 
ATOM     20  C8  UNL     1       6.989  -0.444  30.206  0.00  0.00    +0.012 A 
ATOM     21  C9  UNL     1       6.803   0.332  29.058  0.00  0.00    +0.024 A 
BRANCH  19  22
ATOM     22  C6  UNL     1       8.460  -1.548  31.908  0.00  0.00    +0.102 A 
ATOM     23  C7  UNL     1       7.458  -2.350  32.470  0.00  0.00    +0.097 A 
ATOM     24  S1  UNL     1       8.180  -3.055  33.797  0.00  0.00    +0.029 S 
ATOM     25  N2  UNL     1       9.680  -2.370  33.651  0.00  0.00    -0.110 NA
ATOM     26  N3  UNL     1       9.656  -1.585  32.578  0.00  0.00    -0.141 NA
ENDBRANCH  19  22
ENDBRANCH   3  16
BRANCH  13  27
ATOM     27  C16 UNL     1      10.420   6.630  22.102  0.00  0.00    +0.144 C 
BRANCH  27  28
ATOM     28  C17 UNL     1       9.819   7.943  21.678  0.00  0.00    -0.030 A 
ATOM     29  C18 UNL     1       8.582   8.358  22.198  0.00  0.00    +0.005 A 
ATOM     30  C19 UNL     1       8.043   9.595  21.834  0.00  0.00    +0.000 A 
ATOM     31  C20 UNL     1       8.738  10.430  20.953  0.00  0.00    +0.000 A 
ATOM     32  C21 UNL     1       9.972  10.028  20.438  0.00  0.00    +0.000 A 
ATOM     33  C22 UNL     1      10.515   8.791  20.800  0.00  0.00    +0.005 A 
ENDBRANCH  27  28
ENDBRANCH  13  27
TORSDOF 4
ENDMDL
MODEL 9
REMARK VINA RESULT:    -6.530     11.341     14.292
REMARK INTER + INTRA:          -8.612
REMARK INTER:                  -7.812
REMARK INTRA:                  -0.800
REMARK UNBOUND:                -0.554
REMARK  Name = /home/qwerty/github/datacon2025hack/step_04_hit_selection/docking/ligands/lig_570.pdb
REMARK  4 active torsions:
REMARK  status: ('A' for Active; 'I' for Inactive)
REMARK    1  A    between atoms: N1_3  and  C2_4
REMARK    2  A    between atoms: C5_7  and  C6_8
REMARK    3  A    between atoms: N6_24  and  C16_25
REMARK    4  A    between atoms: C16_25  and  C17_26
REMARK                            x       y       z     vdW  Elec       q    Type
REMARK                         _______ _______ _______ _____ _____    ______ ____
ROOT
ATOM      1  O1  UNL     1       9.702  -1.459  31.332  0.00  0.00    -0.252 OA
ATOM      2  C1  UNL     1       8.711  -0.959  31.932  0.00  0.00    +0.307 C 
ATOM      3  N1  UNL     1       7.729  -0.220  31.178  0.00  0.00    -0.269 N 
ATOM      4  N4  UNL     1       8.577  -1.149  33.361  0.00  0.00    -0.283 N 
ATOM      5  C10 UNL     1       9.785  -1.649  34.088  0.00  0.00    +0.111 C 
ATOM      6  C11 UNL     1       9.668  -1.756  35.635  0.00  0.00    +0.043 C 
ATOM      7  C12 UNL     1       8.601  -0.801  36.127  0.00  0.00    +0.101 C 
ATOM      8  C13 UNL     1       7.293  -1.204  35.466  0.00  0.00    +0.112 C 
ATOM      9  C14 UNL     1       7.312  -0.740  34.024  0.00  0.00    +0.133 C 
ATOM     10  N5  UNL     1       6.270  -0.631  36.322  0.00  0.00    -0.293 N 
ATOM     11  C15 UNL     1       6.892  -0.565  37.597  0.00  0.00    +0.303 C 
ATOM     12  O2  UNL     1       6.259  -0.323  38.659  0.00  0.00    -0.253 OA
ATOM     13  N6  UNL     1       8.294  -0.821  37.553  0.00  0.00    -0.276 N 
ATOM     14  H1  UNL     1       6.761  -0.121  31.555  0.00  0.00    +0.156 HD
ATOM     15  H15 UNL     1       5.240  -0.694  36.161  0.00  0.00    +0.151 HD
ENDROOT
BRANCH   3  16
ATOM     16  C2  UNL     1       7.972   0.304  29.861  0.00  0.00    +0.035 A 
ATOM     17  C3  UNL     1       7.547  -0.424  28.741  0.00  0.00    +0.024 A 
ATOM     18  C4  UNL     1       7.751   0.072  27.450  0.00  0.00    +0.012 A 
ATOM     19  C5  UNL     1       8.370   1.321  27.252  0.00  0.00    +0.003 A 
ATOM     20  C8  UNL     1       8.777   2.057  28.381  0.00  0.00    +0.012 A 
ATOM     21  C9  UNL     1       8.574   1.558  29.670  0.00  0.00    +0.024 A 
BRANCH  19  22
ATOM     22  C6  UNL     1       8.598   1.870  25.889  0.00  0.00    +0.102 A 
ATOM     23  C7  UNL     1       9.576   1.402  25.001  0.00  0.00    +0.097 A 
ATOM     24  S1  UNL     1       9.394   2.347  23.640  0.00  0.00    +0.029 S 
ATOM     25  N2  UNL     1       8.140   3.292  24.165  0.00  0.00    -0.110 NA
ATOM     26  N3  UNL     1       7.835   2.899  25.398  0.00  0.00    -0.141 NA
ENDBRANCH  19  22
ENDBRANCH   3  16
BRANCH  13  27
ATOM     27  C16 UNL     1       9.236  -0.483  38.620  0.00  0.00    +0.144 C 
BRANCH  27  28
ATOM     28  C17 UNL     1       9.870   0.859  38.364  0.00  0.00    -0.030 A 
ATOM     29  C18 UNL     1       9.109   2.035  38.471  0.00  0.00    +0.005 A 
ATOM     30  C19 UNL     1       9.707   3.282  38.272  0.00  0.00    +0.000 A 
ATOM     31  C20 UNL     1      11.069   3.365  37.970  0.00  0.00    +0.000 A 
ATOM     32  C21 UNL     1      11.835   2.201  37.870  0.00  0.00    +0.000 A 
ATOM     33  C22 UNL     1      11.240   0.952  38.069  0.00  0.00    +0.005 A 
ENDBRANCH  27  28
ENDBRANCH  13  27
TORSDOF 4
ENDMDL
