REMARK  Name = /home/qwerty/github/datacon2025hack/step_04_hit_selection/docking/ligands/lig_526.pdb
REMARK  5 active torsions:
REMARK  status: ('A' for Active; 'I' for Inactive)
REMARK    1  A    between atoms: C1_1  and  C2_2
REMARK    2  A    between atoms: N2_7  and  C5_8
REMARK    3  A    between atoms: C9_12  and  N3_13
REMARK    4  A    between atoms: C10_14  and  C11_16
REMARK    5  A    between atoms: C14_19  and  C15_20
REMARK                            x       y       z     vdW  Elec       q    Type
REMARK                         _______ _______ _______ _____ _____    ______ ____
ROOT
ATOM      1  C5  UNL     1      -1.546   0.187   1.035  0.00  0.00    +0.040 A 
ATOM      2  C6  UNL     1      -1.448   0.537   2.393  0.00  0.00    +0.024 A 
ATOM      3  C7  UNL     1      -0.197   0.719   2.988  0.00  0.00    +0.004 A 
ATOM      4  C8  UNL     1       0.969   0.539   2.242  0.00  0.00    +0.023 A 
ATOM      5  C9  UNL     1       0.894   0.155   0.892  0.00  0.00    +0.035 A 
ATOM      6  C18 UNL     1      -0.366  -0.006   0.295  0.00  0.00    +0.047 A 
ENDROOT
BRANCH   1  13
ATOM      7  C1  UNL     1      -7.587  -0.096  -0.693  0.00  0.00    +0.110 C 
ATOM      8  C2  UNL     1      -6.520   0.541   0.141  0.00  0.00    +0.220 C 
ATOM      9  O1  UNL     1      -6.836   1.453   0.952  0.00  0.00    -0.275 OA
ATOM     10  N1  UNL     1      -5.150   0.123   0.024  0.00  0.00    -0.224 N 
ATOM     11  C3  UNL     1      -4.653  -0.925  -0.862  0.00  0.00    +0.137 C 
ATOM     12  C4  UNL     1      -3.120  -0.972  -0.646  0.00  0.00    +0.135 C 
ATOM     13  N2  UNL     1      -2.832  -0.005   0.413  0.00  0.00    -0.253 N 
ATOM     14  C19 UNL     1      -4.049   0.637   0.748  0.00  0.00    +0.315 C 
ATOM     15  O3  UNL     1      -4.135   1.603   1.554  0.00  0.00    -0.252 OA
ENDBRANCH   1  13
BRANCH   5  16
ATOM     16  N3  UNL     1       2.080  -0.019   0.097  0.00  0.00    -0.281 N 
ATOM     17  C10 UNL     1       3.334  -0.483   0.625  0.00  0.00    +0.248 C 
ATOM     18  O2  UNL     1       3.354  -1.141   1.701  0.00  0.00    -0.270 OA
ATOM     19  H11 UNL     1       1.993   0.087  -0.939  0.00  0.00    +0.155 HD
BRANCH  17  20
ATOM     20  C11 UNL     1       4.603  -0.242  -0.105  0.00  0.00    +0.037 A 
ATOM     21  C12 UNL     1       4.699   0.776  -1.072  0.00  0.00    +0.014 A 
ATOM     22  C13 UNL     1       5.901   0.999  -1.751  0.00  0.00    +0.019 A 
ATOM     23  C14 UNL     1       7.024   0.213  -1.470  0.00  0.00    +0.052 A 
ATOM     24  C16 UNL     1       6.942  -0.796  -0.503  0.00  0.00    +0.019 A 
ATOM     25  C17 UNL     1       5.741  -1.021   0.177  0.00  0.00    +0.014 A 
BRANCH  23  26
ATOM     26  C15 UNL     1       8.261   0.444  -2.168  0.00  0.00    +0.099 C 
ATOM     27  N4  UNL     1       9.255   0.630  -2.730  0.00  0.00    -0.191 NA
ENDBRANCH  23  26
ENDBRANCH  17  20
ENDBRANCH   5  16
TORSDOF 4
