REMARK  Name = /home/qwerty/github/datacon2025hack/step_04_hit_selection/docking/ligands/lig_444.pdb
REMARK  5 active torsions:
REMARK  status: ('A' for Active; 'I' for Inactive)
REMARK    1  A    between atoms: C1_1  and  C2_2
REMARK    2  A    between atoms: C2_2  and  C3_3
REMARK    3  A    between atoms: C2_2  and  O1_4
REMARK    4  A    between atoms: O1_4  and  C4_5
REMARK    5  A    between atoms: C11_16  and  C12_17
REMARK                            x       y       z     vdW  Elec       q    Type
REMARK                         _______ _______ _______ _____ _____    ______ ____
ROOT
ATOM      1  C4  UNL     1       4.132  -0.500   0.168  0.00  0.00    +0.235 A 
ATOM      2  C5  UNL     1       4.513  -1.850   0.063  0.00  0.00    +0.178 A 
ATOM      3  N1  UNL     1       3.562  -2.819   0.108  0.00  0.00    -0.255 NA
ATOM      4  C6  UNL     1       2.247  -2.515   0.251  0.00  0.00    +0.154 A 
ATOM      5  C7  UNL     1       1.856  -1.175   0.361  0.00  0.00    +0.148 A 
ATOM      6  N2  UNL     1       0.465  -0.840   0.514  0.00  0.00    -0.253 N 
ATOM      7  C8  UNL     1      -0.032   0.503   0.679  0.00  0.00    +0.308 C 
ATOM      8  O2  UNL     1       0.771   1.474   0.740  0.00  0.00    -0.252 OA
ATOM      9  N3  UNL     1      -1.446   0.757   0.776  0.00  0.00    -0.285 N 
ATOM     10  C9  UNL     1      -1.997   2.099   0.857  0.00  0.00    +0.110 C 
ATOM     11  C10 UNL     1      -3.510   1.935   0.762  0.00  0.00    +0.029 C 
ATOM     12  C11 UNL     1      -3.784   0.455   1.057  0.00  0.00    +0.038 C 
ATOM     13  C18 UNL     1      -2.466  -0.278   0.789  0.00  0.00    +0.117 C 
ATOM     14  N4  UNL     1       2.813  -0.208   0.316  0.00  0.00    -0.195 NA
ATOM     15  H10 UNL     1      -0.221  -1.626   0.505  0.00  0.00    +0.158 HD
ENDROOT
BRANCH  12  16
ATOM     16  C12 UNL     1      -4.952  -0.103   0.264  0.00  0.00    -0.043 A 
ATOM     17  C13 UNL     1      -6.086  -0.595   0.937  0.00  0.00    +0.004 A 
ATOM     18  C14 UNL     1      -7.170  -1.107   0.218  0.00  0.00    +0.000 A 
ATOM     19  C15 UNL     1      -7.137  -1.131  -1.179  0.00  0.00    +0.000 A 
ATOM     20  C16 UNL     1      -6.019  -0.644  -1.859  0.00  0.00    +0.000 A 
ATOM     21  C17 UNL     1      -4.931  -0.131  -1.145  0.00  0.00    +0.004 A 
ENDBRANCH  12  16
BRANCH   1  22
ATOM     22  O1  UNL     1       5.051   0.560   0.135  0.00  0.00    -0.473 OA
BRANCH  22  24
ATOM     23  C1  UNL     1       7.140   1.734   0.326  0.00  0.00    +0.051 C 
ATOM     24  C2  UNL     1       6.453   0.443  -0.118  0.00  0.00    +0.169 C 
ATOM     25  C3  UNL     1       6.705   0.196  -1.610  0.00  0.00    +0.051 C 
ENDBRANCH  22  24
ENDBRANCH   1  22
TORSDOF 3
