REMARK  Name = /home/qwerty/github/datacon2025hack/step_04_hit_selection/docking/ligands/lig_112.pdb
REMARK  7 active torsions:
REMARK  status: ('A' for Active; 'I' for Inactive)
REMARK    1  A    between atoms: C1_1  and  C2_2
REMARK    2  A    between atoms: C4_4  and  O1_5
REMARK    3  A    between atoms: C6_8  and  C7_9
REMARK    4  A    between atoms: C9_13  and  N3_14
REMARK    5  A    between atoms: C10_15  and  C11_17
REMARK    6  A    between atoms: C11_17  and  C12_18
REMARK    7  A    between atoms: C18_24  and  C19_25
REMARK                            x       y       z     vdW  Elec       q    Type
REMARK                         _______ _______ _______ _____ _____    ______ ____
ROOT
ATOM      1  C7  UNL     1       2.959  -1.023   0.679  0.00  0.00    +0.249 C 
ATOM      2  O2  UNL     1       3.441  -2.187   0.677  0.00  0.00    -0.270 OA
ATOM      3  N2  UNL     1       1.647  -0.788   1.226  0.00  0.00    -0.293 N 
ATOM      4  C8  UNL     1       1.035   0.530   1.323  0.00  0.00    +0.130 C 
ATOM      5  C9  UNL     1      -0.385   0.290   1.843  0.00  0.00    +0.092 C 
ATOM      6  C17 UNL     1      -0.334  -1.097   2.492  0.00  0.00    +0.046 C 
ATOM      7  C18 UNL     1       0.809  -1.838   1.792  0.00  0.00    +0.075 C 
ATOM      8  C19 UNL     1       0.285  -2.765   0.687  0.00  0.00    +0.028 C 
ENDROOT
BRANCH   1  15
ATOM      9  C1  UNL     1       3.501  -0.918  -2.233  0.00  0.00    +0.045 C 
ATOM     10  C2  UNL     1       4.023   0.133  -1.290  0.00  0.00    -0.032 A 
ATOM     11  C3  UNL     1       4.803   1.187  -1.788  0.00  0.00    +0.071 A 
ATOM     12  C4  UNL     1       5.287   2.168  -0.914  0.00  0.00    +0.213 A 
ATOM     13  N1  UNL     1       5.006   2.090   0.412  0.00  0.00    -0.221 NA
ATOM     14  C5  UNL     1       4.261   1.079   0.929  0.00  0.00    +0.128 A 
ATOM     15  C6  UNL     1       3.751   0.075   0.094  0.00  0.00    +0.058 A 
BRANCH  12  16
ATOM     16  O1  UNL     1       6.057   3.226  -1.389  0.00  0.00    -0.492 OA
ATOM     17  H5  UNL     1       6.286   3.315  -2.373  0.00  0.00    +0.294 HD
ENDBRANCH  12  16
ENDBRANCH   1  15
BRANCH   5  18
ATOM     18  N3  UNL     1      -1.360   0.302   0.746  0.00  0.00    -0.310 N 
ATOM     19  C10 UNL     1      -2.775   0.353   0.986  0.00  0.00    +0.220 C 
ATOM     20  O3  UNL     1      -3.205   0.404   2.172  0.00  0.00    -0.275 OA
ATOM     21  H10 UNL     1      -1.024   0.231  -0.242  0.00  0.00    +0.149 HD
BRANCH  19  22
ATOM     22  C11 UNL     1      -3.752   0.239  -0.172  0.00  0.00    +0.051 C 
ATOM     23  C12 UNL     1      -3.803  -1.235  -0.624  0.00  0.00    +0.021 C 
ATOM     24  C13 UNL     1      -5.178   0.730   0.194  0.00  0.00    +0.043 C 
ATOM     25  C14 UNL     1      -5.626   1.473  -1.013  0.00  0.00    -0.030 C 
ATOM     26  C15 UNL     1      -4.632   1.703  -1.852  0.00  0.00    -0.030 C 
ATOM     27  C16 UNL     1      -3.344   1.148  -1.358  0.00  0.00    +0.043 C 
ENDBRANCH  19  22
ENDBRANCH   5  18
TORSDOF 4
