REMARK  Name = /home/qwerty/github/datacon2025hack/step_04_hit_selection/docking/ligands/lig_35.pdb
REMARK  7 active torsions:
REMARK  status: ('A' for Active; 'I' for Inactive)
REMARK    1  A    between atoms: C1_1  and  C2_2
REMARK    2  A    between atoms: C2_2  and  N1_3
REMARK    3  A    between atoms: C2_2  and  C25_30
REMARK    4  A    between atoms: C3_4  and  C4_6
REMARK    5  A    between atoms: C9_11  and  N2_12
REMARK    6  A    between atoms: C10_13  and  C11_15
REMARK    7  A    between atoms: C16_20  and  C17_21
REMARK                            x       y       z     vdW  Elec       q    Type
REMARK                         _______ _______ _______ _____ _____    ______ ____
ROOT
ATOM      1  N2  UNL     1       0.992  -0.283   0.519  0.00  0.00    -0.281 N 
ATOM      2  C10 UNL     1       1.443  -0.992   1.683  0.00  0.00    +0.249 C 
ATOM      3  O2  UNL     1       1.165  -0.567   2.839  0.00  0.00    -0.270 OA
ATOM      4  H10 UNL     1       1.003  -0.778  -0.408  0.00  0.00    +0.155 HD
ENDROOT
BRANCH   1  10
ATOM      5  C4  UNL     1      -1.048   1.075   0.164  0.00  0.00    +0.058 A 
ATOM      6  C5  UNL     1      -1.671   2.336   0.199  0.00  0.00    +0.015 A 
ATOM      7  C6  UNL     1      -0.982   3.458   0.669  0.00  0.00    +0.001 A 
ATOM      8  C7  UNL     1       0.331   3.337   1.114  0.00  0.00    +0.002 A 
ATOM      9  C8  UNL     1       0.964   2.094   1.089  0.00  0.00    +0.024 A 
ATOM     10  C9  UNL     1       0.289   0.962   0.611  0.00  0.00    +0.046 A 
BRANCH   5  12
ATOM     11  N1  UNL     1      -2.907   0.003  -1.188  0.00  0.00    -0.305 N 
ATOM     12  C3  UNL     1      -1.833  -0.115  -0.246  0.00  0.00    +0.246 C 
ATOM     13  O1  UNL     1      -1.573  -1.243   0.262  0.00  0.00    -0.270 OA
ATOM     14  H5  UNL     1      -2.906   0.806  -1.855  0.00  0.00    +0.150 HD
BRANCH  11  16
ATOM     15  C1  UNL     1      -4.398  -1.503  -2.435  0.00  0.00    +0.033 C 
ATOM     16  C2  UNL     1      -4.113  -0.821  -1.091  0.00  0.00    +0.100 C 
BRANCH  16  17
ATOM     17  C25 UNL     1      -5.261   0.035  -0.597  0.00  0.00    -0.027 A 
ATOM     18  C26 UNL     1      -6.000   0.860  -1.471  0.00  0.00    +0.005 A 
ATOM     19  C27 UNL     1      -7.022   1.672  -0.974  0.00  0.00    +0.000 A 
ATOM     20  C28 UNL     1      -7.296   1.697   0.398  0.00  0.00    +0.000 A 
ATOM     21  C29 UNL     1      -6.543   0.917   1.278  0.00  0.00    +0.000 A 
ATOM     22  C30 UNL     1      -5.529   0.092   0.786  0.00  0.00    +0.005 A 
ENDBRANCH  16  17
ENDBRANCH  11  16
ENDBRANCH   5  12
ENDBRANCH   1  10
BRANCH   2  23
ATOM     23  C11 UNL     1       2.180  -2.262   1.529  0.00  0.00    +0.046 A 
ATOM     24  C12 UNL     1       1.677  -3.411   2.166  0.00  0.00    +0.014 A 
ATOM     25  C13 UNL     1       2.270  -4.656   1.952  0.00  0.00    +0.001 A 
ATOM     26  C14 UNL     1       3.372  -4.768   1.104  0.00  0.00    +0.001 A 
ATOM     27  C15 UNL     1       3.895  -3.633   0.476  0.00  0.00    +0.011 A 
ATOM     28  C16 UNL     1       3.317  -2.368   0.688  0.00  0.00    +0.010 A 
BRANCH  28  29
ATOM     29  C17 UNL     1       3.948  -1.178   0.068  0.00  0.00    +0.048 A 
ATOM     30  C18 UNL     1       4.465  -1.124  -1.226  0.00  0.00    +0.036 A 
ATOM     31  C19 UNL     1       4.982   0.150  -1.352  0.00  0.00    +0.000 A 
ATOM     32  C20 UNL     1       5.604   0.779  -2.431  0.00  0.00    +0.010 A 
ATOM     33  C21 UNL     1       6.030   2.114  -2.264  0.00  0.00    +0.001 A 
ATOM     34  C22 UNL     1       5.832   2.776  -1.032  0.00  0.00    +0.002 A 
ATOM     35  C23 UNL     1       5.190   2.117   0.036  0.00  0.00    +0.026 A 
ATOM     36  C24 UNL     1       4.776   0.798  -0.163  0.00  0.00    +0.047 A 
ATOM     37  N3  UNL     1       4.149  -0.004   0.715  0.00  0.00    -0.354 N 
ATOM     38  H20 UNL     1       3.898   0.229   1.702  0.00  0.00    +0.166 HD
ENDBRANCH  28  29
ENDBRANCH   2  23
TORSDOF 6
