MODEL 1
REMARK VINA RESULT:    -5.997      0.000      0.000
REMARK INTER + INTRA:          -7.893
REMARK INTER:                  -7.400
REMARK INTRA:                  -0.493
REMARK UNBOUND:                -0.493
REMARK  Name = /home/qwerty/github/datacon2025hack/step_04_hit_selection/docking/ligands/lig_78.pdb
REMARK  4 active torsions:
REMARK  status: ('A' for Active; 'I' for Inactive)
REMARK    1  A    between atoms: N1_3  and  C2_4
REMARK    2  A    between atoms: C2_4  and  C3_5
REMARK    3  A    between atoms: C5_7  and  C6_8
REMARK    4  A    between atoms: C15_18  and  C16_19
REMARK                            x       y       z     vdW  Elec       q    Type
REMARK                         _______ _______ _______ _____ _____    ______ ____
ROOT
ATOM      1  O1  UNL     1      12.694  15.191  31.632  0.00  0.00    -0.253 OA
ATOM      2  C1  UNL     1      12.007  14.156  31.848  0.00  0.00    +0.302 C 
ATOM      3  N1  UNL     1      11.155  13.637  30.815  0.00  0.00    -0.299 N 
ATOM      4  N2  UNL     1      12.053  13.529  33.143  0.00  0.00    -0.285 N 
ATOM      5  C12 UNL     1      12.015  12.066  33.264  0.00  0.00    +0.109 C 
ATOM      6  C13 UNL     1      11.080  11.617  34.402  0.00  0.00    +0.019 C 
ATOM      7  C14 UNL     1      10.814  12.714  35.450  0.00  0.00    +0.009 C 
ATOM      8  C15 UNL     1      12.016  13.656  35.651  0.00  0.00    +0.037 C 
ATOM      9  C17 UNL     1      12.392  14.348  34.318  0.00  0.00    +0.115 C 
ATOM     10  H1  UNL     1      10.396  12.966  31.069  0.00  0.00    +0.150 HD
ENDROOT
BRANCH   8  11
ATOM     11  C16 UNL     1      13.218  12.945  36.298  0.00  0.00    +0.218 C 
ATOM     12  F1  UNL     1      13.864  13.798  37.174  0.00  0.00    -0.249 F 
ENDBRANCH   8  11
BRANCH   3  13
ATOM     13  C2  UNL     1      11.240  14.087  29.429  0.00  0.00    +0.110 C 
BRANCH  13  14
ATOM     14  C3  UNL     1      10.423  13.157  28.525  0.00  0.00    +0.014 C 
ATOM     15  C4  UNL     1       9.277  13.810  27.752  0.00  0.00    +0.014 C 
ATOM     16  C5  UNL     1       8.979  12.954  28.980  0.00  0.00    +0.024 C 
BRANCH  16  17
ATOM     17  C6  UNL     1       8.354  11.592  28.729  0.00  0.00    -0.044 A 
ATOM     18  C7  UNL     1       7.674  10.846  29.717  0.00  0.00    +0.004 A 
ATOM     19  C8  UNL     1       7.121   9.599  29.409  0.00  0.00    +0.000 A 
ATOM     20  C9  UNL     1       7.239   9.079  28.120  0.00  0.00    +0.000 A 
ATOM     21  C10 UNL     1       7.909   9.804  27.133  0.00  0.00    +0.000 A 
ATOM     22  C11 UNL     1       8.462  11.052  27.435  0.00  0.00    +0.004 A 
ENDBRANCH  16  17
ENDBRANCH  13  14
ENDBRANCH   3  13
TORSDOF 4
ENDMDL
MODEL 2
REMARK VINA RESULT:    -5.927     14.048     15.099
REMARK INTER + INTRA:          -7.806
REMARK INTER:                  -7.329
REMARK INTRA:                  -0.477
REMARK UNBOUND:                -0.493
REMARK  Name = /home/qwerty/github/datacon2025hack/step_04_hit_selection/docking/ligands/lig_78.pdb
REMARK  4 active torsions:
REMARK  status: ('A' for Active; 'I' for Inactive)
REMARK    1  A    between atoms: N1_3  and  C2_4
REMARK    2  A    between atoms: C2_4  and  C3_5
REMARK    3  A    between atoms: C5_7  and  C6_8
REMARK    4  A    between atoms: C15_18  and  C16_19
REMARK                            x       y       z     vdW  Elec       q    Type
REMARK                         _______ _______ _______ _____ _____    ______ ____
ROOT
ATOM      1  O1  UNL     1      21.450   2.695  33.773  0.00  0.00    -0.253 OA
ATOM      2  C1  UNL     1      21.747   3.312  32.714  0.00  0.00    +0.302 C 
ATOM      3  N1  UNL     1      21.734   2.618  31.457  0.00  0.00    -0.299 N 
ATOM      4  N2  UNL     1      22.136   4.696  32.782  0.00  0.00    -0.285 N 
ATOM      5  C12 UNL     1      21.721   5.639  31.736  0.00  0.00    +0.109 C 
ATOM      6  C13 UNL     1      22.875   6.571  31.325  0.00  0.00    +0.019 C 
ATOM      7  C14 UNL     1      23.985   6.682  32.386  0.00  0.00    +0.009 C 
ATOM      8  C15 UNL     1      23.453   6.562  33.827  0.00  0.00    +0.037 C 
ATOM      9  C17 UNL     1      22.731   5.207  34.028  0.00  0.00    +0.115 C 
ATOM     10  H1  UNL     1      22.233   3.034  30.640  0.00  0.00    +0.150 HD
ENDROOT
BRANCH   8  11
ATOM     11  C16 UNL     1      22.570   7.758  34.228  0.00  0.00    +0.218 C 
ATOM     12  F1  UNL     1      23.137   8.940  33.788  0.00  0.00    -0.249 F 
ENDBRANCH   8  11
BRANCH   3  13
ATOM     13  C2  UNL     1      21.135   1.296  31.297  0.00  0.00    +0.110 C 
BRANCH  13  14
ATOM     14  C3  UNL     1      21.068   0.928  29.811  0.00  0.00    +0.014 C 
ATOM     15  C4  UNL     1      22.185   0.022  29.293  0.00  0.00    +0.014 C 
ATOM     16  C5  UNL     1      22.201   1.513  28.971  0.00  0.00    +0.024 C 
BRANCH  16  17
ATOM     17  C6  UNL     1      21.876   1.907  27.539  0.00  0.00    -0.044 A 
ATOM     18  C7  UNL     1      20.808   1.356  26.796  0.00  0.00    +0.004 A 
ATOM     19  C8  UNL     1      20.570   1.772  25.482  0.00  0.00    +0.000 A 
ATOM     20  C9  UNL     1      21.388   2.736  24.893  0.00  0.00    +0.000 A 
ATOM     21  C10 UNL     1      22.447   3.289  25.615  0.00  0.00    +0.000 A 
ATOM     22  C11 UNL     1      22.689   2.878  26.928  0.00  0.00    +0.004 A 
ENDBRANCH  16  17
ENDBRANCH  13  14
ENDBRANCH   3  13
TORSDOF 4
ENDMDL
MODEL 3
REMARK VINA RESULT:    -5.837      5.337      7.729
REMARK INTER + INTRA:          -7.695
REMARK INTER:                  -7.139
REMARK INTRA:                  -0.556
REMARK UNBOUND:                -0.493
REMARK  Name = /home/qwerty/github/datacon2025hack/step_04_hit_selection/docking/ligands/lig_78.pdb
REMARK  4 active torsions:
REMARK  status: ('A' for Active; 'I' for Inactive)
REMARK    1  A    between atoms: N1_3  and  C2_4
REMARK    2  A    between atoms: C2_4  and  C3_5
REMARK    3  A    between atoms: C5_7  and  C6_8
REMARK    4  A    between atoms: C15_18  and  C16_19
REMARK                            x       y       z     vdW  Elec       q    Type
REMARK                         _______ _______ _______ _____ _____    ______ ____
ROOT
ATOM      1  O1  UNL     1       9.318   9.238  26.313  0.00  0.00    -0.253 OA
ATOM      2  C1  UNL     1       8.818  10.395  26.252  0.00  0.00    +0.302 C 
ATOM      3  N1  UNL     1       7.900  10.720  25.198  0.00  0.00    -0.299 N 
ATOM      4  N2  UNL     1       9.207  11.390  27.217  0.00  0.00    -0.285 N 
ATOM      5  C12 UNL     1       8.224  12.347  27.738  0.00  0.00    +0.109 C 
ATOM      6  C13 UNL     1       8.804  13.771  27.810  0.00  0.00    +0.019 C 
ATOM      7  C14 UNL     1      10.343  13.809  27.831  0.00  0.00    +0.009 C 
ATOM      8  C15 UNL     1      10.964  12.595  28.548  0.00  0.00    +0.037 C 
ATOM      9  C17 UNL     1      10.527  11.278  27.861  0.00  0.00    +0.115 C 
ATOM     10  H1  UNL     1       7.704  11.723  24.984  0.00  0.00    +0.150 HD
ENDROOT
BRANCH   8  11
ATOM     11  C16 UNL     1      10.669  12.591  30.058  0.00  0.00    +0.218 C 
ATOM     12  F1  UNL     1      10.340  13.866  30.485  0.00  0.00    -0.249 F 
ENDBRANCH   8  11
BRANCH   3  13
ATOM     13  C2  UNL     1       7.299   9.703  24.340  0.00  0.00    +0.110 C 
BRANCH  13  14
ATOM     14  C3  UNL     1       7.913   9.773  22.937  0.00  0.00    +0.014 C 
ATOM     15  C4  UNL     1       7.933   8.464  22.148  0.00  0.00    +0.014 C 
ATOM     16  C5  UNL     1       9.215   8.991  22.785  0.00  0.00    +0.024 C 
BRANCH  16  17
ATOM     17  C6  UNL     1      10.264   9.559  21.843  0.00  0.00    -0.044 A 
ATOM     18  C7  UNL     1      11.493  10.105  22.274  0.00  0.00    +0.004 A 
ATOM     19  C8  UNL     1      12.410  10.607  21.344  0.00  0.00    +0.000 A 
ATOM     20  C9  UNL     1      12.118  10.572  19.981  0.00  0.00    +0.000 A 
ATOM     21  C10 UNL     1      10.907  10.036  19.541  0.00  0.00    +0.000 A 
ATOM     22  C11 UNL     1       9.986   9.532  20.464  0.00  0.00    +0.004 A 
ENDBRANCH  16  17
ENDBRANCH  13  14
ENDBRANCH   3  13
TORSDOF 4
ENDMDL
MODEL 4
REMARK VINA RESULT:    -5.811     13.628     16.410
REMARK INTER + INTRA:          -7.663
REMARK INTER:                  -6.993
REMARK INTRA:                  -0.670
REMARK UNBOUND:                -0.493
REMARK  Name = /home/qwerty/github/datacon2025hack/step_04_hit_selection/docking/ligands/lig_78.pdb
REMARK  4 active torsions:
REMARK  status: ('A' for Active; 'I' for Inactive)
REMARK    1  A    between atoms: N1_3  and  C2_4
REMARK    2  A    between atoms: C2_4  and  C3_5
REMARK    3  A    between atoms: C5_7  and  C6_8
REMARK    4  A    between atoms: C15_18  and  C16_19
REMARK                            x       y       z     vdW  Elec       q    Type
REMARK                         _______ _______ _______ _____ _____    ______ ____
ROOT
ATOM      1  O1  UNL     1      13.505   2.996  19.943  0.00  0.00    -0.253 OA
ATOM      2  C1  UNL     1      13.252   1.990  20.660  0.00  0.00    +0.302 C 
ATOM      3  N1  UNL     1      13.966   0.764  20.445  0.00  0.00    -0.299 N 
ATOM      4  N2  UNL     1      12.218   2.069  21.660  0.00  0.00    -0.285 N 
ATOM      5  C12 UNL     1      12.379   1.394  22.953  0.00  0.00    +0.109 C 
ATOM      6  C13 UNL     1      11.084   0.682  23.383  0.00  0.00    +0.019 C 
ATOM      7  C14 UNL     1       9.821   1.228  22.692  0.00  0.00    +0.009 C 
ATOM      8  C15 UNL     1       9.908   2.736  22.387  0.00  0.00    +0.037 C 
ATOM      9  C17 UNL     1      11.123   3.035  21.473  0.00  0.00    +0.115 C 
ATOM     10  H1  UNL     1      13.581  -0.126  20.833  0.00  0.00    +0.150 HD
ENDROOT
BRANCH   8  11
ATOM     11  C16 UNL     1       9.914   3.594  23.665  0.00  0.00    +0.218 C 
ATOM     12  F1  UNL     1      11.027   4.415  23.684  0.00  0.00    -0.249 F 
ENDBRANCH   8  11
BRANCH   3  13
ATOM     13  C2  UNL     1      15.166   0.691  19.616  0.00  0.00    +0.110 C 
BRANCH  13  14
ATOM     14  C3  UNL     1      16.365   0.258  20.467  0.00  0.00    +0.014 C 
ATOM     15  C4  UNL     1      16.956  -1.114  20.143  0.00  0.00    +0.014 C 
ATOM     16  C5  UNL     1      16.085  -0.932  21.382  0.00  0.00    +0.024 C 
BRANCH  16  17
ATOM     17  C6  UNL     1      16.793  -0.959  22.727  0.00  0.00    -0.044 A 
ATOM     18  C7  UNL     1      16.987  -2.134  23.488  0.00  0.00    +0.004 A 
ATOM     19  C8  UNL     1      17.652  -2.079  24.717  0.00  0.00    +0.000 A 
ATOM     20  C9  UNL     1      18.129  -0.862  25.204  0.00  0.00    +0.000 A 
ATOM     21  C10 UNL     1      17.944   0.307  24.462  0.00  0.00    +0.000 A 
ATOM     22  C11 UNL     1      17.281   0.259  23.233  0.00  0.00    +0.004 A 
ENDBRANCH  16  17
ENDBRANCH  13  14
ENDBRANCH   3  13
TORSDOF 4
ENDMDL
MODEL 5
REMARK VINA RESULT:    -5.808      3.151      7.277
REMARK INTER + INTRA:          -7.660
REMARK INTER:                  -7.035
REMARK INTRA:                  -0.625
REMARK UNBOUND:                -0.493
REMARK  Name = /home/qwerty/github/datacon2025hack/step_04_hit_selection/docking/ligands/lig_78.pdb
REMARK  4 active torsions:
REMARK  status: ('A' for Active; 'I' for Inactive)
REMARK    1  A    between atoms: N1_3  and  C2_4
REMARK    2  A    between atoms: C2_4  and  C3_5
REMARK    3  A    between atoms: C5_7  and  C6_8
REMARK    4  A    between atoms: C15_18  and  C16_19
REMARK                            x       y       z     vdW  Elec       q    Type
REMARK                         _______ _______ _______ _____ _____    ______ ____
ROOT
ATOM      1  O1  UNL     1      12.445  12.724  30.820  0.00  0.00    -0.253 OA
ATOM      2  C1  UNL     1      11.259  13.151  30.875  0.00  0.00    +0.302 C 
ATOM      3  N1  UNL     1      10.889  14.095  31.891  0.00  0.00    -0.299 N 
ATOM      4  N2  UNL     1      10.280  12.656  29.943  0.00  0.00    -0.285 N 
ATOM      5  C12 UNL     1       9.256  13.553  29.393  0.00  0.00    +0.109 C 
ATOM      6  C13 UNL     1       7.871  12.881  29.368  0.00  0.00    +0.019 C 
ATOM      7  C14 UNL     1       7.931  11.343  29.417  0.00  0.00    +0.009 C 
ATOM      8  C15 UNL     1       9.174  10.768  28.711  0.00  0.00    +0.037 C 
ATOM      9  C17 UNL     1      10.468  11.319  29.358  0.00  0.00    +0.115 C 
ATOM     10  H1  UNL     1       9.878  14.237  32.111  0.00  0.00    +0.150 HD
ENDROOT
BRANCH   8  11
ATOM     11  C16 UNL     1       9.141  10.993  27.188  0.00  0.00    +0.218 C 
ATOM     12  F1  UNL     1       7.856  10.821  26.707  0.00  0.00    -0.249 F 
ENDBRANCH   8  11
BRANCH   3  13
ATOM     13  C2  UNL     1      11.875  14.797  32.707  0.00  0.00    +0.110 C 
BRANCH  13  14
ATOM     14  C3  UNL     1      11.827  14.280  34.149  0.00  0.00    +0.014 C 
ATOM     15  C4  UNL     1      13.161  14.251  34.895  0.00  0.00    +0.014 C 
ATOM     16  C5  UNL     1      12.558  12.955  34.361  0.00  0.00    +0.024 C 
BRANCH  16  17
ATOM     17  C6  UNL     1      11.978  11.996  35.388  0.00  0.00    -0.044 A 
ATOM     18  C7  UNL     1      11.532  12.392  36.669  0.00  0.00    +0.004 A 
ATOM     19  C8  UNL     1      11.007  11.450  37.559  0.00  0.00    +0.000 A 
ATOM     20  C9  UNL     1      10.919  10.108  37.189  0.00  0.00    +0.000 A 
ATOM     21  C10 UNL     1      11.356   9.703  35.927  0.00  0.00    +0.000 A 
ATOM     22  C11 UNL     1      11.880  10.639  35.032  0.00  0.00    +0.004 A 
ENDBRANCH  16  17
ENDBRANCH  13  14
ENDBRANCH   3  13
TORSDOF 4
ENDMDL
MODEL 6
REMARK VINA RESULT:    -5.772     13.771     14.907
REMARK INTER + INTRA:          -7.615
REMARK INTER:                  -7.058
REMARK INTRA:                  -0.557
REMARK UNBOUND:                -0.493
REMARK  Name = /home/qwerty/github/datacon2025hack/step_04_hit_selection/docking/ligands/lig_78.pdb
REMARK  4 active torsions:
REMARK  status: ('A' for Active; 'I' for Inactive)
REMARK    1  A    between atoms: N1_3  and  C2_4
REMARK    2  A    between atoms: C2_4  and  C3_5
REMARK    3  A    between atoms: C5_7  and  C6_8
REMARK    4  A    between atoms: C15_18  and  C16_19
REMARK                            x       y       z     vdW  Elec       q    Type
REMARK                         _______ _______ _______ _____ _____    ______ ____
ROOT
ATOM      1  O1  UNL     1      20.190   4.943  34.208  0.00  0.00    -0.253 OA
ATOM      2  C1  UNL     1      21.354   4.582  33.884  0.00  0.00    +0.302 C 
ATOM      3  N1  UNL     1      21.682   3.186  33.841  0.00  0.00    -0.299 N 
ATOM      4  N2  UNL     1      22.355   5.578  33.599  0.00  0.00    -0.285 N 
ATOM      5  C12 UNL     1      23.335   5.364  32.528  0.00  0.00    +0.109 C 
ATOM      6  C13 UNL     1      24.749   5.787  32.963  0.00  0.00    +0.019 C 
ATOM      7  C14 UNL     1      24.761   6.773  34.146  0.00  0.00    +0.009 C 
ATOM      8  C15 UNL     1      23.546   7.719  34.151  0.00  0.00    +0.037 C 
ATOM      9  C17 UNL     1      22.228   6.909  34.216  0.00  0.00    +0.115 C 
ATOM     10  H1  UNL     1      22.686   2.897  33.845  0.00  0.00    +0.150 HD
ENDROOT
BRANCH   8  11
ATOM     11  C16 UNL     1      23.566   8.707  32.971  0.00  0.00    +0.218 C 
ATOM     12  F1  UNL     1      24.823   9.269  32.838  0.00  0.00    -0.249 F 
ENDBRANCH   8  11
BRANCH   3  13
ATOM     13  C2  UNL     1      20.665   2.140  33.893  0.00  0.00    +0.110 C 
BRANCH  13  14
ATOM     14  C3  UNL     1      20.088   1.899  32.494  0.00  0.00    +0.014 C 
ATOM     15  C4  UNL     1      19.233   0.642  32.328  0.00  0.00    +0.014 C 
ATOM     16  C5  UNL     1      20.658   0.673  31.785  0.00  0.00    +0.024 C 
BRANCH  16  17
ATOM     17  C6  UNL     1      20.815   0.749  30.276  0.00  0.00    -0.044 A 
ATOM     18  C7  UNL     1      21.948   0.274  29.578  0.00  0.00    +0.004 A 
ATOM     19  C8  UNL     1      22.017   0.377  28.185  0.00  0.00    +0.000 A 
ATOM     20  C9  UNL     1      20.966   0.952  27.471  0.00  0.00    +0.000 A 
ATOM     21  C10 UNL     1      19.840   1.426  28.147  0.00  0.00    +0.000 A 
ATOM     22  C11 UNL     1      19.764   1.325  29.539  0.00  0.00    +0.004 A 
ENDBRANCH  16  17
ENDBRANCH  13  14
ENDBRANCH   3  13
TORSDOF 4
ENDMDL
MODEL 7
REMARK VINA RESULT:    -5.769     15.114     17.087
REMARK INTER + INTRA:          -7.611
REMARK INTER:                  -7.055
REMARK INTRA:                  -0.556
REMARK UNBOUND:                -0.493
REMARK  Name = /home/qwerty/github/datacon2025hack/step_04_hit_selection/docking/ligands/lig_78.pdb
REMARK  4 active torsions:
REMARK  status: ('A' for Active; 'I' for Inactive)
REMARK    1  A    between atoms: N1_3  and  C2_4
REMARK    2  A    between atoms: C2_4  and  C3_5
REMARK    3  A    between atoms: C5_7  and  C6_8
REMARK    4  A    between atoms: C15_18  and  C16_19
REMARK                            x       y       z     vdW  Elec       q    Type
REMARK                         _______ _______ _______ _____ _____    ______ ____
ROOT
ATOM      1  O1  UNL     1      18.649   2.726  23.671  0.00  0.00    -0.253 OA
ATOM      2  C1  UNL     1      18.908   1.573  24.109  0.00  0.00    +0.302 C 
ATOM      3  N1  UNL     1      20.190   1.306  24.698  0.00  0.00    -0.299 N 
ATOM      4  N2  UNL     1      17.931   0.524  23.977  0.00  0.00    -0.285 N 
ATOM      5  C12 UNL     1      17.753  -0.468  25.044  0.00  0.00    +0.109 C 
ATOM      6  C13 UNL     1      17.605  -1.890  24.475  0.00  0.00    +0.019 C 
ATOM      7  C14 UNL     1      17.165  -1.921  22.999  0.00  0.00    +0.009 C 
ATOM      8  C15 UNL     1      16.240  -0.748  22.624  0.00  0.00    +0.037 C 
ATOM      9  C17 UNL     1      16.945   0.605  22.886  0.00  0.00    +0.115 C 
ATOM     10  H1  UNL     1      20.505   0.316  24.806  0.00  0.00    +0.150 HD
ENDROOT
BRANCH   8  11
ATOM     11  C16 UNL     1      14.869  -0.836  23.320  0.00  0.00    +0.218 C 
ATOM     12  F1  UNL     1      13.890  -0.274  22.522  0.00  0.00    -0.249 F 
ENDBRANCH   8  11
BRANCH   3  13
ATOM     13  C2  UNL     1      21.121   2.369  25.063  0.00  0.00    +0.110 C 
BRANCH  13  14
ATOM     14  C3  UNL     1      21.110   2.576  26.582  0.00  0.00    +0.014 C 
ATOM     15  C4  UNL     1      22.456   2.418  27.290  0.00  0.00    +0.014 C 
ATOM     16  C5  UNL     1      21.409   1.313  27.387  0.00  0.00    +0.024 C 
BRANCH  16  17
ATOM     17  C6  UNL     1      20.703   1.155  28.723  0.00  0.00    -0.044 A 
ATOM     18  C7  UNL     1      19.324   1.395  28.916  0.00  0.00    +0.004 A 
ATOM     19  C8  UNL     1      18.745   1.225  30.178  0.00  0.00    +0.000 A 
ATOM     20  C9  UNL     1      19.526   0.815  31.259  0.00  0.00    +0.000 A 
ATOM     21  C10 UNL     1      20.889   0.574  31.083  0.00  0.00    +0.000 A 
ATOM     22  C11 UNL     1      21.474   0.742  29.825  0.00  0.00    +0.004 A 
ENDBRANCH  16  17
ENDBRANCH  13  14
ENDBRANCH   3  13
TORSDOF 4
ENDMDL
MODEL 8
REMARK VINA RESULT:    -5.729     13.364     14.653
REMARK INTER + INTRA:          -7.562
REMARK INTER:                  -6.840
REMARK INTRA:                  -0.722
REMARK UNBOUND:                -0.493
REMARK  Name = /home/qwerty/github/datacon2025hack/step_04_hit_selection/docking/ligands/lig_78.pdb
REMARK  4 active torsions:
REMARK  status: ('A' for Active; 'I' for Inactive)
REMARK    1  A    between atoms: N1_3  and  C2_4
REMARK    2  A    between atoms: C2_4  and  C3_5
REMARK    3  A    between atoms: C5_7  and  C6_8
REMARK    4  A    between atoms: C15_18  and  C16_19
REMARK                            x       y       z     vdW  Elec       q    Type
REMARK                         _______ _______ _______ _____ _____    ______ ____
ROOT
ATOM      1  O1  UNL     1      19.808   3.934  34.115  0.00  0.00    -0.253 OA
ATOM      2  C1  UNL     1      21.008   3.948  33.730  0.00  0.00    +0.302 C 
ATOM      3  N1  UNL     1      21.574   2.780  33.118  0.00  0.00    -0.299 N 
ATOM      4  N2  UNL     1      21.812   5.123  33.946  0.00  0.00    -0.285 N 
ATOM      5  C12 UNL     1      22.787   5.554  32.937  0.00  0.00    +0.109 C 
ATOM      6  C13 UNL     1      24.116   5.984  33.583  0.00  0.00    +0.019 C 
ATOM      7  C14 UNL     1      23.985   6.360  35.071  0.00  0.00    +0.009 C 
ATOM      8  C15 UNL     1      22.623   6.994  35.412  0.00  0.00    +0.037 C 
ATOM      9  C17 UNL     1      21.469   6.023  35.059  0.00  0.00    +0.115 C 
ATOM     10  H1  UNL     1      22.613   2.690  33.053  0.00  0.00    +0.150 HD
ENDROOT
BRANCH   8  11
ATOM     11  C16 UNL     1      22.441   8.378  34.762  0.00  0.00    +0.218 C 
ATOM     12  F1  UNL     1      21.295   8.395  33.986  0.00  0.00    -0.249 F 
ENDBRANCH   8  11
BRANCH   3  13
ATOM     13  C2  UNL     1      20.758   1.655  32.671  0.00  0.00    +0.110 C 
BRANCH  13  14
ATOM     14  C3  UNL     1      20.609   1.690  31.145  0.00  0.00    +0.014 C 
ATOM     15  C4  UNL     1      21.117   0.459  30.394  0.00  0.00    +0.014 C 
ATOM     16  C5  UNL     1      21.934   1.747  30.390  0.00  0.00    +0.024 C 
BRANCH  16  17
ATOM     17  C6  UNL     1      21.963   2.535  29.090  0.00  0.00    -0.044 A 
ATOM     18  C7  UNL     1      22.505   2.040  27.884  0.00  0.00    +0.004 A 
ATOM     19  C8  UNL     1      22.493   2.825  26.726  0.00  0.00    +0.000 A 
ATOM     20  C9  UNL     1      21.943   4.107  26.754  0.00  0.00    +0.000 A 
ATOM     21  C10 UNL     1      21.404   4.610  27.940  0.00  0.00    +0.000 A 
ATOM     22  C11 UNL     1      21.413   3.830  29.100  0.00  0.00    +0.004 A 
ENDBRANCH  16  17
ENDBRANCH  13  14
ENDBRANCH   3  13
TORSDOF 4
ENDMDL
MODEL 9
REMARK VINA RESULT:    -5.643     14.637     15.617
REMARK INTER + INTRA:          -7.455
REMARK INTER:                  -6.852
REMARK INTRA:                  -0.603
REMARK UNBOUND:                -0.493
REMARK  Name = /home/qwerty/github/datacon2025hack/step_04_hit_selection/docking/ligands/lig_78.pdb
REMARK  4 active torsions:
REMARK  status: ('A' for Active; 'I' for Inactive)
REMARK    1  A    between atoms: N1_3  and  C2_4
REMARK    2  A    between atoms: C2_4  and  C3_5
REMARK    3  A    between atoms: C5_7  and  C6_8
REMARK    4  A    between atoms: C15_18  and  C16_19
REMARK                            x       y       z     vdW  Elec       q    Type
REMARK                         _______ _______ _______ _____ _____    ______ ____
ROOT
ATOM      1  O1  UNL     1      18.411   1.481  27.069  0.00  0.00    -0.253 OA
ATOM      2  C1  UNL     1      19.594   1.065  26.936  0.00  0.00    +0.302 C 
ATOM      3  N1  UNL     1      19.993   0.431  25.712  0.00  0.00    -0.299 N 
ATOM      4  N2  UNL     1      20.521   1.194  28.030  0.00  0.00    -0.285 N 
ATOM      5  C12 UNL     1      21.931   1.518  27.777  0.00  0.00    +0.109 C 
ATOM      6  C13 UNL     1      22.871   0.663  28.645  0.00  0.00    +0.019 C 
ATOM      7  C14 UNL     1      22.190   0.071  29.893  0.00  0.00    +0.009 C 
ATOM      8  C15 UNL     1      21.090   0.984  30.467  0.00  0.00    +0.037 C 
ATOM      9  C17 UNL     1      19.996   1.249  29.404  0.00  0.00    +0.115 C 
ATOM     10  H1  UNL     1      20.862  -0.148  25.697  0.00  0.00    +0.150 HD
ENDROOT
BRANCH   8  11
ATOM     11  C16 UNL     1      21.658   2.288  31.057  0.00  0.00    +0.218 C 
ATOM     12  F1  UNL     1      21.091   3.383  30.430  0.00  0.00    -0.249 F 
ENDBRANCH   8  11
BRANCH   3  13
ATOM     13  C2  UNL     1      19.177   0.478  24.502  0.00  0.00    +0.110 C 
BRANCH  13  14
ATOM     14  C3  UNL     1      18.137  -0.649  24.527  0.00  0.00    +0.014 C 
ATOM     15  C4  UNL     1      17.291  -0.809  23.264  0.00  0.00    +0.014 C 
ATOM     16  C5  UNL     1      16.690  -0.163  24.508  0.00  0.00    +0.024 C 
BRANCH  16  17
ATOM     17  C6  UNL     1      15.669  -0.984  25.280  0.00  0.00    -0.044 A 
ATOM     18  C7  UNL     1      15.014  -0.528  26.446  0.00  0.00    +0.004 A 
ATOM     19  C8  UNL     1      14.083  -1.342  27.099  0.00  0.00    +0.000 A 
ATOM     20  C9  UNL     1      13.793  -2.613  26.604  0.00  0.00    +0.000 A 
ATOM     21  C10 UNL     1      14.432  -3.077  25.453  0.00  0.00    +0.000 A 
ATOM     22  C11 UNL     1      15.363  -2.268  24.795  0.00  0.00    +0.004 A 
ENDBRANCH  16  17
ENDBRANCH  13  14
ENDBRANCH   3  13
TORSDOF 4
ENDMDL
