MODEL 1
REMARK VINA RESULT:    -7.411      0.000      0.000
REMARK INTER + INTRA:          -9.176
REMARK INTER:                  -9.145
REMARK INTRA:                  -0.032
REMARK UNBOUND:                -0.032
REMARK  Name = /home/qwerty/github/datacon2025hack/step_04_hit_selection/docking/ligands/lig_500.pdb
REMARK  4 active torsions:
REMARK  status: ('A' for Active; 'I' for Inactive)
REMARK    1  A    between atoms: N1_3  and  C2_4
REMARK    2  A    between atoms: N2_10  and  C8_11
REMARK    3  A    between atoms: N3_19  and  C16_20
REMARK    4  A    between atoms: C16_20  and  C17_21
REMARK                            x       y       z     vdW  Elec       q    Type
REMARK                         _______ _______ _______ _____ _____    ______ ____
ROOT
ATOM      1  C8  UNL     1      21.794   2.910  33.032  0.00  0.00    +0.038 A 
ATOM      2  C9  UNL     1      20.945   2.919  34.144  0.00  0.00    +0.023 A 
ATOM      3  C10 UNL     1      19.807   2.114  34.171  0.00  0.00    +0.002 A 
ATOM      4  C11 UNL     1      19.497   1.306  33.078  0.00  0.00    +0.005 A 
ATOM      5  C12 UNL     1      20.314   1.309  31.938  0.00  0.00    -0.028 A 
ATOM      6  C13 UNL     1      21.487   2.099  31.915  0.00  0.00    -0.021 A 
ATOM      7  C14 UNL     1      22.320   2.189  30.655  0.00  0.00    +0.052 C 
ATOM      8  C15 UNL     1      22.008   1.065  29.656  0.00  0.00    +0.090 C 
ATOM      9  N3  UNL     1      20.559   0.839  29.503  0.00  0.00    -0.292 NA
ATOM     10  C20 UNL     1      19.963   0.399  30.782  0.00  0.00    +0.120 C 
ENDROOT
BRANCH   1  14
ATOM     11  O1  UNL     1      21.738   5.687  32.518  0.00  0.00    -0.252 OA
ATOM     12  C1  UNL     1      22.861   5.160  32.751  0.00  0.00    +0.308 C 
ATOM     13  N1  UNL     1      24.051   5.962  32.762  0.00  0.00    -0.269 N 
ATOM     14  N2  UNL     1      22.948   3.759  33.040  0.00  0.00    -0.269 N 
ATOM     15  H1  UNL     1      24.899   5.559  33.221  0.00  0.00    +0.156 HD
ATOM     16  H7  UNL     1      23.891   3.310  33.057  0.00  0.00    +0.156 HD
BRANCH  13  17
ATOM     17  C2  UNL     1      24.114   7.321  32.297  0.00  0.00    +0.035 A 
ATOM     18  C3  UNL     1      23.320   7.769  31.224  0.00  0.00    +0.023 A 
ATOM     19  C4  UNL     1      23.419   9.091  30.778  0.00  0.00    +0.002 A 
ATOM     20  C5  UNL     1      24.318   9.971  31.386  0.00  0.00    +0.000 A 
ATOM     21  C6  UNL     1      25.126   9.529  32.436  0.00  0.00    +0.002 A 
ATOM     22  C7  UNL     1      25.031   8.207  32.885  0.00  0.00    +0.023 A 
ENDBRANCH  13  17
ENDBRANCH   1  14
BRANCH   9  23
ATOM     23  C16 UNL     1      19.861   2.005  28.920  0.00  0.00    +0.147 C 
BRANCH  23  24
ATOM     24  C17 UNL     1      20.643   2.551  27.768  0.00  0.00    +0.093 A 
ATOM     25  N4  UNL     1      21.013   1.811  26.699  0.00  0.00    -0.250 NA
ATOM     26  C18 UNL     1      21.745   2.536  25.812  0.00  0.00    +0.134 A 
ATOM     27  C19 UNL     1      21.962   3.856  26.182  0.00  0.00    +0.075 A 
ATOM     28 BR1  UNL     1      22.945   5.152  25.189  0.00  0.00    -0.041 Br
ATOM     29  S1  UNL     1      21.219   4.129  27.665  0.00  0.00    -0.064 S 
ENDBRANCH  23  24
ENDBRANCH   9  23
TORSDOF 4
ENDMDL
MODEL 2
REMARK VINA RESULT:    -7.242      1.914      1.995
REMARK INTER + INTRA:          -8.967
REMARK INTER:                  -8.803
REMARK INTRA:                  -0.164
REMARK UNBOUND:                -0.032
REMARK  Name = /home/qwerty/github/datacon2025hack/step_04_hit_selection/docking/ligands/lig_500.pdb
REMARK  4 active torsions:
REMARK  status: ('A' for Active; 'I' for Inactive)
REMARK    1  A    between atoms: N1_3  and  C2_4
REMARK    2  A    between atoms: N2_10  and  C8_11
REMARK    3  A    between atoms: N3_19  and  C16_20
REMARK    4  A    between atoms: C16_20  and  C17_21
REMARK                            x       y       z     vdW  Elec       q    Type
REMARK                         _______ _______ _______ _____ _____    ______ ____
ROOT
ATOM      1  C8  UNL     1      21.823   2.918  32.960  0.00  0.00    +0.038 A 
ATOM      2  C9  UNL     1      20.875   2.966  33.988  0.00  0.00    +0.023 A 
ATOM      3  C10 UNL     1      19.746   2.150  33.946  0.00  0.00    +0.002 A 
ATOM      4  C11 UNL     1      19.544   1.290  32.867  0.00  0.00    +0.005 A 
ATOM      5  C12 UNL     1      20.463   1.253  31.808  0.00  0.00    -0.028 A 
ATOM      6  C13 UNL     1      21.627   2.054  31.857  0.00  0.00    -0.021 A 
ATOM      7  C14 UNL     1      22.573   2.098  30.677  0.00  0.00    +0.052 C 
ATOM      8  C15 UNL     1      22.363   0.927  29.706  0.00  0.00    +0.090 C 
ATOM      9  N3  UNL     1      20.936   0.677  29.431  0.00  0.00    -0.292 NA
ATOM     10  C20 UNL     1      20.228   0.288  30.667  0.00  0.00    +0.120 C 
ENDROOT
BRANCH   1  14
ATOM     11  O1  UNL     1      21.776   5.684  32.392  0.00  0.00    -0.252 OA
ATOM     12  C1  UNL     1      22.885   5.175  32.715  0.00  0.00    +0.308 C 
ATOM     13  N1  UNL     1      24.063   5.990  32.798  0.00  0.00    -0.269 N 
ATOM     14  N2  UNL     1      22.965   3.780  33.036  0.00  0.00    -0.269 N 
ATOM     15  H1  UNL     1      24.880   5.605  33.323  0.00  0.00    +0.156 HD
ATOM     16  H7  UNL     1      23.908   3.342  33.129  0.00  0.00    +0.156 HD
BRANCH  13  17
ATOM     17  C2  UNL     1      24.146   7.341  32.313  0.00  0.00    +0.035 A 
ATOM     18  C3  UNL     1      23.392   7.773  31.206  0.00  0.00    +0.023 A 
ATOM     19  C4  UNL     1      23.510   9.087  30.742  0.00  0.00    +0.002 A 
ATOM     20  C5  UNL     1      24.389   9.975  31.367  0.00  0.00    +0.000 A 
ATOM     21  C6  UNL     1      25.158   9.549  32.452  0.00  0.00    +0.002 A 
ATOM     22  C7  UNL     1      25.044   8.235  32.919  0.00  0.00    +0.023 A 
ENDBRANCH  13  17
ENDBRANCH   1  14
BRANCH   9  23
ATOM     23  C16 UNL     1      20.286   1.807  28.733  0.00  0.00    +0.147 C 
BRANCH  23  24
ATOM     24  C17 UNL     1      19.823   1.379  27.377  0.00  0.00    +0.093 A 
ATOM     25  N4  UNL     1      20.649   1.233  26.317  0.00  0.00    -0.250 NA
ATOM     26  C18 UNL     1      19.973   0.870  25.195  0.00  0.00    +0.134 A 
ATOM     27  C19 UNL     1      18.602   0.733  25.364  0.00  0.00    +0.075 A 
ATOM     28 BR1  UNL     1      17.349   0.245  24.014  0.00  0.00    -0.041 Br
ATOM     29  S1  UNL     1      18.220   1.077  26.964  0.00  0.00    -0.064 S 
ENDBRANCH  23  24
ENDBRANCH   9  23
TORSDOF 4
ENDMDL
MODEL 3
REMARK VINA RESULT:    -7.093     11.789     13.798
REMARK INTER + INTRA:          -8.783
REMARK INTER:                  -8.101
REMARK INTRA:                  -0.682
REMARK UNBOUND:                -0.032
REMARK  Name = /home/qwerty/github/datacon2025hack/step_04_hit_selection/docking/ligands/lig_500.pdb
REMARK  4 active torsions:
REMARK  status: ('A' for Active; 'I' for Inactive)
REMARK    1  A    between atoms: N1_3  and  C2_4
REMARK    2  A    between atoms: N2_10  and  C8_11
REMARK    3  A    between atoms: N3_19  and  C16_20
REMARK    4  A    between atoms: C16_20  and  C17_21
REMARK                            x       y       z     vdW  Elec       q    Type
REMARK                         _______ _______ _______ _____ _____    ______ ____
ROOT
ATOM      1  C8  UNL     1      12.031  12.853  35.183  0.00  0.00    +0.038 A 
ATOM      2  C9  UNL     1      11.323  11.767  35.709  0.00  0.00    +0.023 A 
ATOM      3  C10 UNL     1      11.898  10.955  36.685  0.00  0.00    +0.002 A 
ATOM      4  C11 UNL     1      13.193  11.211  37.133  0.00  0.00    +0.005 A 
ATOM      5  C12 UNL     1      13.935  12.272  36.594  0.00  0.00    -0.028 A 
ATOM      6  C13 UNL     1      13.349  13.120  35.625  0.00  0.00    -0.021 A 
ATOM      7  C14 UNL     1      14.171  14.203  34.963  0.00  0.00    +0.052 C 
ATOM      8  C15 UNL     1      15.459  14.524  35.734  0.00  0.00    +0.090 C 
ATOM      9  N3  UNL     1      16.163  13.306  36.179  0.00  0.00    -0.292 NA
ATOM     10  C20 UNL     1      15.326  12.538  37.123  0.00  0.00    +0.120 C 
ENDROOT
BRANCH   1  14
ATOM     11  O1  UNL     1      12.058  12.255  32.423  0.00  0.00    -0.252 OA
ATOM     12  C1  UNL     1      11.474  13.314  32.784  0.00  0.00    +0.308 C 
ATOM     13  N1  UNL     1      10.841  14.162  31.814  0.00  0.00    -0.269 N 
ATOM     14  N2  UNL     1      11.409  13.657  34.174  0.00  0.00    -0.269 N 
ATOM     15  H1  UNL     1      10.147  14.860  32.164  0.00  0.00    +0.156 HD
ATOM     16  H7  UNL     1      11.079  14.613  34.438  0.00  0.00    +0.156 HD
BRANCH  13  17
ATOM     17  C2  UNL     1      11.008  14.027  30.392  0.00  0.00    +0.035 A 
ATOM     18  C3  UNL     1      12.140  14.542  29.732  0.00  0.00    +0.023 A 
ATOM     19  C4  UNL     1      12.265  14.417  28.345  0.00  0.00    +0.002 A 
ATOM     20  C5  UNL     1      11.259  13.793  27.604  0.00  0.00    +0.000 A 
ATOM     21  C6  UNL     1      10.121  13.300  28.247  0.00  0.00    +0.002 A 
ATOM     22  C7  UNL     1       9.991  13.424  29.634  0.00  0.00    +0.023 A 
ENDBRANCH  13  17
ENDBRANCH   1  14
BRANCH   9  23
ATOM     23  C16 UNL     1      16.648  12.486  35.048  0.00  0.00    +0.147 C 
BRANCH  23  24
ATOM     24  C17 UNL     1      17.998  11.924  35.360  0.00  0.00    +0.093 A 
ATOM     25  N4  UNL     1      19.071  12.686  35.673  0.00  0.00    -0.250 NA
ATOM     26  C18 UNL     1      20.183  11.932  35.877  0.00  0.00    +0.134 A 
ATOM     27  C19 UNL     1      19.995  10.566  35.721  0.00  0.00    +0.075 A 
ATOM     28 BR1  UNL     1      21.327   9.219  35.923  0.00  0.00    -0.041 Br
ATOM     29  S1  UNL     1      18.388  10.288  35.312  0.00  0.00    -0.064 S 
ENDBRANCH  23  24
ENDBRANCH   9  23
TORSDOF 4
ENDMDL
MODEL 4
REMARK VINA RESULT:    -7.029      5.513      9.179
REMARK INTER + INTRA:          -8.704
REMARK INTER:                  -8.094
REMARK INTRA:                  -0.610
REMARK UNBOUND:                -0.032
REMARK  Name = /home/qwerty/github/datacon2025hack/step_04_hit_selection/docking/ligands/lig_500.pdb
REMARK  4 active torsions:
REMARK  status: ('A' for Active; 'I' for Inactive)
REMARK    1  A    between atoms: N1_3  and  C2_4
REMARK    2  A    between atoms: N2_10  and  C8_11
REMARK    3  A    between atoms: N3_19  and  C16_20
REMARK    4  A    between atoms: C16_20  and  C17_21
REMARK                            x       y       z     vdW  Elec       q    Type
REMARK                         _______ _______ _______ _____ _____    ______ ____
ROOT
ATOM      1  C8  UNL     1      22.874   6.971  33.422  0.00  0.00    +0.038 A 
ATOM      2  C9  UNL     1      23.042   7.833  32.333  0.00  0.00    +0.023 A 
ATOM      3  C10 UNL     1      22.699   9.180  32.439  0.00  0.00    +0.002 A 
ATOM      4  C11 UNL     1      22.167   9.674  33.629  0.00  0.00    +0.005 A 
ATOM      5  C12 UNL     1      21.956   8.821  34.721  0.00  0.00    -0.028 A 
ATOM      6  C13 UNL     1      22.330   7.460  34.634  0.00  0.00    -0.021 A 
ATOM      7  C14 UNL     1      22.014   6.508  35.767  0.00  0.00    +0.052 C 
ATOM      8  C15 UNL     1      21.682   7.236  37.077  0.00  0.00    +0.090 C 
ATOM      9  N3  UNL     1      20.771   8.377  36.867  0.00  0.00    -0.292 NA
ATOM     10  C20 UNL     1      21.404   9.396  36.006  0.00  0.00    +0.120 C 
ENDROOT
BRANCH   1  14
ATOM     11  O1  UNL     1      21.377   5.090  31.940  0.00  0.00    -0.252 OA
ATOM     12  C1  UNL     1      22.418   4.677  32.522  0.00  0.00    +0.308 C 
ATOM     13  N1  UNL     1      22.817   3.303  32.411  0.00  0.00    -0.269 N 
ATOM     14  N2  UNL     1      23.230   5.592  33.270  0.00  0.00    -0.269 N 
ATOM     15  H1  UNL     1      23.803   3.066  32.663  0.00  0.00    +0.156 HD
ATOM     16  H7  UNL     1      23.983   5.206  33.883  0.00  0.00    +0.156 HD
BRANCH  13  17
ATOM     17  C2  UNL     1      21.990   2.264  31.861  0.00  0.00    +0.035 A 
ATOM     18  C3  UNL     1      22.180   1.788  30.550  0.00  0.00    +0.023 A 
ATOM     19  C4  UNL     1      21.345   0.793  30.032  0.00  0.00    +0.002 A 
ATOM     20  C5  UNL     1      20.308   0.274  30.811  0.00  0.00    +0.000 A 
ATOM     21  C6  UNL     1      20.097   0.756  32.105  0.00  0.00    +0.002 A 
ATOM     22  C7  UNL     1      20.929   1.752  32.626  0.00  0.00    +0.023 A 
ENDBRANCH  13  17
ENDBRANCH   1  14
BRANCH   9  23
ATOM     23  C16 UNL     1      19.441   7.958  36.374  0.00  0.00    +0.147 C 
BRANCH  23  24
ATOM     24  C17 UNL     1      18.391   8.909  36.851  0.00  0.00    +0.093 A 
ATOM     25  N4  UNL     1      18.104   9.112  38.157  0.00  0.00    -0.250 NA
ATOM     26  C18 UNL     1      17.087   9.999  38.318  0.00  0.00    +0.134 A 
ATOM     27  C19 UNL     1      16.557  10.497  37.136  0.00  0.00    +0.075 A 
ATOM     28 BR1  UNL     1      15.126  11.745  36.985  0.00  0.00    -0.041 Br
ATOM     29  S1  UNL     1      17.385   9.808  35.844  0.00  0.00    -0.064 S 
ENDBRANCH  23  24
ENDBRANCH   9  23
TORSDOF 4
ENDMDL
MODEL 5
REMARK VINA RESULT:    -6.985     11.504     14.567
REMARK INTER + INTRA:          -8.650
REMARK INTER:                  -7.960
REMARK INTRA:                  -0.690
REMARK UNBOUND:                -0.032
REMARK  Name = /home/qwerty/github/datacon2025hack/step_04_hit_selection/docking/ligands/lig_500.pdb
REMARK  4 active torsions:
REMARK  status: ('A' for Active; 'I' for Inactive)
REMARK    1  A    between atoms: N1_3  and  C2_4
REMARK    2  A    between atoms: N2_10  and  C8_11
REMARK    3  A    between atoms: N3_19  and  C16_20
REMARK    4  A    between atoms: C16_20  and  C17_21
REMARK                            x       y       z     vdW  Elec       q    Type
REMARK                         _______ _______ _______ _____ _____    ______ ____
ROOT
ATOM      1  C8  UNL     1      12.081   3.815  20.097  0.00  0.00    +0.038 A 
ATOM      2  C9  UNL     1      13.352   4.067  19.570  0.00  0.00    +0.023 A 
ATOM      3  C10 UNL     1      14.427   3.241  19.893  0.00  0.00    +0.002 A 
ATOM      4  C11 UNL     1      14.246   2.165  20.762  0.00  0.00    +0.005 A 
ATOM      5  C12 UNL     1      12.989   1.916  21.331  0.00  0.00    -0.028 A 
ATOM      6  C13 UNL     1      11.885   2.730  20.985  0.00  0.00    -0.021 A 
ATOM      7  C14 UNL     1      10.550   2.534  21.668  0.00  0.00    +0.052 C 
ATOM      8  C15 UNL     1      10.441   1.178  22.380  0.00  0.00    +0.090 C 
ATOM      9  N3  UNL     1      11.658   0.850  23.147  0.00  0.00    -0.292 NA
ATOM     10  C20 UNL     1      12.822   0.724  22.247  0.00  0.00    +0.120 C 
ENDROOT
BRANCH   1  14
ATOM     11  O1  UNL     1      11.627   6.336  21.285  0.00  0.00    -0.252 OA
ATOM     12  C1  UNL     1      10.811   5.953  20.402  0.00  0.00    +0.308 C 
ATOM     13  N1  UNL     1       9.708   6.789  20.019  0.00  0.00    -0.269 N 
ATOM     14  N2  UNL     1      11.004   4.693  19.748  0.00  0.00    -0.269 N 
ATOM     15  H1  UNL     1       9.231   6.572  19.116  0.00  0.00    +0.156 HD
ATOM     16  H7  UNL     1      10.233   4.315  19.153  0.00  0.00    +0.156 HD
BRANCH  13  17
ATOM     17  C2  UNL     1       9.304   7.969  20.733  0.00  0.00    +0.035 A 
ATOM     18  C3  UNL     1       8.320   7.919  21.740  0.00  0.00    +0.023 A 
ATOM     19  C4  UNL     1       7.929   9.088  22.401  0.00  0.00    +0.002 A 
ATOM     20  C5  UNL     1       8.503  10.314  22.058  0.00  0.00    +0.000 A 
ATOM     21  C6  UNL     1       9.463  10.376  21.045  0.00  0.00    +0.002 A 
ATOM     22  C7  UNL     1       9.856   9.211  20.379  0.00  0.00    +0.023 A 
ENDBRANCH  13  17
ENDBRANCH   1  14
BRANCH   9  23
ATOM     23  C16 UNL     1      11.897   1.791  24.262  0.00  0.00    +0.147 C 
BRANCH  23  24
ATOM     24  C17 UNL     1      13.016   1.299  25.123  0.00  0.00    +0.093 A 
ATOM     25  N4  UNL     1      12.900   0.254  25.973  0.00  0.00    -0.250 NA
ATOM     26  C18 UNL     1      14.051   0.034  26.662  0.00  0.00    +0.134 A 
ATOM     27  C19 UNL     1      15.084   0.912  26.362  0.00  0.00    +0.075 A 
ATOM     28 BR1  UNL     1      16.825   0.903  27.136  0.00  0.00    -0.041 Br
ATOM     29  S1  UNL     1      14.544   2.000  25.200  0.00  0.00    -0.064 S 
ENDBRANCH  23  24
ENDBRANCH   9  23
TORSDOF 4
ENDMDL
MODEL 6
REMARK VINA RESULT:    -6.867     13.427     15.485
REMARK INTER + INTRA:          -8.504
REMARK INTER:                  -7.806
REMARK INTRA:                  -0.698
REMARK UNBOUND:                -0.032
REMARK  Name = /home/qwerty/github/datacon2025hack/step_04_hit_selection/docking/ligands/lig_500.pdb
REMARK  4 active torsions:
REMARK  status: ('A' for Active; 'I' for Inactive)
REMARK    1  A    between atoms: N1_3  and  C2_4
REMARK    2  A    between atoms: N2_10  and  C8_11
REMARK    3  A    between atoms: N3_19  and  C16_20
REMARK    4  A    between atoms: C16_20  and  C17_21
REMARK                            x       y       z     vdW  Elec       q    Type
REMARK                         _______ _______ _______ _____ _____    ______ ____
ROOT
ATOM      1  C8  UNL     1       9.016   9.340  22.058  0.00  0.00    +0.038 A 
ATOM      2  C9  UNL     1       9.796  10.299  21.401  0.00  0.00    +0.023 A 
ATOM      3  C10 UNL     1      10.675   9.920  20.388  0.00  0.00    +0.002 A 
ATOM      4  C11 UNL     1      10.798   8.578  20.034  0.00  0.00    +0.005 A 
ATOM      5  C12 UNL     1      10.053   7.596  20.704  0.00  0.00    -0.028 A 
ATOM      6  C13 UNL     1       9.136   7.973  21.711  0.00  0.00    -0.021 A 
ATOM      7  C14 UNL     1       8.403   6.917  22.509  0.00  0.00    +0.052 C 
ATOM      8  C15 UNL     1       8.439   5.536  21.839  0.00  0.00    +0.090 C 
ATOM      9  N3  UNL     1       9.780   5.199  21.326  0.00  0.00    -0.292 NA
ATOM     10  C20 UNL     1      10.190   6.152  20.275  0.00  0.00    +0.120 C 
ENDROOT
BRANCH   1  14
ATOM     11  O1  UNL     1       9.818   9.883  24.711  0.00  0.00    -0.252 OA
ATOM     12  C1  UNL     1       8.593  10.009  24.435  0.00  0.00    +0.308 C 
ATOM     13  N1  UNL     1       7.660  10.426  25.443  0.00  0.00    -0.269 N 
ATOM     14  N2  UNL     1       8.131   9.769  23.100  0.00  0.00    -0.269 N 
ATOM     15  H1  UNL     1       6.731  10.781  25.122  0.00  0.00    +0.156 HD
ATOM     16  H7  UNL     1       7.103   9.707  22.930  0.00  0.00    +0.156 HD
BRANCH  13  17
ATOM     17  C2  UNL     1       7.967  10.503  26.846  0.00  0.00    +0.035 A 
ATOM     18  C3  UNL     1       7.789   9.397  27.699  0.00  0.00    +0.023 A 
ATOM     19  C4  UNL     1       8.073   9.508  29.064  0.00  0.00    +0.002 A 
ATOM     20  C5  UNL     1       8.523  10.721  29.591  0.00  0.00    +0.000 A 
ATOM     21  C6  UNL     1       8.681  11.829  28.755  0.00  0.00    +0.002 A 
ATOM     22  C7  UNL     1       8.396  11.724  27.390  0.00  0.00    +0.023 A 
ENDBRANCH  13  17
ENDBRANCH   1  14
BRANCH   9  23
ATOM     23  C16 UNL     1      10.784   5.071  22.404  0.00  0.00    +0.147 C 
BRANCH  23  24
ATOM     24  C17 UNL     1      12.001   4.366  21.895  0.00  0.00    +0.093 A 
ATOM     25  N4  UNL     1      13.208   4.962  21.761  0.00  0.00    -0.250 NA
ATOM     26  C18 UNL     1      14.135   4.112  21.245  0.00  0.00    +0.134 A 
ATOM     27  C19 UNL     1      13.661   2.839  20.961  0.00  0.00    +0.075 A 
ATOM     28 BR1  UNL     1      14.675   1.402  20.227  0.00  0.00    -0.041 Br
ATOM     29  S1  UNL     1      12.031   2.769  21.366  0.00  0.00    -0.064 S 
ENDBRANCH  23  24
ENDBRANCH   9  23
TORSDOF 4
ENDMDL
MODEL 7
REMARK VINA RESULT:    -6.866     14.053     16.092
REMARK INTER + INTRA:          -8.503
REMARK INTER:                  -7.831
REMARK INTRA:                  -0.672
REMARK UNBOUND:                -0.032
REMARK  Name = /home/qwerty/github/datacon2025hack/step_04_hit_selection/docking/ligands/lig_500.pdb
REMARK  4 active torsions:
REMARK  status: ('A' for Active; 'I' for Inactive)
REMARK    1  A    between atoms: N1_3  and  C2_4
REMARK    2  A    between atoms: N2_10  and  C8_11
REMARK    3  A    between atoms: N3_19  and  C16_20
REMARK    4  A    between atoms: C16_20  and  C17_21
REMARK                            x       y       z     vdW  Elec       q    Type
REMARK                         _______ _______ _______ _____ _____    ______ ____
ROOT
ATOM      1  C8  UNL     1       8.149  10.378  27.877  0.00  0.00    +0.038 A 
ATOM      2  C9  UNL     1       7.959   9.248  28.679  0.00  0.00    +0.023 A 
ATOM      3  C10 UNL     1       8.516   9.185  29.954  0.00  0.00    +0.002 A 
ATOM      4  C11 UNL     1       9.286  10.243  30.434  0.00  0.00    +0.005 A 
ATOM      5  C12 UNL     1       9.520  11.371  29.634  0.00  0.00    -0.028 A 
ATOM      6  C13 UNL     1       8.932  11.457  28.350  0.00  0.00    -0.021 A 
ATOM      7  C14 UNL     1       9.260  12.620  27.439  0.00  0.00    +0.052 C 
ATOM      8  C15 UNL     1       9.888  13.803  28.190  0.00  0.00    +0.090 C 
ATOM      9  N3  UNL     1      10.923  13.371  29.148  0.00  0.00    -0.292 NA
ATOM     10  C20 UNL     1      10.336  12.513  30.196  0.00  0.00    +0.120 C 
ENDROOT
BRANCH   1  14
ATOM     11  O1  UNL     1       9.330   9.228  25.584  0.00  0.00    -0.252 OA
ATOM     12  C1  UNL     1       8.224   9.817  25.436  0.00  0.00    +0.308 C 
ATOM     13  N1  UNL     1       7.599   9.878  24.145  0.00  0.00    -0.269 N 
ATOM     14  N2  UNL     1       7.567  10.400  26.568  0.00  0.00    -0.269 N 
ATOM     15  H1  UNL     1       6.584  10.120  24.112  0.00  0.00    +0.156 HD
ATOM     16  H7  UNL     1       6.749  11.029  26.402  0.00  0.00    +0.156 HD
BRANCH  13  17
ATOM     17  C2  UNL     1       8.248   9.508  22.916  0.00  0.00    +0.035 A 
ATOM     18  C3  UNL     1       8.225   8.182  22.442  0.00  0.00    +0.023 A 
ATOM     19  C4  UNL     1       8.885   7.846  21.256  0.00  0.00    +0.002 A 
ATOM     20  C5  UNL     1       9.581   8.823  20.540  0.00  0.00    +0.000 A 
ATOM     21  C6  UNL     1       9.628  10.136  21.014  0.00  0.00    +0.002 A 
ATOM     22  C7  UNL     1       8.971  10.476  22.202  0.00  0.00    +0.023 A 
ENDBRANCH  13  17
ENDBRANCH   1  14
BRANCH   9  23
ATOM     23  C16 UNL     1      12.086  12.745  28.482  0.00  0.00    +0.147 C 
BRANCH  23  24
ATOM     24  C17 UNL     1      13.191  13.741  28.330  0.00  0.00    +0.093 A 
ATOM     25  N4  UNL     1      13.565  14.266  27.140  0.00  0.00    -0.250 NA
ATOM     26  C18 UNL     1      14.615  15.118  27.273  0.00  0.00    +0.134 A 
ATOM     27  C19 UNL     1      15.082  15.267  28.571  0.00  0.00    +0.075 A 
ATOM     28 BR1  UNL     1      16.535  16.369  29.122  0.00  0.00    -0.041 Br
ATOM     29  S1  UNL     1      14.155  14.302  29.590  0.00  0.00    -0.064 S 
ENDBRANCH  23  24
ENDBRANCH   9  23
TORSDOF 4
ENDMDL
MODEL 8
REMARK VINA RESULT:    -6.772     13.751     14.928
REMARK INTER + INTRA:          -8.388
REMARK INTER:                  -7.752
REMARK INTRA:                  -0.635
REMARK UNBOUND:                -0.032
REMARK  Name = /home/qwerty/github/datacon2025hack/step_04_hit_selection/docking/ligands/lig_500.pdb
REMARK  4 active torsions:
REMARK  status: ('A' for Active; 'I' for Inactive)
REMARK    1  A    between atoms: N1_3  and  C2_4
REMARK    2  A    between atoms: N2_10  and  C8_11
REMARK    3  A    between atoms: N3_19  and  C16_20
REMARK    4  A    between atoms: C16_20  and  C17_21
REMARK                            x       y       z     vdW  Elec       q    Type
REMARK                         _______ _______ _______ _____ _____    ______ ____
ROOT
ATOM      1  C8  UNL     1      11.937  14.519  30.059  0.00  0.00    +0.038 A 
ATOM      2  C9  UNL     1      13.119  14.796  29.364  0.00  0.00    +0.023 A 
ATOM      3  C10 UNL     1      13.259  14.423  28.029  0.00  0.00    +0.002 A 
ATOM      4  C11 UNL     1      12.224  13.752  27.379  0.00  0.00    +0.005 A 
ATOM      5  C12 UNL     1      11.044  13.430  28.065  0.00  0.00    -0.028 A 
ATOM      6  C13 UNL     1      10.882  13.833  29.411  0.00  0.00    -0.021 A 
ATOM      7  C14 UNL     1       9.658  13.404  30.192  0.00  0.00    +0.052 C 
ATOM      8  C15 UNL     1       8.519  12.914  29.287  0.00  0.00    +0.090 C 
ATOM      9  N3  UNL     1       9.000  12.015  28.220  0.00  0.00    -0.292 NA
ATOM     10  C20 UNL     1       9.932  12.727  27.322  0.00  0.00    +0.120 C 
ENDROOT
BRANCH   1  14
ATOM     11  O1  UNL     1      12.571  12.848  32.245  0.00  0.00    -0.252 OA
ATOM     12  C1  UNL     1      12.152  14.010  32.503  0.00  0.00    +0.308 C 
ATOM     13  N1  UNL     1      12.024  14.453  33.862  0.00  0.00    -0.269 N 
ATOM     14  N2  UNL     1      11.837  14.910  31.433  0.00  0.00    -0.269 N 
ATOM     15  H1  UNL     1      11.946  15.481  34.029  0.00  0.00    +0.156 HD
ATOM     16  H7  UNL     1      11.331  15.796  31.658  0.00  0.00    +0.156 HD
BRANCH  13  17
ATOM     17  C2  UNL     1      12.119  13.586  35.006  0.00  0.00    +0.035 A 
ATOM     18  C3  UNL     1      13.357  13.309  35.617  0.00  0.00    +0.023 A 
ATOM     19  C4  UNL     1      13.423  12.443  36.713  0.00  0.00    +0.002 A 
ATOM     20  C5  UNL     1      12.262  11.839  37.201  0.00  0.00    +0.000 A 
ATOM     21  C6  UNL     1      11.033  12.090  36.586  0.00  0.00    +0.002 A 
ATOM     22  C7  UNL     1      10.962  12.954  35.488  0.00  0.00    +0.023 A 
ENDBRANCH  13  17
ENDBRANCH   1  14
BRANCH   9  23
ATOM     23  C16 UNL     1       9.567  10.757  28.751  0.00  0.00    +0.147 C 
BRANCH  23  24
ATOM     24  C17 UNL     1       8.732   9.593  28.323  0.00  0.00    +0.093 A 
ATOM     25  N4  UNL     1       7.878   9.631  27.275  0.00  0.00    -0.250 NA
ATOM     26  C18 UNL     1       7.215   8.455  27.121  0.00  0.00    +0.134 A 
ATOM     27  C19 UNL     1       7.539   7.480  28.054  0.00  0.00    +0.075 A 
ATOM     28 BR1  UNL     1       6.803   5.725  28.144  0.00  0.00    -0.041 Br
ATOM     29  S1  UNL     1       8.689   8.105  29.109  0.00  0.00    -0.064 S 
ENDBRANCH  23  24
ENDBRANCH   9  23
TORSDOF 4
ENDMDL
MODEL 9
REMARK VINA RESULT:    -6.719      4.485      9.294
REMARK INTER + INTRA:          -8.322
REMARK INTER:                  -7.603
REMARK INTRA:                  -0.719
REMARK UNBOUND:                -0.032
REMARK  Name = /home/qwerty/github/datacon2025hack/step_04_hit_selection/docking/ligands/lig_500.pdb
REMARK  4 active torsions:
REMARK  status: ('A' for Active; 'I' for Inactive)
REMARK    1  A    between atoms: N1_3  and  C2_4
REMARK    2  A    between atoms: N2_10  and  C8_11
REMARK    3  A    between atoms: N3_19  and  C16_20
REMARK    4  A    between atoms: C16_20  and  C17_21
REMARK                            x       y       z     vdW  Elec       q    Type
REMARK                         _______ _______ _______ _____ _____    ______ ____
ROOT
ATOM      1  C8  UNL     1      21.062   2.185  26.300  0.00  0.00    +0.038 A 
ATOM      2  C9  UNL     1      20.977   3.555  26.030  0.00  0.00    +0.023 A 
ATOM      3  C10 UNL     1      21.329   4.490  27.001  0.00  0.00    +0.002 A 
ATOM      4  C11 UNL     1      21.752   4.065  28.260  0.00  0.00    +0.005 A 
ATOM      5  C12 UNL     1      21.810   2.697  28.565  0.00  0.00    -0.028 A 
ATOM      6  C13 UNL     1      21.485   1.740  27.575  0.00  0.00    -0.021 A 
ATOM      7  C14 UNL     1      21.445   0.268  27.922  0.00  0.00    +0.052 C 
ATOM      8  C15 UNL     1      22.176  -0.052  29.234  0.00  0.00    +0.090 C 
ATOM      9  N3  UNL     1      21.854   0.912  30.303  0.00  0.00    -0.292 NA
ATOM     10  C20 UNL     1      22.300   2.270  29.931  0.00  0.00    +0.120 C 
ENDROOT
BRANCH   1  14
ATOM     11  O1  UNL     1      18.463   1.124  25.991  0.00  0.00    -0.252 OA
ATOM     12  C1  UNL     1      19.351   0.735  25.183  0.00  0.00    +0.308 C 
ATOM     13  N1  UNL     1      19.028  -0.202  24.144  0.00  0.00    -0.269 N 
ATOM     14  N2  UNL     1      20.682   1.256  25.277  0.00  0.00    -0.269 N 
ATOM     15  H1  UNL     1      19.696  -0.285  23.346  0.00  0.00    +0.156 HD
ATOM     16  H7  UNL     1      21.439   0.799  24.721  0.00  0.00    +0.156 HD
BRANCH  13  17
ATOM     17  C2  UNL     1      17.793  -0.935  24.073  0.00  0.00    +0.035 A 
ATOM     18  C3  UNL     1      16.707  -0.474  23.305  0.00  0.00    +0.023 A 
ATOM     19  C4  UNL     1      15.510  -1.196  23.273  0.00  0.00    +0.002 A 
ATOM     20  C5  UNL     1      15.380  -2.373  24.015  0.00  0.00    +0.000 A 
ATOM     21  C6  UNL     1      16.445  -2.825  24.798  0.00  0.00    +0.002 A 
ATOM     22  C7  UNL     1      17.644  -2.106  24.834  0.00  0.00    +0.023 A 
ENDBRANCH  13  17
ENDBRANCH   1  14
BRANCH   9  23
ATOM     23  C16 UNL     1      20.429   0.868  30.697  0.00  0.00    +0.147 C 
BRANCH  23  24
ATOM     24  C17 UNL     1      20.192   1.755  31.877  0.00  0.00    +0.093 A 
ATOM     25  N4  UNL     1      20.675   1.499  33.114  0.00  0.00    -0.250 NA
ATOM     26  C18 UNL     1      20.286   2.442  34.012  0.00  0.00    +0.134 A 
ATOM     27  C19 UNL     1      19.486   3.448  33.489  0.00  0.00    +0.075 A 
ATOM     28 BR1  UNL     1      18.758   4.920  34.455  0.00  0.00    -0.041 Br
ATOM     29  S1  UNL     1      19.253   3.152  31.851  0.00  0.00    -0.064 S 
ENDBRANCH  23  24
ENDBRANCH   9  23
TORSDOF 4
ENDMDL
