REMARK  Name = /home/qwerty/github/datacon2025hack/step_04_hit_selection/docking/ligands/lig_735.pdb
REMARK  6 active torsions:
REMARK  status: ('A' for Active; 'I' for Inactive)
REMARK    1  A    between atoms: C2_2  and  C3_3
REMARK    2  A    between atoms: C2_2  and  C4_4
REMARK    3  A    between atoms: C4_4  and  N1_5
REMARK    4  A    between atoms: C10_12  and  C11_14
REMARK    5  A    between atoms: C13_16  and  C14_17
REMARK    6  A    between atoms: C15_19  and  C16_20
REMARK                            x       y       z     vdW  Elec       q    Type
REMARK                         _______ _______ _______ _____ _____    ______ ____
ROOT
ATOM      1  N1  UNL     1      -2.798   0.288   0.044  0.00  0.00    -0.294 NA
ATOM      2  C5  UNL     1      -3.422   0.926   1.209  0.00  0.00    +0.085 C 
ATOM      3  C6  UNL     1      -2.451   1.982   1.691  0.00  0.00    +0.020 C 
ATOM      4  C7  UNL     1      -1.080   1.410   1.353  0.00  0.00    +0.010 C 
ATOM      5  C8  UNL     1      -0.087   2.500   0.899  0.00  0.00    +0.024 C 
ATOM      6  C9  UNL     1       1.164   1.863   0.284  0.00  0.00    +0.108 C 
ATOM      7  N2  UNL     1       0.811   0.882  -0.755  0.00  0.00    -0.295 N 
ATOM      8  C10 UNL     1       1.822   0.439  -1.675  0.00  0.00    +0.265 C 
ATOM      9  O1  UNL     1       1.626   0.557  -2.914  0.00  0.00    -0.268 OA
ATOM     10  C17 UNL     1      -0.597   0.571  -1.030  0.00  0.00    +0.127 C 
ATOM     11  C18 UNL     1      -1.347   0.319   0.290  0.00  0.00    +0.077 C 
ENDROOT
BRANCH   8  12
ATOM     12  C11 UNL     1       3.088  -0.150  -1.199  0.00  0.00    +0.129 A 
ATOM     13  C12 UNL     1       3.167  -0.801   0.039  0.00  0.00    +0.056 A 
ATOM     14  C13 UNL     1       4.388  -1.360   0.428  0.00  0.00    +0.042 A 
ATOM     15  C14 UNL     1       4.509  -2.087   1.728  0.00  0.00    +0.066 C 
ATOM     16  N3  UNL     1       5.459  -1.281  -0.406  0.00  0.00    -0.237 NA
ATOM     17  C15 UNL     1       5.369  -0.650  -1.606  0.00  0.00    +0.127 A 
ATOM     18  C16 UNL     1       6.546  -0.618  -2.523  0.00  0.00    +0.088 C 
ATOM     19  N4  UNL     1       4.187  -0.107  -1.999  0.00  0.00    -0.228 NA
ENDBRANCH   8  12
BRANCH   1  20
ATOM     20  C4  UNL     1      -3.298  -1.085  -0.171  0.00  0.00    +0.114 C 
BRANCH  20  22
ATOM     21  C1  UNL     1      -5.016  -0.514  -1.852  0.00  0.00    +0.008 C 
ATOM     22  C2  UNL     1      -4.728  -1.058  -0.661  0.00  0.00    -0.066 C 
ATOM     23  C3  UNL     1      -5.836  -1.636   0.178  0.00  0.00    +0.040 C 
ENDBRANCH  20  22
ENDBRANCH   1  20
TORSDOF 3
