MODEL 1
REMARK VINA RESULT:    -6.360      0.000      0.000
REMARK INTER + INTRA:          -8.342
REMARK INTER:                  -7.476
REMARK INTRA:                  -0.866
REMARK UNBOUND:                -0.866
REMARK  Name = /home/qwerty/github/datacon2025hack/step_04_hit_selection/docking/ligands/lig_753.pdb
REMARK  4 active torsions:
REMARK  status: ('A' for Active; 'I' for Inactive)
REMARK    1  A    between atoms: C1_1  and  O1_2
REMARK    2  A    between atoms: O1_2  and  C2_3
REMARK    3  A    between atoms: C6_7  and  C7_8
REMARK    4  A    between atoms: C9_12  and  C10_13
REMARK                            x       y       z     vdW  Elec       q    Type
REMARK                         _______ _______ _______ _____ _____    ______ ____
ROOT
ATOM      1  C7  UNL     1      11.293  13.835  30.113  0.00  0.00    +0.027 A 
ATOM      2  C8  UNL     1      11.920  14.564  29.123  0.00  0.00    +0.114 A 
ATOM      3  N1  UNL     1      12.854  15.344  29.693  0.00  0.00    -0.284 N 
ATOM      4  N2  UNL     1      12.867  15.148  31.001  0.00  0.00    -0.173 NA
ATOM      5  C9  UNL     1      11.928  14.225  31.291  0.00  0.00    +0.100 A 
ATOM      6  H8  UNL     1      13.479  16.016  29.194  0.00  0.00    +0.188 HD
ENDROOT
BRANCH   5   7
ATOM      7  C10 UNL     1      11.706  13.709  32.657  0.00  0.00    +0.004 A 
ATOM      8  C11 UNL     1      12.376  12.564  33.118  0.00  0.00    +0.011 A 
ATOM      9  C12 UNL     1      12.152  12.086  34.410  0.00  0.00    +0.022 A 
ATOM     10  C13 UNL     1      11.269  12.753  35.266  0.00  0.00    +0.059 A 
ATOM     11 CL1  UNL     1      11.010  12.118  36.885  0.00  0.00    -0.082 Cl
ATOM     12  C14 UNL     1      10.614  13.914  34.825  0.00  0.00    +0.060 A 
ATOM     13 CL2  UNL     1       9.504  14.788  35.871  0.00  0.00    -0.082 Cl
ATOM     14  C15 UNL     1      10.839  14.391  33.527  0.00  0.00    +0.031 A 
ENDBRANCH   5   7
BRANCH   1  19
ATOM     15  C2  UNL     1       9.144  10.701  29.970  0.00  0.00    +0.121 A 
ATOM     16  C3  UNL     1       7.917  11.247  29.579  0.00  0.00    +0.045 A 
ATOM     17  C4  UNL     1       7.786  12.623  29.376  0.00  0.00    +0.004 A 
ATOM     18  C5  UNL     1       8.886  13.466  29.551  0.00  0.00    +0.009 A 
ATOM     19  C6  UNL     1      10.131  12.936  29.928  0.00  0.00    -0.011 A 
ATOM     20  C16 UNL     1      10.248  11.554  30.158  0.00  0.00    +0.054 A 
BRANCH  15  22
ATOM     21  C1  UNL     1       8.101   8.446  30.248  0.00  0.00    +0.277 C 
ATOM     22  O1  UNL     1       9.227   9.313  30.156  0.00  0.00    -0.495 OA
ENDBRANCH  15  22
ENDBRANCH   1  19
TORSDOF 3
ENDMDL
MODEL 2
REMARK VINA RESULT:    -6.162      3.129      5.613
REMARK INTER + INTRA:          -8.109
REMARK INTER:                  -7.336
REMARK INTRA:                  -0.773
REMARK UNBOUND:                -0.866
REMARK  Name = /home/qwerty/github/datacon2025hack/step_04_hit_selection/docking/ligands/lig_753.pdb
REMARK  4 active torsions:
REMARK  status: ('A' for Active; 'I' for Inactive)
REMARK    1  A    between atoms: C1_1  and  O1_2
REMARK    2  A    between atoms: O1_2  and  C2_3
REMARK    3  A    between atoms: C6_7  and  C7_8
REMARK    4  A    between atoms: C9_12  and  C10_13
REMARK                            x       y       z     vdW  Elec       q    Type
REMARK                         _______ _______ _______ _____ _____    ______ ____
ROOT
ATOM      1  C7  UNL     1      11.886  14.153  31.300  0.00  0.00    +0.027 A 
ATOM      2  C8  UNL     1      12.781  15.142  30.945  0.00  0.00    +0.114 A 
ATOM      3  N1  UNL     1      12.706  15.332  29.618  0.00  0.00    -0.284 N 
ATOM      4  N2  UNL     1      11.800  14.521  29.098  0.00  0.00    -0.173 NA
ATOM      5  C9  UNL     1      11.273  13.790  30.101  0.00  0.00    +0.100 A 
ATOM      6  H8  UNL     1      13.274  16.009  29.062  0.00  0.00    +0.188 HD
ENDROOT
BRANCH   5   7
ATOM      7  C10 UNL     1      10.178  12.819  29.898  0.00  0.00    +0.004 A 
ATOM      8  C11 UNL     1       8.890  13.245  29.537  0.00  0.00    +0.011 A 
ATOM      9  C12 UNL     1       7.864  12.316  29.353  0.00  0.00    +0.022 A 
ATOM     10  C13 UNL     1       8.114  10.948  29.509  0.00  0.00    +0.059 A 
ATOM     11 CL1  UNL     1       6.796   9.809  29.272  0.00  0.00    -0.082 Cl
ATOM     12  C14 UNL     1       9.406  10.510  29.843  0.00  0.00    +0.060 A 
ATOM     13 CL2  UNL     1       9.766   8.800  30.039  0.00  0.00    -0.082 Cl
ATOM     14  C15 UNL     1      10.433  11.444  30.029  0.00  0.00    +0.031 A 
ENDBRANCH   5   7
BRANCH   1  19
ATOM     15  C2  UNL     1      10.890  13.690  34.941  0.00  0.00    +0.121 A 
ATOM     16  C3  UNL     1      11.437  12.428  35.199  0.00  0.00    +0.045 A 
ATOM     17  C4  UNL     1      12.112  11.729  34.195  0.00  0.00    +0.004 A 
ATOM     18  C5  UNL     1      12.257  12.292  32.925  0.00  0.00    +0.009 A 
ATOM     19  C6  UNL     1      11.730  13.563  32.649  0.00  0.00    -0.011 A 
ATOM     20  C16 UNL     1      11.027  14.248  33.655  0.00  0.00    +0.054 A 
BRANCH  15  22
ATOM     21  C1  UNL     1       8.830  14.637  35.994  0.00  0.00    +0.277 C 
ATOM     22  O1  UNL     1      10.226  14.355  35.982  0.00  0.00    -0.495 OA
ENDBRANCH  15  22
ENDBRANCH   1  19
TORSDOF 3
ENDMDL
MODEL 3
REMARK VINA RESULT:    -6.125     15.002     16.652
REMARK INTER + INTRA:          -8.066
REMARK INTER:                  -7.258
REMARK INTRA:                  -0.808
REMARK UNBOUND:                -0.866
REMARK  Name = /home/qwerty/github/datacon2025hack/step_04_hit_selection/docking/ligands/lig_753.pdb
REMARK  4 active torsions:
REMARK  status: ('A' for Active; 'I' for Inactive)
REMARK    1  A    between atoms: C1_1  and  O1_2
REMARK    2  A    between atoms: O1_2  and  C2_3
REMARK    3  A    between atoms: C6_7  and  C7_8
REMARK    4  A    between atoms: C9_12  and  C10_13
REMARK                            x       y       z     vdW  Elec       q    Type
REMARK                         _______ _______ _______ _____ _____    ______ ____
ROOT
ATOM      1  C7  UNL     1      21.374   2.194  26.324  0.00  0.00    +0.027 A 
ATOM      2  C8  UNL     1      22.257   2.891  25.523  0.00  0.00    +0.114 A 
ATOM      3  N1  UNL     1      21.792   2.880  24.263  0.00  0.00    -0.284 N 
ATOM      4  N2  UNL     1      20.648   2.217  24.212  0.00  0.00    -0.173 NA
ATOM      5  C9  UNL     1      20.360   1.790  25.458  0.00  0.00    +0.100 A 
ATOM      6  H8  UNL     1      22.254   3.317  23.435  0.00  0.00    +0.188 HD
ENDROOT
BRANCH   5   7
ATOM      7  C10 UNL     1      19.116   1.066  25.790  0.00  0.00    +0.004 A 
ATOM      8  C11 UNL     1      18.181   1.606  26.689  0.00  0.00    +0.011 A 
ATOM      9  C12 UNL     1      17.012   0.908  26.996  0.00  0.00    +0.022 A 
ATOM     10  C13 UNL     1      16.751  -0.331  26.399  0.00  0.00    +0.059 A 
ATOM     11 CL1  UNL     1      15.270  -1.181  26.814  0.00  0.00    -0.082 Cl
ATOM     12  C14 UNL     1      17.667  -0.867  25.479  0.00  0.00    +0.060 A 
ATOM     13 CL2  UNL     1      17.374  -2.415  24.699  0.00  0.00    -0.082 Cl
ATOM     14  C15 UNL     1      18.840  -0.166  25.173  0.00  0.00    +0.031 A 
ENDBRANCH   5   7
BRANCH   1  19
ATOM     15  C2  UNL     1      21.736   2.586  30.089  0.00  0.00    +0.121 A 
ATOM     16  C3  UNL     1      21.923   1.253  30.471  0.00  0.00    +0.045 A 
ATOM     17  C4  UNL     1      21.920   0.235  29.514  0.00  0.00    +0.004 A 
ATOM     18  C5  UNL     1      21.740   0.542  28.163  0.00  0.00    +0.009 A 
ATOM     19  C6  UNL     1      21.566   1.875  27.757  0.00  0.00    -0.011 A 
ATOM     20  C16 UNL     1      21.542   2.891  28.728  0.00  0.00    +0.054 A 
BRANCH  15  22
ATOM     21  C1  UNL     1      22.432   3.447  32.331  0.00  0.00    +0.277 C 
ATOM     22  O1  UNL     1      21.753   3.574  31.086  0.00  0.00    -0.495 OA
ENDBRANCH  15  22
ENDBRANCH   1  19
TORSDOF 3
ENDMDL
MODEL 4
REMARK VINA RESULT:    -6.098      6.824      9.156
REMARK INTER + INTRA:          -8.034
REMARK INTER:                  -7.237
REMARK INTRA:                  -0.797
REMARK UNBOUND:                -0.866
REMARK  Name = /home/qwerty/github/datacon2025hack/step_04_hit_selection/docking/ligands/lig_753.pdb
REMARK  4 active torsions:
REMARK  status: ('A' for Active; 'I' for Inactive)
REMARK    1  A    between atoms: C1_1  and  O1_2
REMARK    2  A    between atoms: O1_2  and  C2_3
REMARK    3  A    between atoms: C6_7  and  C7_8
REMARK    4  A    between atoms: C9_12  and  C10_13
REMARK                            x       y       z     vdW  Elec       q    Type
REMARK                         _______ _______ _______ _____ _____    ______ ____
ROOT
ATOM      1  C7  UNL     1       8.111  10.251  27.357  0.00  0.00    +0.027 A 
ATOM      2  C8  UNL     1       7.468   9.599  28.390  0.00  0.00    +0.114 A 
ATOM      3  N1  UNL     1       6.782   8.562  27.881  0.00  0.00    -0.284 N 
ATOM      4  N2  UNL     1       6.958   8.506  26.571  0.00  0.00    -0.173 NA
ATOM      5  C9  UNL     1       7.772   9.522  26.218  0.00  0.00    +0.100 A 
ATOM      6  H8  UNL     1       6.189   7.894  28.422  0.00  0.00    +0.188 HD
ENDROOT
BRANCH   5   7
ATOM      7  C10 UNL     1       8.239   9.731  24.833  0.00  0.00    +0.004 A 
ATOM      8  C11 UNL     1       7.404  10.317  23.867  0.00  0.00    +0.011 A 
ATOM      9  C12 UNL     1       7.858  10.505  22.560  0.00  0.00    +0.022 A 
ATOM     10  C13 UNL     1       9.157  10.126  22.203  0.00  0.00    +0.059 A 
ATOM     11 CL1  UNL     1       9.691  10.375  20.547  0.00  0.00    -0.082 Cl
ATOM     12  C14 UNL     1      10.009   9.564  23.168  0.00  0.00    +0.060 A 
ATOM     13 CL2  UNL     1      11.651   9.083  22.764  0.00  0.00    -0.082 Cl
ATOM     14  C15 UNL     1       9.551   9.376  24.478  0.00  0.00    +0.031 A 
ENDBRANCH   5   7
BRANCH   1  19
ATOM     15  C2  UNL     1      11.012  12.709  27.408  0.00  0.00    +0.121 A 
ATOM     16  C3  UNL     1      10.334  13.903  27.679  0.00  0.00    +0.045 A 
ATOM     17  C4  UNL     1       8.946  13.910  27.832  0.00  0.00    +0.004 A 
ATOM     18  C5  UNL     1       8.222  12.720  27.726  0.00  0.00    +0.009 A 
ATOM     19  C6  UNL     1       8.884  11.509  27.470  0.00  0.00    -0.011 A 
ATOM     20  C16 UNL     1      10.278  11.513  27.289  0.00  0.00    +0.054 A 
BRANCH  15  22
ATOM     21  C1  UNL     1      13.298  13.254  28.260  0.00  0.00    +0.277 C 
ATOM     22  O1  UNL     1      12.407  12.751  27.269  0.00  0.00    -0.495 OA
ENDBRANCH  15  22
ENDBRANCH   1  19
TORSDOF 3
ENDMDL
MODEL 5
REMARK VINA RESULT:    -5.912     14.113     15.362
REMARK INTER + INTRA:          -7.815
REMARK INTER:                  -7.004
REMARK INTRA:                  -0.811
REMARK UNBOUND:                -0.866
REMARK  Name = /home/qwerty/github/datacon2025hack/step_04_hit_selection/docking/ligands/lig_753.pdb
REMARK  4 active torsions:
REMARK  status: ('A' for Active; 'I' for Inactive)
REMARK    1  A    between atoms: C1_1  and  O1_2
REMARK    2  A    between atoms: O1_2  and  C2_3
REMARK    3  A    between atoms: C6_7  and  C7_8
REMARK    4  A    between atoms: C9_12  and  C10_13
REMARK                            x       y       z     vdW  Elec       q    Type
REMARK                         _______ _______ _______ _____ _____    ______ ____
ROOT
ATOM      1  C7  UNL     1      20.902   1.635  31.584  0.00  0.00    +0.027 A 
ATOM      2  C8  UNL     1      20.353   0.640  32.367  0.00  0.00    +0.114 A 
ATOM      3  N1  UNL     1      20.329   1.062  33.642  0.00  0.00    -0.284 N 
ATOM      4  N2  UNL     1      20.827   2.285  33.720  0.00  0.00    -0.173 NA
ATOM      5  C9  UNL     1      21.181   2.669  32.476  0.00  0.00    +0.100 A 
ATOM      6  H8  UNL     1      19.980   0.518  34.461  0.00  0.00    +0.188 HD
ENDROOT
BRANCH   5   7
ATOM      7  C10 UNL     1      21.718   4.012  32.174  0.00  0.00    +0.004 A 
ATOM      8  C11 UNL     1      21.018   4.900  31.340  0.00  0.00    +0.011 A 
ATOM      9  C12 UNL     1      21.540   6.164  31.059  0.00  0.00    +0.022 A 
ATOM     10  C13 UNL     1      22.758   6.565  31.619  0.00  0.00    +0.059 A 
ATOM     11 CL1  UNL     1      23.384   8.164  31.240  0.00  0.00    -0.082 Cl
ATOM     12  C14 UNL     1      23.452   5.695  32.476  0.00  0.00    +0.060 A 
ATOM     13 CL2  UNL     1      24.980   6.162  33.209  0.00  0.00    -0.082 Cl
ATOM     14  C15 UNL     1      22.927   4.427  32.755  0.00  0.00    +0.031 A 
ENDBRANCH   5   7
BRANCH   1  19
ATOM     15  C2  UNL     1      20.476   1.344  27.816  0.00  0.00    +0.121 A 
ATOM     16  C3  UNL     1      21.813   1.354  27.404  0.00  0.00    +0.045 A 
ATOM     17  C4  UNL     1      22.842   1.467  28.341  0.00  0.00    +0.004 A 
ATOM     18  C5  UNL     1      22.545   1.559  29.702  0.00  0.00    +0.009 A 
ATOM     19  C6  UNL     1      21.211   1.535  30.139  0.00  0.00    -0.011 A 
ATOM     20  C16 UNL     1      20.179   1.450  29.188  0.00  0.00    +0.054 A 
BRANCH  15  22
ATOM     21  C1  UNL     1      19.592   0.419  25.668  0.00  0.00    +0.277 C 
ATOM     22  O1  UNL     1      19.477   1.223  26.838  0.00  0.00    -0.495 OA
ENDBRANCH  15  22
ENDBRANCH   1  19
TORSDOF 3
ENDMDL
MODEL 6
REMARK VINA RESULT:    -5.618     13.985     15.772
REMARK INTER + INTRA:          -7.470
REMARK INTER:                  -6.818
REMARK INTRA:                  -0.652
REMARK UNBOUND:                -0.866
REMARK  Name = /home/qwerty/github/datacon2025hack/step_04_hit_selection/docking/ligands/lig_753.pdb
REMARK  4 active torsions:
REMARK  status: ('A' for Active; 'I' for Inactive)
REMARK    1  A    between atoms: C1_1  and  O1_2
REMARK    2  A    between atoms: O1_2  and  C2_3
REMARK    3  A    between atoms: C6_7  and  C7_8
REMARK    4  A    between atoms: C9_12  and  C10_13
REMARK                            x       y       z     vdW  Elec       q    Type
REMARK                         _______ _______ _______ _____ _____    ______ ____
ROOT
ATOM      1  C7  UNL     1      21.894   3.475  32.627  0.00  0.00    +0.027 A 
ATOM      2  C8  UNL     1      21.473   2.913  33.816  0.00  0.00    +0.114 A 
ATOM      3  N1  UNL     1      20.865   1.746  33.547  0.00  0.00    -0.284 N 
ATOM      4  N2  UNL     1      20.879   1.522  32.243  0.00  0.00    -0.173 NA
ATOM      5  C9  UNL     1      21.508   2.557  31.651  0.00  0.00    +0.100 A 
ATOM      6  H8  UNL     1      20.433   1.104  34.247  0.00  0.00    +0.188 HD
ENDROOT
BRANCH   5   7
ATOM      7  C10 UNL     1      21.767   2.613  30.198  0.00  0.00    +0.004 A 
ATOM      8  C11 UNL     1      22.571   1.649  29.567  0.00  0.00    +0.011 A 
ATOM      9  C12 UNL     1      22.810   1.718  28.193  0.00  0.00    +0.022 A 
ATOM     10  C13 UNL     1      22.238   2.740  27.427  0.00  0.00    +0.059 A 
ATOM     11 CL1  UNL     1      22.566   2.795  25.701  0.00  0.00    -0.082 Cl
ATOM     12  C14 UNL     1      21.412   3.693  28.044  0.00  0.00    +0.060 A 
ATOM     13 CL2  UNL     1      20.665   4.987  27.118  0.00  0.00    -0.082 Cl
ATOM     14  C15 UNL     1      21.174   3.623  29.422  0.00  0.00    +0.031 A 
ENDBRANCH   5   7
BRANCH   1  19
ATOM     15  C2  UNL     1      22.361   7.155  31.790  0.00  0.00    +0.121 A 
ATOM     16  C3  UNL     1      23.693   7.340  32.174  0.00  0.00    +0.045 A 
ATOM     17  C4  UNL     1      24.429   6.281  32.712  0.00  0.00    +0.004 A 
ATOM     18  C5  UNL     1      23.842   5.022  32.860  0.00  0.00    +0.009 A 
ATOM     19  C6  UNL     1      22.511   4.811  32.466  0.00  0.00    -0.011 A 
ATOM     20  C16 UNL     1      21.768   5.888  31.952  0.00  0.00    +0.054 A 
BRANCH  15  22
ATOM     21  C1  UNL     1      22.250   9.515  30.975  0.00  0.00    +0.277 C 
ATOM     22  O1  UNL     1      21.665   8.247  31.250  0.00  0.00    -0.495 OA
ENDBRANCH  15  22
ENDBRANCH   1  19
TORSDOF 3
ENDMDL
MODEL 7
REMARK VINA RESULT:    -5.382     11.483     13.326
REMARK INTER + INTRA:          -7.192
REMARK INTER:                  -6.411
REMARK INTRA:                  -0.780
REMARK UNBOUND:                -0.866
REMARK  Name = /home/qwerty/github/datacon2025hack/step_04_hit_selection/docking/ligands/lig_753.pdb
REMARK  4 active torsions:
REMARK  status: ('A' for Active; 'I' for Inactive)
REMARK    1  A    between atoms: C1_1  and  O1_2
REMARK    2  A    between atoms: O1_2  and  C2_3
REMARK    3  A    between atoms: C6_7  and  C7_8
REMARK    4  A    between atoms: C9_12  and  C10_13
REMARK                            x       y       z     vdW  Elec       q    Type
REMARK                         _______ _______ _______ _____ _____    ______ ____
ROOT
ATOM      1  C7  UNL     1       8.168   6.597  21.072  0.00  0.00    +0.027 A 
ATOM      2  C8  UNL     1       6.878   6.204  20.777  0.00  0.00    +0.114 A 
ATOM      3  N1  UNL     1       6.881   4.888  20.509  0.00  0.00    -0.284 N 
ATOM      4  N2  UNL     1       8.108   4.409  20.625  0.00  0.00    -0.173 NA
ATOM      5  C9  UNL     1       8.920   5.427  20.975  0.00  0.00    +0.100 A 
ATOM      6  H8  UNL     1       6.051   4.315  20.241  0.00  0.00    +0.188 HD
ENDROOT
BRANCH   5   7
ATOM      7  C10 UNL     1      10.359   5.246  21.257  0.00  0.00    +0.004 A 
ATOM      8  C11 UNL     1      10.838   5.193  22.576  0.00  0.00    +0.011 A 
ATOM      9  C12 UNL     1      12.201   5.026  22.826  0.00  0.00    +0.022 A 
ATOM     10  C13 UNL     1      13.103   4.892  21.764  0.00  0.00    +0.059 A 
ATOM     11 CL1  UNL     1      14.812   4.686  22.119  0.00  0.00    -0.082 Cl
ATOM     12  C14 UNL     1      12.630   4.917  20.442  0.00  0.00    +0.060 A 
ATOM     13 CL2  UNL     1      13.727   4.742  19.079  0.00  0.00    -0.082 Cl
ATOM     14  C15 UNL     1      11.263   5.086  20.193  0.00  0.00    +0.031 A 
ENDBRANCH   5   7
BRANCH   1  19
ATOM     15  C2  UNL     1      10.084   9.869  20.788  0.00  0.00    +0.121 A 
ATOM     16  C3  UNL     1       9.462  10.620  21.791  0.00  0.00    +0.045 A 
ATOM     17  C4  UNL     1       8.422  10.072  22.544  0.00  0.00    +0.004 A 
ATOM     18  C5  UNL     1       8.000   8.761  22.309  0.00  0.00    +0.009 A 
ATOM     19  C6  UNL     1       8.621   7.985  21.318  0.00  0.00    -0.011 A 
ATOM     20  C16 UNL     1       9.648   8.553  20.544  0.00  0.00    +0.054 A 
BRANCH  15  22
ATOM     21  C1  UNL     1      12.436  10.689  20.576  0.00  0.00    +0.277 C 
ATOM     22  O1  UNL     1      11.128  10.461  20.061  0.00  0.00    -0.495 OA
ENDBRANCH  15  22
ENDBRANCH   1  19
TORSDOF 3
ENDMDL
MODEL 8
REMARK VINA RESULT:    -5.366     14.423     16.258
REMARK INTER + INTRA:          -7.173
REMARK INTER:                  -6.271
REMARK INTRA:                  -0.902
REMARK UNBOUND:                -0.866
REMARK  Name = /home/qwerty/github/datacon2025hack/step_04_hit_selection/docking/ligands/lig_753.pdb
REMARK  4 active torsions:
REMARK  status: ('A' for Active; 'I' for Inactive)
REMARK    1  A    between atoms: C1_1  and  O1_2
REMARK    2  A    between atoms: O1_2  and  C2_3
REMARK    3  A    between atoms: C6_7  and  C7_8
REMARK    4  A    between atoms: C9_12  and  C10_13
REMARK                            x       y       z     vdW  Elec       q    Type
REMARK                         _______ _______ _______ _____ _____    ______ ____
ROOT
ATOM      1  C7  UNL     1      21.578  12.906  19.641  0.00  0.00    +0.027 A 
ATOM      2  C8  UNL     1      20.733  13.218  18.595  0.00  0.00    +0.114 A 
ATOM      3  N1  UNL     1      19.910  14.204  18.988  0.00  0.00    -0.284 N 
ATOM      4  N2  UNL     1      20.187  14.550  20.235  0.00  0.00    -0.173 NA
ATOM      5  C9  UNL     1      21.208  13.780  20.662  0.00  0.00    +0.100 A 
ATOM      6  H8  UNL     1      19.155  14.639  18.413  0.00  0.00    +0.188 HD
ENDROOT
BRANCH   5   7
ATOM      7  C10 UNL     1      21.827  13.935  21.994  0.00  0.00    +0.004 A 
ATOM      8  C11 UNL     1      21.341  13.228  23.106  0.00  0.00    +0.011 A 
ATOM      9  C12 UNL     1      21.934  13.389  24.360  0.00  0.00    +0.022 A 
ATOM     10  C13 UNL     1      23.030  14.244  24.518  0.00  0.00    +0.059 A 
ATOM     11 CL1  UNL     1      23.747  14.422  26.113  0.00  0.00    -0.082 Cl
ATOM     12  C14 UNL     1      23.541  14.934  23.407  0.00  0.00    +0.060 A 
ATOM     13 CL2  UNL     1      24.923  16.011  23.559  0.00  0.00    -0.082 Cl
ATOM     14  C15 UNL     1      22.944  14.773  22.151  0.00  0.00    +0.031 A 
ENDBRANCH   5   7
BRANCH   1  19
ATOM     15  C2  UNL     1      23.224   9.554  20.359  0.00  0.00    +0.121 A 
ATOM     16  C3  UNL     1      24.441   9.716  19.689  0.00  0.00    +0.045 A 
ATOM     17  C4  UNL     1      24.719  10.898  18.999  0.00  0.00    +0.004 A 
ATOM     18  C5  UNL     1      23.785  11.937  18.983  0.00  0.00    +0.009 A 
ATOM     19  C6  UNL     1      22.564  11.802  19.663  0.00  0.00    -0.011 A 
ATOM     20  C16 UNL     1      22.280  10.598  20.331  0.00  0.00    +0.054 A 
BRANCH  15  22
ATOM     21  C1  UNL     1      24.006   7.400  21.359  0.00  0.00    +0.277 C 
ATOM     22  O1  UNL     1      22.994   8.351  21.043  0.00  0.00    -0.495 OA
ENDBRANCH  15  22
ENDBRANCH   1  19
TORSDOF 3
ENDMDL
MODEL 9
REMARK VINA RESULT:    -5.277     10.880     13.077
REMARK INTER + INTRA:          -7.069
REMARK INTER:                  -6.173
REMARK INTRA:                  -0.895
REMARK UNBOUND:                -0.866
REMARK  Name = /home/qwerty/github/datacon2025hack/step_04_hit_selection/docking/ligands/lig_753.pdb
REMARK  4 active torsions:
REMARK  status: ('A' for Active; 'I' for Inactive)
REMARK    1  A    between atoms: C1_1  and  O1_2
REMARK    2  A    between atoms: O1_2  and  C2_3
REMARK    3  A    between atoms: C6_7  and  C7_8
REMARK    4  A    between atoms: C9_12  and  C10_13
REMARK                            x       y       z     vdW  Elec       q    Type
REMARK                         _______ _______ _______ _____ _____    ______ ____
ROOT
ATOM      1  C7  UNL     1       8.094   6.563  21.210  0.00  0.00    +0.027 A 
ATOM      2  C8  UNL     1       6.775   6.352  20.860  0.00  0.00    +0.114 A 
ATOM      3  N1  UNL     1       6.643   5.086  20.431  0.00  0.00    -0.284 N 
ATOM      4  N2  UNL     1       7.810   4.466  20.494  0.00  0.00    -0.173 NA
ATOM      5  C9  UNL     1       8.718   5.339  20.974  0.00  0.00    +0.100 A 
ATOM      6  H8  UNL     1       5.762   4.644  20.088  0.00  0.00    +0.188 HD
ENDROOT
BRANCH   5   7
ATOM      7  C10 UNL     1      10.124   4.969  21.240  0.00  0.00    +0.004 A 
ATOM      8  C11 UNL     1      10.537   4.569  22.521  0.00  0.00    +0.011 A 
ATOM      9  C12 UNL     1      11.870   4.227  22.758  0.00  0.00    +0.022 A 
ATOM     10  C13 UNL     1      12.804   4.263  21.717  0.00  0.00    +0.059 A 
ATOM     11 CL1  UNL     1      14.474   3.828  22.056  0.00  0.00    -0.082 Cl
ATOM     12  C14 UNL     1      12.395   4.636  20.427  0.00  0.00    +0.060 A 
ATOM     13 CL2  UNL     1      13.534   4.685  19.088  0.00  0.00    -0.082 Cl
ATOM     14  C15 UNL     1      11.058   4.980  20.191  0.00  0.00    +0.031 A 
ENDBRANCH   5   7
BRANCH   1  19
ATOM     15  C2  UNL     1       9.060   9.570  23.328  0.00  0.00    +0.121 A 
ATOM     16  C3  UNL     1       9.826  10.296  22.410  0.00  0.00    +0.045 A 
ATOM     17  C4  UNL     1      10.037   9.807  21.119  0.00  0.00    +0.004 A 
ATOM     18  C5  UNL     1       9.473   8.590  20.729  0.00  0.00    +0.009 A 
ATOM     19  C6  UNL     1       8.688   7.853  21.629  0.00  0.00    -0.011 A 
ATOM     20  C16 UNL     1       8.503   8.337  22.936  0.00  0.00    +0.054 A 
BRANCH  15  22
ATOM     21  C1  UNL     1       7.799   9.751  25.479  0.00  0.00    +0.277 C 
ATOM     22  O1  UNL     1       8.871  10.105  24.611  0.00  0.00    -0.495 OA
ENDBRANCH  15  22
ENDBRANCH   1  19
TORSDOF 3
ENDMDL
