MODEL 1
REMARK VINA RESULT:    -6.576      0.000      0.000
REMARK INTER + INTRA:          -8.496
REMARK INTER:                  -7.729
REMARK INTRA:                  -0.767
REMARK UNBOUND:                -0.767
REMARK  Name = /home/qwerty/github/datacon2025hack/step_04_hit_selection/docking/ligands/lig_593.pdb
REMARK  5 active torsions:
REMARK  status: ('A' for Active; 'I' for Inactive)
REMARK    1  A    between atoms: C1_1  and  C2_2
REMARK    2  A    between atoms: C4_4  and  C5_5
REMARK    3  A    between atoms: C8_8  and  N1_9
REMARK    4  A    between atoms: C9_10  and  C10_12
REMARK    5  A    between atoms: C15_17  and  N2_18
REMARK                            x       y       z     vdW  Elec       q    Type
REMARK                         _______ _______ _______ _____ _____    ______ ____
ROOT
ATOM      1  N1  UNL     1      19.511  10.534  35.268  0.00  0.00    -0.281 N 
ATOM      2  C9  UNL     1      18.126  10.355  34.925  0.00  0.00    +0.251 C 
ATOM      3  O1  UNL     1      17.781   9.481  34.083  0.00  0.00    -0.270 OA
ATOM      4  H9  UNL     1      19.749  11.204  36.034  0.00  0.00    +0.155 HD
ENDROOT
BRANCH   1  12
ATOM      5  C1  UNL     1      25.539   5.860  33.202  0.00  0.00    +0.065 C 
ATOM      6  C2  UNL     1      24.409   6.612  33.830  0.00  0.00    +0.039 A 
ATOM      7  C3  UNL     1      24.020   6.334  35.144  0.00  0.00    +0.027 A 
ATOM      8  C4  UNL     1      22.960   7.044  35.730  0.00  0.00    -0.040 A 
ATOM      9  C5  UNL     1      22.560   6.723  37.147  0.00  0.00    +0.044 C 
ATOM     10  C6  UNL     1      22.299   8.041  34.973  0.00  0.00    +0.005 A 
ATOM     11  C7  UNL     1      21.227   8.799  35.489  0.00  0.00    +0.033 A 
ATOM     12  C8  UNL     1      20.586   9.766  34.700  0.00  0.00    +0.034 A 
ATOM     13  C17 UNL     1      21.047  10.009  33.396  0.00  0.00    +0.025 A 
ATOM     14  C18 UNL     1      22.107   9.269  32.873  0.00  0.00    +0.030 A 
ATOM     15  C19 UNL     1      22.731   8.286  33.647  0.00  0.00    +0.072 A 
ATOM     16  N3  UNL     1      23.763   7.574  33.121  0.00  0.00    -0.252 NA
ENDBRANCH   1  12
BRANCH   2  17
ATOM     17  C10 UNL     1      17.086  11.202  35.544  0.00  0.00    +0.071 A 
ATOM     18  C11 UNL     1      16.474  12.192  34.742  0.00  0.00    +0.065 A 
ATOM     19  C12 UNL     1      15.561  13.053  35.339  0.00  0.00    +0.167 A 
ATOM     20  C13 UNL     1      15.243  12.964  36.652  0.00  0.00    +0.168 A 
ATOM     21  C14 UNL     1      15.799  11.999  37.482  0.00  0.00    +0.083 A 
ATOM     22  C15 UNL     1      16.723  11.083  36.926  0.00  0.00    +0.142 A 
ATOM     23  O4  UNL     1      14.321  13.942  36.969  0.00  0.00    -0.453 OA
ATOM     24  C16 UNL     1      14.044  14.694  35.779  0.00  0.00    +0.466 C 
ATOM     25  O5  UNL     1      14.857  14.093  34.762  0.00  0.00    -0.453 OA
BRANCH  22  26
ATOM     26  N2  UNL     1      17.228  10.020  37.755  0.00  0.00    +0.057 N 
ATOM     27  O2  UNL     1      16.468   9.120  38.165  0.00  0.00    -0.126 OA
ATOM     28  O3  UNL     1      18.507  10.088  38.258  0.00  0.00    -0.126 OA
ENDBRANCH  22  26
ENDBRANCH   2  17
TORSDOF 3
ENDMDL
MODEL 2
REMARK VINA RESULT:    -6.485      2.900      8.678
REMARK INTER + INTRA:          -8.389
REMARK INTER:                  -7.977
REMARK INTRA:                  -0.412
REMARK UNBOUND:                -0.767
REMARK  Name = /home/qwerty/github/datacon2025hack/step_04_hit_selection/docking/ligands/lig_593.pdb
REMARK  5 active torsions:
REMARK  status: ('A' for Active; 'I' for Inactive)
REMARK    1  A    between atoms: C1_1  and  C2_2
REMARK    2  A    between atoms: C4_4  and  C5_5
REMARK    3  A    between atoms: C8_8  and  N1_9
REMARK    4  A    between atoms: C9_10  and  C10_12
REMARK    5  A    between atoms: C15_17  and  N2_18
REMARK                            x       y       z     vdW  Elec       q    Type
REMARK                         _______ _______ _______ _____ _____    ______ ____
ROOT
ATOM      1  N1  UNL     1      20.281   9.693  36.286  0.00  0.00    -0.281 N 
ATOM      2  C9  UNL     1      20.391   8.537  35.438  0.00  0.00    +0.251 C 
ATOM      3  O1  UNL     1      19.382   8.093  34.824  0.00  0.00    -0.270 OA
ATOM      4  H9  UNL     1      21.153  10.085  36.706  0.00  0.00    +0.155 HD
ENDROOT
BRANCH   1  12
ATOM      5  C1  UNL     1      13.947  14.402  36.696  0.00  0.00    +0.065 C 
ATOM      6  C2  UNL     1      15.219  13.668  36.410  0.00  0.00    +0.039 A 
ATOM      7  C3  UNL     1      16.060  14.090  35.375  0.00  0.00    +0.027 A 
ATOM      8  C4  UNL     1      17.253  13.400  35.111  0.00  0.00    -0.040 A 
ATOM      9  C5  UNL     1      18.140  13.876  33.989  0.00  0.00    +0.044 C 
ATOM     10  C6  UNL     1      17.589  12.278  35.907  0.00  0.00    +0.005 A 
ATOM     11  C7  UNL     1      18.769  11.532  35.707  0.00  0.00    +0.033 A 
ATOM     12  C8  UNL     1      19.057  10.416  36.506  0.00  0.00    +0.034 A 
ATOM     13  C17 UNL     1      18.178  10.064  37.543  0.00  0.00    +0.025 A 
ATOM     14  C18 UNL     1      17.008  10.793  37.754  0.00  0.00    +0.030 A 
ATOM     15  C19 UNL     1      16.705  11.891  36.943  0.00  0.00    +0.072 A 
ATOM     16  N3  UNL     1      15.560  12.591  37.162  0.00  0.00    -0.252 NA
ENDBRANCH   1  12
BRANCH   2  17
ATOM     17  C10 UNL     1      21.686   7.843  35.284  0.00  0.00    +0.071 A 
ATOM     18  C11 UNL     1      22.363   7.971  34.050  0.00  0.00    +0.065 A 
ATOM     19  C12 UNL     1      23.537   7.250  33.864  0.00  0.00    +0.167 A 
ATOM     20  C13 UNL     1      24.044   6.443  34.825  0.00  0.00    +0.168 A 
ATOM     21  C14 UNL     1      23.430   6.295  36.063  0.00  0.00    +0.083 A 
ATOM     22  C15 UNL     1      22.241   7.017  36.317  0.00  0.00    +0.142 A 
ATOM     23  O4  UNL     1      25.205   5.853  34.366  0.00  0.00    -0.453 OA
ATOM     24  C16 UNL     1      25.440   6.319  33.030  0.00  0.00    +0.466 C 
ATOM     25  O5  UNL     1      24.352   7.209  32.749  0.00  0.00    -0.453 OA
BRANCH  22  26
ATOM     26  N2  UNL     1      21.654   6.946  37.629  0.00  0.00    +0.057 N 
ATOM     27  O2  UNL     1      22.376   6.913  38.646  0.00  0.00    -0.126 OA
ATOM     28  O3  UNL     1      20.303   6.723  37.768  0.00  0.00    -0.126 OA
ENDBRANCH  22  26
ENDBRANCH   2  17
TORSDOF 3
ENDMDL
MODEL 3
REMARK VINA RESULT:    -6.451     16.263     18.734
REMARK INTER + INTRA:          -8.349
REMARK INTER:                  -7.552
REMARK INTRA:                  -0.797
REMARK UNBOUND:                -0.767
REMARK  Name = /home/qwerty/github/datacon2025hack/step_04_hit_selection/docking/ligands/lig_593.pdb
REMARK  5 active torsions:
REMARK  status: ('A' for Active; 'I' for Inactive)
REMARK    1  A    between atoms: C1_1  and  C2_2
REMARK    2  A    between atoms: C4_4  and  C5_5
REMARK    3  A    between atoms: C8_8  and  N1_9
REMARK    4  A    between atoms: C9_10  and  C10_12
REMARK    5  A    between atoms: C15_17  and  N2_18
REMARK                            x       y       z     vdW  Elec       q    Type
REMARK                         _______ _______ _______ _____ _____    ______ ____
ROOT
ATOM      1  N1  UNL     1      11.352   4.764  21.220  0.00  0.00    -0.281 N 
ATOM      2  C9  UNL     1      12.538   4.484  21.986  0.00  0.00    +0.251 C 
ATOM      3  O1  UNL     1      12.877   5.234  22.940  0.00  0.00    -0.270 OA
ATOM      4  H9  UNL     1      11.054   4.072  20.498  0.00  0.00    +0.155 HD
ENDROOT
BRANCH   1  12
ATOM      5  C1  UNL     1       7.321  11.527  21.905  0.00  0.00    +0.065 C 
ATOM      6  C2  UNL     1       8.236  10.384  21.597  0.00  0.00    +0.039 A 
ATOM      7  C3  UNL     1       9.290  10.548  20.692  0.00  0.00    +0.027 A 
ATOM      8  C4  UNL     1      10.147   9.474  20.408  0.00  0.00    -0.040 A 
ATOM      9  C5  UNL     1      11.276   9.677  19.429  0.00  0.00    +0.044 C 
ATOM     10  C6  UNL     1       9.929   8.231  21.051  0.00  0.00    +0.005 A 
ATOM     11  C7  UNL     1      10.745   7.104  20.820  0.00  0.00    +0.033 A 
ATOM     12  C8  UNL     1      10.485   5.885  21.463  0.00  0.00    +0.034 A 
ATOM     13  C17 UNL     1       9.423   5.801  22.378  0.00  0.00    +0.025 A 
ATOM     14  C18 UNL     1       8.607   6.907  22.617  0.00  0.00    +0.030 A 
ATOM     15  C19 UNL     1       8.849   8.117  21.959  0.00  0.00    +0.072 A 
ATOM     16  N3  UNL     1       8.045   9.184  22.203  0.00  0.00    -0.252 NA
ENDBRANCH   1  12
BRANCH   2  17
ATOM     17  C10 UNL     1      13.383   3.318  21.655  0.00  0.00    +0.071 A 
ATOM     18  C11 UNL     1      13.351   2.207  22.528  0.00  0.00    +0.065 A 
ATOM     19  C12 UNL     1      14.209   1.144  22.274  0.00  0.00    +0.167 A 
ATOM     20  C13 UNL     1      15.060   1.143  21.222  0.00  0.00    +0.168 A 
ATOM     21  C14 UNL     1      15.119   2.199  20.321  0.00  0.00    +0.083 A 
ATOM     22  C15 UNL     1      14.257   3.303  20.518  0.00  0.00    +0.142 A 
ATOM     23  O4  UNL     1      15.789  -0.029  21.220  0.00  0.00    -0.453 OA
ATOM     24  C16 UNL     1      15.370  -0.814  22.346  0.00  0.00    +0.466 C 
ATOM     25  O5  UNL     1      14.360  -0.027  22.992  0.00  0.00    -0.453 OA
BRANCH  22  26
ATOM     26  N2  UNL     1      14.243   4.355  19.536  0.00  0.00    +0.057 N 
ATOM     27  O2  UNL     1      15.145   5.217  19.517  0.00  0.00    -0.126 OA
ATOM     28  O3  UNL     1      13.140   4.531  18.732  0.00  0.00    -0.126 OA
ENDBRANCH  22  26
ENDBRANCH   2  17
TORSDOF 3
ENDMDL
MODEL 4
REMARK VINA RESULT:    -6.401     16.529     18.970
REMARK INTER + INTRA:          -8.291
REMARK INTER:                  -7.641
REMARK INTRA:                  -0.649
REMARK UNBOUND:                -0.767
REMARK  Name = /home/qwerty/github/datacon2025hack/step_04_hit_selection/docking/ligands/lig_593.pdb
REMARK  5 active torsions:
REMARK  status: ('A' for Active; 'I' for Inactive)
REMARK    1  A    between atoms: C1_1  and  C2_2
REMARK    2  A    between atoms: C4_4  and  C5_5
REMARK    3  A    between atoms: C8_8  and  N1_9
REMARK    4  A    between atoms: C9_10  and  C10_12
REMARK    5  A    between atoms: C15_17  and  N2_18
REMARK                            x       y       z     vdW  Elec       q    Type
REMARK                         _______ _______ _______ _____ _____    ______ ____
ROOT
ATOM      1  N1  UNL     1      12.779   1.679  21.533  0.00  0.00    -0.281 N 
ATOM      2  C9  UNL     1      13.975   1.730  22.330  0.00  0.00    +0.251 C 
ATOM      3  O1  UNL     1      14.312   2.796  22.914  0.00  0.00    -0.270 OA
ATOM      4  H9  UNL     1      12.485   0.757  21.140  0.00  0.00    +0.155 HD
ENDROOT
BRANCH   1  12
ATOM      5  C1  UNL     1       7.226   7.292  21.192  0.00  0.00    +0.065 C 
ATOM      6  C2  UNL     1       8.124   6.125  21.455  0.00  0.00    +0.039 A 
ATOM      7  C3  UNL     1       7.790   5.184  22.434  0.00  0.00    +0.027 A 
ATOM      8  C4  UNL     1       8.635   4.090  22.677  0.00  0.00    -0.040 A 
ATOM      9  C5  UNL     1       8.251   3.090  23.738  0.00  0.00    +0.044 C 
ATOM     10  C6  UNL     1       9.821   3.955  21.916  0.00  0.00    +0.005 A 
ATOM     11  C7  UNL     1      10.721   2.885  22.097  0.00  0.00    +0.033 A 
ATOM     12  C8  UNL     1      11.896   2.797  21.335  0.00  0.00    +0.034 A 
ATOM     13  C17 UNL     1      12.155   3.766  20.352  0.00  0.00    +0.025 A 
ATOM     14  C18 UNL     1      11.273   4.830  20.160  0.00  0.00    +0.030 A 
ATOM     15  C19 UNL     1      10.114   4.934  20.936  0.00  0.00    +0.072 A 
ATOM     16  N3  UNL     1       9.266   5.977  20.736  0.00  0.00    -0.252 NA
ENDBRANCH   1  12
BRANCH   2  17
ATOM     17  C10 UNL     1      14.835   0.537  22.465  0.00  0.00    +0.071 A 
ATOM     18  C11 UNL     1      14.746  -0.213  23.659  0.00  0.00    +0.065 A 
ATOM     19  C12 UNL     1      15.614  -1.284  23.832  0.00  0.00    +0.167 A 
ATOM     20  C13 UNL     1      16.529  -1.626  22.895  0.00  0.00    +0.168 A 
ATOM     21  C14 UNL     1      16.647  -0.936  21.695  0.00  0.00    +0.083 A 
ATOM     22  C15 UNL     1      15.778   0.153  21.454  0.00  0.00    +0.142 A 
ATOM     23  O4  UNL     1      17.253  -2.717  23.334  0.00  0.00    -0.453 OA
ATOM     24  C16 UNL     1      16.762  -3.081  24.632  0.00  0.00    +0.466 C 
ATOM     25  O5  UNL     1      15.717  -2.141  24.912  0.00  0.00    -0.453 OA
BRANCH  22  26
ATOM     26  N2  UNL     1      15.828   0.811  20.175  0.00  0.00    +0.057 N 
ATOM     27  O2  UNL     1      15.293   0.292  19.174  0.00  0.00    -0.126 OA
ATOM     28  O3  UNL     1      16.626   1.918  20.000  0.00  0.00    -0.126 OA
ENDBRANCH  22  26
ENDBRANCH   2  17
TORSDOF 3
ENDMDL
MODEL 5
REMARK VINA RESULT:    -6.369     16.502     18.704
REMARK INTER + INTRA:          -8.253
REMARK INTER:                  -7.600
REMARK INTRA:                  -0.653
REMARK UNBOUND:                -0.767
REMARK  Name = /home/qwerty/github/datacon2025hack/step_04_hit_selection/docking/ligands/lig_593.pdb
REMARK  5 active torsions:
REMARK  status: ('A' for Active; 'I' for Inactive)
REMARK    1  A    between atoms: C1_1  and  C2_2
REMARK    2  A    between atoms: C4_4  and  C5_5
REMARK    3  A    between atoms: C8_8  and  N1_9
REMARK    4  A    between atoms: C9_10  and  C10_12
REMARK    5  A    between atoms: C15_17  and  N2_18
REMARK                            x       y       z     vdW  Elec       q    Type
REMARK                         _______ _______ _______ _____ _____    ______ ____
ROOT
ATOM      1  N1  UNL     1      11.516   5.369  22.126  0.00  0.00    -0.281 N 
ATOM      2  C9  UNL     1      11.269   4.163  21.380  0.00  0.00    +0.251 C 
ATOM      3  O1  UNL     1      10.193   4.014  20.741  0.00  0.00    -0.270 OA
ATOM      4  H9  UNL     1      12.454   5.494  22.568  0.00  0.00    +0.155 HD
ENDROOT
BRANCH   1  12
ATOM      5  C1  UNL     1       7.102  11.915  21.796  0.00  0.00    +0.065 C 
ATOM      6  C2  UNL     1       8.073  10.786  21.651  0.00  0.00    +0.039 A 
ATOM      7  C3  UNL     1       9.075  10.839  20.677  0.00  0.00    +0.027 A 
ATOM      8  C4  UNL     1       9.986   9.779  20.545  0.00  0.00    -0.040 A 
ATOM      9  C5  UNL     1      11.056   9.861  19.488  0.00  0.00    +0.044 C 
ATOM     10  C6  UNL     1       9.873   8.664  21.411  0.00  0.00    +0.005 A 
ATOM     11  C7  UNL     1      10.748   7.560  21.345  0.00  0.00    +0.033 A 
ATOM     12  C8  UNL     1      10.592   6.466  22.209  0.00  0.00    +0.034 A 
ATOM     13  C17 UNL     1       9.576   6.493  23.179  0.00  0.00    +0.025 A 
ATOM     14  C18 UNL     1       8.704   7.579  23.258  0.00  0.00    +0.030 A 
ATOM     15  C19 UNL     1       8.841   8.659  22.381  0.00  0.00    +0.072 A 
ATOM     16  N3  UNL     1       7.983   9.709  22.472  0.00  0.00    -0.252 NA
ENDBRANCH   1  12
BRANCH   2  17
ATOM     17  C10 UNL     1      12.269   3.076  21.364  0.00  0.00    +0.071 A 
ATOM     18  C11 UNL     1      13.448   3.270  20.609  0.00  0.00    +0.065 A 
ATOM     19  C12 UNL     1      14.352   2.220  20.514  0.00  0.00    +0.167 A 
ATOM     20  C13 UNL     1      14.138   1.031  21.125  0.00  0.00    +0.168 A 
ATOM     21  C14 UNL     1      13.007   0.792  21.896  0.00  0.00    +0.083 A 
ATOM     22  C15 UNL     1      12.058   1.830  22.043  0.00  0.00    +0.142 A 
ATOM     23  O4  UNL     1      15.190   0.179  20.857  0.00  0.00    -0.453 OA
ATOM     24  C16 UNL     1      16.124   0.877  20.022  0.00  0.00    +0.466 C 
ATOM     25  O5  UNL     1      15.550   2.177  19.828  0.00  0.00    -0.453 OA
BRANCH  22  26
ATOM     26  N2  UNL     1      10.935   1.624  22.918  0.00  0.00    +0.057 N 
ATOM     27  O2  UNL     1       9.886   1.100  22.491  0.00  0.00    -0.126 OA
ATOM     28  O3  UNL     1      10.935   2.172  24.181  0.00  0.00    -0.126 OA
ENDBRANCH  22  26
ENDBRANCH   2  17
TORSDOF 3
ENDMDL
MODEL 6
REMARK VINA RESULT:    -6.351      2.389      4.114
REMARK INTER + INTRA:          -8.231
REMARK INTER:                  -7.416
REMARK INTRA:                  -0.815
REMARK UNBOUND:                -0.767
REMARK  Name = /home/qwerty/github/datacon2025hack/step_04_hit_selection/docking/ligands/lig_593.pdb
REMARK  5 active torsions:
REMARK  status: ('A' for Active; 'I' for Inactive)
REMARK    1  A    between atoms: C1_1  and  C2_2
REMARK    2  A    between atoms: C4_4  and  C5_5
REMARK    3  A    between atoms: C8_8  and  N1_9
REMARK    4  A    between atoms: C9_10  and  C10_12
REMARK    5  A    between atoms: C15_17  and  N2_18
REMARK                            x       y       z     vdW  Elec       q    Type
REMARK                         _______ _______ _______ _____ _____    ______ ____
ROOT
ATOM      1  N1  UNL     1      16.743  11.221  36.705  0.00  0.00    -0.281 N 
ATOM      2  C9  UNL     1      15.584  10.940  35.901  0.00  0.00    +0.251 C 
ATOM      3  O1  UNL     1      15.478   9.843  35.289  0.00  0.00    -0.270 OA
ATOM      4  H9  UNL     1      16.755  12.101  37.268  0.00  0.00    +0.155 HD
ENDROOT
BRANCH   1  12
ATOM      5  C1  UNL     1      23.180   6.637  36.631  0.00  0.00    +0.065 C 
ATOM      6  C2  UNL     1      22.073   7.622  36.426  0.00  0.00    +0.039 A 
ATOM      7  C3  UNL     1      22.120   8.526  35.361  0.00  0.00    +0.027 A 
ATOM      8  C4  UNL     1      21.078   9.447  35.172  0.00  0.00    -0.040 A 
ATOM      9  C5  UNL     1      21.154  10.411  34.015  0.00  0.00    +0.044 C 
ATOM     10  C6  UNL     1      19.985   9.443  36.072  0.00  0.00    +0.005 A 
ATOM     11  C7  UNL     1      18.900  10.335  35.951  0.00  0.00    +0.033 A 
ATOM     12  C8  UNL     1      17.844  10.311  36.874  0.00  0.00    +0.034 A 
ATOM     13  C17 UNL     1      17.852   9.359  37.906  0.00  0.00    +0.025 A 
ATOM     14  C18 UNL     1      18.918   8.469  38.039  0.00  0.00    +0.030 A 
ATOM     15  C19 UNL     1      19.985   8.507  37.135  0.00  0.00    +0.072 A 
ATOM     16  N3  UNL     1      21.015   7.634  37.278  0.00  0.00    -0.252 NA
ENDBRANCH   1  12
BRANCH   2  17
ATOM     17  C10 UNL     1      14.506  11.942  35.768  0.00  0.00    +0.071 A 
ATOM     18  C11 UNL     1      13.278  11.684  36.419  0.00  0.00    +0.065 A 
ATOM     19  C12 UNL     1      12.230  12.576  36.227  0.00  0.00    +0.167 A 
ATOM     20  C13 UNL     1      12.355  13.674  35.445  0.00  0.00    +0.168 A 
ATOM     21  C14 UNL     1      13.544  13.986  34.798  0.00  0.00    +0.083 A 
ATOM     22  C15 UNL     1      14.652  13.124  34.970  0.00  0.00    +0.142 A 
ATOM     23  O4  UNL     1      11.162  14.368  35.432  0.00  0.00    -0.453 OA
ATOM     24  C16 UNL     1      10.227  13.659  36.257  0.00  0.00    +0.466 C 
ATOM     25  O5  UNL     1      10.950  12.521  36.744  0.00  0.00    -0.453 OA
BRANCH  22  26
ATOM     26  N2  UNL     1      15.914  13.492  34.383  0.00  0.00    +0.057 N 
ATOM     27  O2  UNL     1      16.175  13.192  33.200  0.00  0.00    -0.126 OA
ATOM     28  O3  UNL     1      16.916  14.009  35.172  0.00  0.00    -0.126 OA
ENDBRANCH  22  26
ENDBRANCH   2  17
TORSDOF 3
ENDMDL
MODEL 7
REMARK VINA RESULT:    -6.347     16.099     17.044
REMARK INTER + INTRA:          -8.227
REMARK INTER:                  -7.567
REMARK INTRA:                  -0.660
REMARK UNBOUND:                -0.767
REMARK  Name = /home/qwerty/github/datacon2025hack/step_04_hit_selection/docking/ligands/lig_593.pdb
REMARK  5 active torsions:
REMARK  status: ('A' for Active; 'I' for Inactive)
REMARK    1  A    between atoms: C1_1  and  C2_2
REMARK    2  A    between atoms: C4_4  and  C5_5
REMARK    3  A    between atoms: C8_8  and  N1_9
REMARK    4  A    between atoms: C9_10  and  C10_12
REMARK    5  A    between atoms: C15_17  and  N2_18
REMARK                            x       y       z     vdW  Elec       q    Type
REMARK                         _______ _______ _______ _____ _____    ______ ____
ROOT
ATOM      1  N1  UNL     1      12.025   2.012  22.220  0.00  0.00    -0.281 N 
ATOM      2  C9  UNL     1      11.909   3.387  22.627  0.00  0.00    +0.251 C 
ATOM      3  O1  UNL     1      12.648   3.851  23.537  0.00  0.00    -0.270 OA
ATOM      4  H9  UNL     1      11.460   1.687  21.403  0.00  0.00    +0.155 HD
ENDROOT
BRANCH   1  12
ATOM      5  C1  UNL     1      17.673  -3.085  24.359  0.00  0.00    +0.065 C 
ATOM      6  C2  UNL     1      16.750  -2.092  23.727  0.00  0.00    +0.039 A 
ATOM      7  C3  UNL     1      17.027  -1.582  22.454  0.00  0.00    +0.027 A 
ATOM      8  C4  UNL     1      16.157  -0.651  21.864  0.00  0.00    -0.040 A 
ATOM      9  C5  UNL     1      16.479  -0.117  20.492  0.00  0.00    +0.044 C 
ATOM     10  C6  UNL     1      15.002  -0.243  22.575  0.00  0.00    +0.005 A 
ATOM     11  C7  UNL     1      14.079   0.686  22.052  0.00  0.00    +0.033 A 
ATOM     12  C8  UNL     1      12.956   1.079  22.795  0.00  0.00    +0.034 A 
ATOM     13  C17 UNL     1      12.729   0.506  24.057  0.00  0.00    +0.025 A 
ATOM     14  C18 UNL     1      13.633  -0.415  24.587  0.00  0.00    +0.030 A 
ATOM     15  C19 UNL     1      14.767  -0.789  23.860  0.00  0.00    +0.072 A 
ATOM     16  N3  UNL     1      15.637  -1.688  24.391  0.00  0.00    -0.252 NA
ENDBRANCH   1  12
BRANCH   2  17
ATOM     17  C10 UNL     1      10.910   4.272  21.993  0.00  0.00    +0.071 A 
ATOM     18  C11 UNL     1       9.568   4.173  22.425  0.00  0.00    +0.065 A 
ATOM     19  C12 UNL     1       8.607   4.936  21.774  0.00  0.00    +0.167 A 
ATOM     20  C13 UNL     1       8.921   5.766  20.752  0.00  0.00    +0.168 A 
ATOM     21  C14 UNL     1      10.226   5.918  20.300  0.00  0.00    +0.083 A 
ATOM     22  C15 UNL     1      11.251   5.179  20.936  0.00  0.00    +0.142 A 
ATOM     23  O4  UNL     1       7.776   6.389  20.295  0.00  0.00    -0.453 OA
ATOM     24  C16 UNL     1       6.672   5.917  21.081  0.00  0.00    +0.466 C 
ATOM     25  O5  UNL     1       7.247   4.991  22.013  0.00  0.00    -0.453 OA
BRANCH  22  26
ATOM     26  N2  UNL     1      12.616   5.404  20.539  0.00  0.00    +0.057 N 
ATOM     27  O2  UNL     1      13.291   6.307  21.073  0.00  0.00    -0.126 OA
ATOM     28  O3  UNL     1      13.129   4.754  19.440  0.00  0.00    -0.126 OA
ENDBRANCH  22  26
ENDBRANCH   2  17
TORSDOF 3
ENDMDL
MODEL 8
REMARK VINA RESULT:    -6.295      1.089      2.132
REMARK INTER + INTRA:          -8.165
REMARK INTER:                  -7.616
REMARK INTRA:                  -0.550
REMARK UNBOUND:                -0.767
REMARK  Name = /home/qwerty/github/datacon2025hack/step_04_hit_selection/docking/ligands/lig_593.pdb
REMARK  5 active torsions:
REMARK  status: ('A' for Active; 'I' for Inactive)
REMARK    1  A    between atoms: C1_1  and  C2_2
REMARK    2  A    between atoms: C4_4  and  C5_5
REMARK    3  A    between atoms: C8_8  and  N1_9
REMARK    4  A    between atoms: C9_10  and  C10_12
REMARK    5  A    between atoms: C15_17  and  N2_18
REMARK                            x       y       z     vdW  Elec       q    Type
REMARK                         _______ _______ _______ _____ _____    ______ ____
ROOT
ATOM      1  N1  UNL     1      19.725  10.260  36.093  0.00  0.00    -0.281 N 
ATOM      2  C9  UNL     1      18.426  10.243  35.475  0.00  0.00    +0.251 C 
ATOM      3  O1  UNL     1      18.152   9.397  34.581  0.00  0.00    -0.270 OA
ATOM      4  H9  UNL     1      19.886  10.914  36.891  0.00  0.00    +0.155 HD
ENDROOT
BRANCH   1  12
ATOM      5  C1  UNL     1      25.536   5.756  33.194  0.00  0.00    +0.065 C 
ATOM      6  C2  UNL     1      24.455   6.741  33.506  0.00  0.00    +0.039 A 
ATOM      7  C3  UNL     1      24.097   7.717  32.570  0.00  0.00    +0.027 A 
ATOM      8  C4  UNL     1      23.081   8.639  32.867  0.00  0.00    -0.040 A 
ATOM      9  C5  UNL     1      22.715   9.680  31.841  0.00  0.00    +0.044 C 
ATOM     10  C6  UNL     1      22.428   8.562  34.122  0.00  0.00    +0.005 A 
ATOM     11  C7  UNL     1      21.398   9.449  34.496  0.00  0.00    +0.033 A 
ATOM     12  C8  UNL     1      20.788   9.351  35.755  0.00  0.00    +0.034 A 
ATOM     13  C17 UNL     1      21.182   8.330  36.635  0.00  0.00    +0.025 A 
ATOM     14  C18 UNL     1      22.199   7.445  36.279  0.00  0.00    +0.030 A 
ATOM     15  C19 UNL     1      22.827   7.555  35.034  0.00  0.00    +0.072 A 
ATOM     16  N3  UNL     1      23.815   6.684  34.703  0.00  0.00    -0.252 NA
ENDBRANCH   1  12
BRANCH   2  17
ATOM     17  C10 UNL     1      17.398  11.227  35.871  0.00  0.00    +0.071 A 
ATOM     18  C11 UNL     1      17.504  12.539  35.357  0.00  0.00    +0.065 A 
ATOM     19  C12 UNL     1      16.595  13.495  35.794  0.00  0.00    +0.167 A 
ATOM     20  C13 UNL     1      15.618  13.202  36.684  0.00  0.00    +0.168 A 
ATOM     21  C14 UNL     1      15.454  11.925  37.206  0.00  0.00    +0.083 A 
ATOM     22  C15 UNL     1      16.340  10.906  36.785  0.00  0.00    +0.142 A 
ATOM     23  O4  UNL     1      14.871  14.336  36.938  0.00  0.00    -0.453 OA
ATOM     24  C16 UNL     1      15.417  15.409  36.158  0.00  0.00    +0.466 C 
ATOM     25  O5  UNL     1      16.516  14.829  35.443  0.00  0.00    -0.453 OA
BRANCH  22  26
ATOM     26  N2  UNL     1      16.117   9.560  37.245  0.00  0.00    +0.057 N 
ATOM     27  O2  UNL     1      16.670   9.146  38.285  0.00  0.00    -0.126 OA
ATOM     28  O3  UNL     1      15.448   8.662  36.447  0.00  0.00    -0.126 OA
ENDBRANCH  22  26
ENDBRANCH   2  17
TORSDOF 3
ENDMDL
MODEL 9
REMARK VINA RESULT:    -6.282     10.421     12.808
REMARK INTER + INTRA:          -8.151
REMARK INTER:                  -7.801
REMARK INTRA:                  -0.349
REMARK UNBOUND:                -0.767
REMARK  Name = /home/qwerty/github/datacon2025hack/step_04_hit_selection/docking/ligands/lig_593.pdb
REMARK  5 active torsions:
REMARK  status: ('A' for Active; 'I' for Inactive)
REMARK    1  A    between atoms: C1_1  and  C2_2
REMARK    2  A    between atoms: C4_4  and  C5_5
REMARK    3  A    between atoms: C8_8  and  N1_9
REMARK    4  A    between atoms: C9_10  and  C10_12
REMARK    5  A    between atoms: C15_17  and  N2_18
REMARK                            x       y       z     vdW  Elec       q    Type
REMARK                         _______ _______ _______ _____ _____    ______ ____
ROOT
ATOM      1  N1  UNL     1      20.891   3.489  27.335  0.00  0.00    -0.281 N 
ATOM      2  C9  UNL     1      20.801   2.066  27.525  0.00  0.00    +0.251 C 
ATOM      3  O1  UNL     1      21.030   1.276  26.569  0.00  0.00    -0.270 OA
ATOM      4  H9  UNL     1      20.784   4.108  28.170  0.00  0.00    +0.155 HD
ENDROOT
BRANCH   1  12
ATOM      5  C1  UNL     1      21.843   6.376  20.040  0.00  0.00    +0.065 C 
ATOM      6  C2  UNL     1      21.430   5.729  21.324  0.00  0.00    +0.039 A 
ATOM      7  C3  UNL     1      20.233   5.009  21.399  0.00  0.00    +0.027 A 
ATOM      8  C4  UNL     1      19.850   4.403  22.605  0.00  0.00    -0.040 A 
ATOM      9  C5  UNL     1      18.555   3.633  22.658  0.00  0.00    +0.044 C 
ATOM     10  C6  UNL     1      20.692   4.530  23.737  0.00  0.00    +0.005 A 
ATOM     11  C7  UNL     1      20.380   3.950  24.983  0.00  0.00    +0.033 A 
ATOM     12  C8  UNL     1      21.232   4.114  26.086  0.00  0.00    +0.034 A 
ATOM     13  C17 UNL     1      22.430   4.830  25.931  0.00  0.00    +0.025 A 
ATOM     14  C18 UNL     1      22.753   5.408  24.703  0.00  0.00    +0.030 A 
ATOM     15  C19 UNL     1      21.894   5.268  23.609  0.00  0.00    +0.072 A 
ATOM     16  N3  UNL     1      22.224   5.838  22.421  0.00  0.00    -0.252 NA
ENDBRANCH   1  12
BRANCH   2  17
ATOM     17  C10 UNL     1      20.426   1.509  28.841  0.00  0.00    +0.071 A 
ATOM     18  C11 UNL     1      19.171   1.874  29.381  0.00  0.00    +0.065 A 
ATOM     19  C12 UNL     1      18.847   1.428  30.656  0.00  0.00    +0.167 A 
ATOM     20  C13 UNL     1      19.691   0.659  31.384  0.00  0.00    +0.168 A 
ATOM     21  C14 UNL     1      20.927   0.255  30.895  0.00  0.00    +0.083 A 
ATOM     22  C15 UNL     1      21.305   0.664  29.595  0.00  0.00    +0.142 A 
ATOM     23  O4  UNL     1      19.115   0.373  32.606  0.00  0.00    -0.453 OA
ATOM     24  C16 UNL     1      17.828   1.005  32.648  0.00  0.00    +0.466 C 
ATOM     25  O5  UNL     1      17.697   1.668  31.383  0.00  0.00    -0.453 OA
BRANCH  22  26
ATOM     26  N2  UNL     1      22.539   0.169  29.044  0.00  0.00    +0.057 N 
ATOM     27  O2  UNL     1      22.663  -1.036  28.746  0.00  0.00    -0.126 OA
ATOM     28  O3  UNL     1      23.654   0.976  29.018  0.00  0.00    -0.126 OA
ENDBRANCH  22  26
ENDBRANCH   2  17
TORSDOF 3
ENDMDL
