REMARK  Name = /home/qwerty/github/datacon2025hack/step_04_hit_selection/docking/ligands/lig_770.pdb
REMARK  7 active torsions:
REMARK  status: ('A' for Active; 'I' for Inactive)
REMARK    1  A    between atoms: C1_1  and  C2_2
REMARK    2  A    between atoms: C2_2  and  C3_3
REMARK    3  A    between atoms: C7_7  and  N1_8
REMARK    4  A    between atoms: N2_11  and  C9_12
REMARK    5  A    between atoms: C11_14  and  C12_15
REMARK    6  A    between atoms: N4_17  and  C13_18
REMARK    7  A    between atoms: C16_21  and  C17_22
REMARK                            x       y       z     vdW  Elec       q    Type
REMARK                         _______ _______ _______ _____ _____    ______ ____
ROOT
ATOM      1  N1  UNL     1      -1.946  -1.075  -0.718  0.00  0.00    -0.296 N 
ATOM      2  C8  UNL     1      -0.645  -0.996  -1.317  0.00  0.00    +0.305 C 
ATOM      3  O1  UNL     1      -0.527  -0.751  -2.549  0.00  0.00    -0.252 OA
ATOM      4  N2  UNL     1       0.521  -1.153  -0.498  0.00  0.00    -0.254 N 
ATOM      5  H14 UNL     1      -2.009  -1.332   0.293  0.00  0.00    +0.151 HD
ATOM      6  H15 UNL     1       0.388  -1.245   0.534  0.00  0.00    +0.158 HD
ENDROOT
BRANCH   4   7
ATOM      7  C9  UNL     1       1.857  -1.146  -1.021  0.00  0.00    +0.132 A 
ATOM      8  C10 UNL     1       2.257  -1.731  -2.206  0.00  0.00    +0.068 A 
ATOM      9  C11 UNL     1       3.631  -1.589  -2.195  0.00  0.00    +0.062 A 
ATOM     10  C12 UNL     1       4.560  -2.018  -3.281  0.00  0.00    +0.067 C 
ATOM     11  N3  UNL     1       4.025  -0.943  -1.079  0.00  0.00    -0.168 NA
ATOM     12  N4  UNL     1       2.942  -0.685  -0.360  0.00  0.00    -0.198 N 
BRANCH  12  13
ATOM     13  C13 UNL     1       2.973   0.049   0.878  0.00  0.00    +0.178 A 
ATOM     14  C14 UNL     1       4.166   0.190   1.598  0.00  0.00    +0.052 A 
ATOM     15  C15 UNL     1       4.170   0.926   2.780  0.00  0.00    +0.028 A 
ATOM     16  C16 UNL     1       2.983   1.517   3.219  0.00  0.00    +0.061 A 
ATOM     17  C17 UNL     1       2.951   2.314   4.484  0.00  0.00    +0.067 C 
ATOM     18  N5  UNL     1       1.852   1.363   2.481  0.00  0.00    -0.153 NA
ATOM     19  N6  UNL     1       1.849   0.656   1.349  0.00  0.00    -0.129 NA
ENDBRANCH  12  13
ENDBRANCH   4   7
BRANCH   1  24
ATOM     20  C3  UNL     1      -3.622   0.750  -0.933  0.00  0.00    +0.009 C 
ATOM     21  C4  UNL     1      -4.452   0.484   0.320  0.00  0.00    +0.005 C 
ATOM     22  C5  UNL     1      -5.118  -0.867   0.073  0.00  0.00    +0.002 C 
ATOM     23  C6  UNL     1      -4.331  -1.559  -1.044  0.00  0.00    +0.022 C 
ATOM     24  C7  UNL     1      -3.164  -0.635  -1.407  0.00  0.00    +0.078 C 
BRANCH  20  26
ATOM     25  C1  UNL     1      -1.759   1.897   0.513  0.00  0.00    +0.004 C 
ATOM     26  C2  UNL     1      -2.518   1.836  -0.818  0.00  0.00    +0.002 C 
ENDBRANCH  20  26
ENDBRANCH   1  24
TORSDOF 4
