REMARK  Name = /home/qwerty/github/datacon2025hack/step_04_hit_selection/docking/ligands/lig_111.pdb
REMARK  10 active torsions:
REMARK  status: ('A' for Active; 'I' for Inactive)
REMARK    1  A    between atoms: C1_1  and  O1_2
REMARK    2  A    between atoms: O1_2  and  C2_3
REMARK    3  A    between atoms: C6_7  and  C7_8
REMARK    4  A    between atoms: N1_10  and  C8_11
REMARK    5  A    between atoms: C11_14  and  O3_15
REMARK    6  A    between atoms: O3_15  and  C12_16
REMARK    7  A    between atoms: C13_17  and  N2_18
REMARK    8  A    between atoms: C14_19  and  C15_21
REMARK    9  A    between atoms: C19_25  and  O5_26
REMARK   10  A    between atoms: O5_26  and  C20_27
REMARK                            x       y       z     vdW  Elec       q    Type
REMARK                         _______ _______ _______ _____ _____    ______ ____
ROOT
ATOM      1  C8  UNL     1       1.091  -2.175  -0.832  0.00  0.00    +0.036 A 
ATOM      2  C9  UNL     1       0.854  -3.510  -1.177  0.00  0.00    +0.027 A 
ATOM      3  C10 UNL     1      -0.399  -4.087  -0.963  0.00  0.00    +0.049 A 
ATOM      4  C11 UNL     1      -1.447  -3.331  -0.402  0.00  0.00    +0.141 A 
ATOM      5  C13 UNL     1      -1.220  -1.985  -0.057  0.00  0.00    +0.078 A 
ATOM      6  C22 UNL     1       0.042  -1.410  -0.295  0.00  0.00    +0.050 A 
ENDROOT
BRANCH   1   9
ATOM      7  C7  UNL     1       2.956  -0.543  -0.299  0.00  0.00    +0.248 C 
ATOM      8  O2  UNL     1       2.552  -0.359   0.883  0.00  0.00    -0.270 OA
ATOM      9  N1  UNL     1       2.382  -1.596  -1.091  0.00  0.00    -0.281 N 
ATOM     10  H7  UNL     1       2.980  -2.043  -1.822  0.00  0.00    +0.155 HD
BRANCH   7  15
ATOM     11  C2  UNL     1       5.921   1.837  -0.457  0.00  0.00    +0.121 A 
ATOM     12  C3  UNL     1       6.121   1.918  -1.839  0.00  0.00    +0.045 A 
ATOM     13  C4  UNL     1       5.298   1.209  -2.716  0.00  0.00    +0.004 A 
ATOM     14  C5  UNL     1       4.268   0.407  -2.220  0.00  0.00    +0.013 A 
ATOM     15  C6  UNL     1       4.053   0.300  -0.835  0.00  0.00    +0.040 A 
ATOM     16  C23 UNL     1       4.881   1.027   0.042  0.00  0.00    +0.058 A 
BRANCH  11  18
ATOM     17  C1  UNL     1       6.688   2.585   1.803  0.00  0.00    +0.277 C 
ATOM     18  O1  UNL     1       6.773   2.571   0.381  0.00  0.00    -0.495 OA
ENDBRANCH  11  18
ENDBRANCH   7  15
ENDBRANCH   1   9
BRANCH   5  19
ATOM     19  N2  UNL     1      -2.295  -1.192   0.479  0.00  0.00    -0.279 N 
ATOM     20  C14 UNL     1      -2.100  -0.145   1.445  0.00  0.00    +0.248 C 
ATOM     21  O4  UNL     1      -1.056  -0.135   2.153  0.00  0.00    -0.270 OA
ATOM     22  H13 UNL     1      -3.276  -1.456   0.234  0.00  0.00    +0.155 HD
BRANCH  20  23
ATOM     23  C15 UNL     1      -3.132   0.900   1.654  0.00  0.00    +0.040 A 
ATOM     24  C16 UNL     1      -3.158   1.637   2.851  0.00  0.00    +0.013 A 
ATOM     25  C17 UNL     1      -4.123   2.625   3.054  0.00  0.00    +0.004 A 
ATOM     26  C18 UNL     1      -5.070   2.894   2.064  0.00  0.00    +0.045 A 
ATOM     27  C19 UNL     1      -5.059   2.184   0.859  0.00  0.00    +0.121 A 
ATOM     28  C21 UNL     1      -4.084   1.187   0.656  0.00  0.00    +0.058 A 
BRANCH  27  29
ATOM     29  O5  UNL     1      -6.026   2.499  -0.106  0.00  0.00    -0.495 OA
ATOM     30  C20 UNL     1      -6.138   1.860  -1.374  0.00  0.00    +0.277 C 
ENDBRANCH  27  29
ENDBRANCH  20  23
ENDBRANCH   5  19
BRANCH   4  31
ATOM     31  O3  UNL     1      -2.716  -3.886  -0.170  0.00  0.00    -0.493 OA
ATOM     32  C12 UNL     1      -3.078  -5.231  -0.466  0.00  0.00    +0.277 C 
ENDBRANCH   4  31
TORSDOF 7
