REMARK  Name = /home/qwerty/github/datacon2025hack/step_04_hit_selection/docking/ligands/lig_486.pdb
REMARK  3 active torsions:
REMARK  status: ('A' for Active; 'I' for Inactive)
REMARK    1  A    between atoms: C1_2  and  C2_3
REMARK    2  A    between atoms: N3_20  and  C17_21
REMARK    3  A    between atoms: C17_21  and  C18_22
REMARK                            x       y       z     vdW  Elec       q    Type
REMARK                         _______ _______ _______ _____ _____    ______ ____
ROOT
ATOM      1  O1  UNL     1       1.811  -1.372  -2.639  0.00  0.00    -0.268 OA
ATOM      2  C1  UNL     1       1.624  -1.240  -1.399  0.00  0.00    +0.263 C 
ATOM      3  N2  UNL     1       0.348  -1.586  -0.830  0.00  0.00    -0.292 N 
ATOM      4  C10 UNL     1      -0.351  -2.772  -1.333  0.00  0.00    +0.108 C 
ATOM      5  C11 UNL     1      -1.535  -2.330  -2.185  0.00  0.00    +0.021 C 
ATOM      6  C12 UNL     1      -2.474  -1.466  -1.346  0.00  0.00    +0.022 C 
ATOM      7  C13 UNL     1      -1.764  -0.228  -0.752  0.00  0.00    +0.077 C 
ATOM      8  C14 UNL     1      -0.413  -0.551  -0.103  0.00  0.00    +0.095 C 
ATOM      9  C15 UNL     1      -0.784  -0.942   1.310  0.00  0.00    +0.039 C 
ATOM     10  C16 UNL     1      -1.989  -0.059   1.608  0.00  0.00    +0.086 C 
ATOM     11  N3  UNL     1      -2.622   0.311   0.323  0.00  0.00    -0.297 NA
ENDROOT
BRANCH   2  12
ATOM     12  C2  UNL     1       2.719  -0.722  -0.561  0.00  0.00    +0.103 A 
ATOM     13  C3  UNL     1       2.839  -0.904   0.815  0.00  0.00    +0.040 A 
ATOM     14  C4  UNL     1       4.019  -0.279   1.154  0.00  0.00    +0.000 A 
ATOM     15  C5  UNL     1       4.653  -0.146   2.388  0.00  0.00    +0.010 A 
ATOM     16  C6  UNL     1       5.876   0.549   2.425  0.00  0.00    +0.001 A 
ATOM     17  C7  UNL     1       6.431   1.084   1.241  0.00  0.00    +0.002 A 
ATOM     18  C8  UNL     1       5.769   0.929   0.009  0.00  0.00    +0.026 A 
ATOM     19  C9  UNL     1       4.558   0.238   0.004  0.00  0.00    +0.047 A 
ATOM     20  N1  UNL     1       3.775  -0.032  -1.054  0.00  0.00    -0.351 N 
ATOM     21  H6  UNL     1       3.949   0.238  -2.048  0.00  0.00    +0.166 HD
ENDBRANCH   2  12
BRANCH  11  22
ATOM     22  C17 UNL     1      -2.826   1.770   0.210  0.00  0.00    +0.088 C 
BRANCH  22  23
ATOM     23  C18 UNL     1      -3.799   2.079  -0.939  0.00  0.00    +0.003 C 
ATOM     24  C19 UNL     1      -5.272   1.921  -0.598  0.00  0.00    +0.005 C 
ATOM     25  C20 UNL     1      -4.672   3.311  -0.751  0.00  0.00    +0.005 C 
ENDBRANCH  22  23
ENDBRANCH  11  22
TORSDOF 3
