REMARK  Name = /home/qwerty/github/datacon2025hack/step_04_hit_selection/docking/ligands/lig_506.pdb
REMARK  10 active torsions:
REMARK  status: ('A' for Active; 'I' for Inactive)
REMARK    1  A    between atoms: C1_1  and  C2_2
REMARK    2  A    between atoms: C4_4  and  C5_5
REMARK    3  A    between atoms: N1_7  and  C6_8
REMARK    4  A    between atoms: C6_8  and  C7_9
REMARK    5  A    between atoms: C6_8  and  C8_10
REMARK    6  A    between atoms: C8_10  and  N2_11
REMARK    7  A    between atoms: C9_12  and  C10_14
REMARK    8  A    between atoms: C11_15  and  C12_16
REMARK    9  A    between atoms: C14_20  and  O3_21
REMARK   10  A    between atoms: C15_23  and  C16_24
REMARK                            x       y       z     vdW  Elec       q    Type
REMARK                         _______ _______ _______ _____ _____    ______ ____
ROOT
ATOM      1  C8  UNL     1      -1.091  -1.796  -1.754  0.00  0.00    +0.126 C 
ENDROOT
BRANCH   1   2
ATOM      2  N2  UNL     1      -1.675  -1.105  -0.602  0.00  0.00    -0.309 N 
ATOM      3  C9  UNL     1      -3.024  -0.612  -0.590  0.00  0.00    +0.251 C 
ATOM      4  O2  UNL     1      -3.767  -0.785  -1.594  0.00  0.00    -0.270 OA
ATOM      5  H12 UNL     1      -1.040  -0.863   0.193  0.00  0.00    +0.149 HD
BRANCH   3   6
ATOM      6  C10 UNL     1      -3.549   0.114   0.592  0.00  0.00    +0.119 A 
ATOM      7  C11 UNL     1      -4.281   1.318   0.464  0.00  0.00    +0.057 A 
ATOM      8  C12 UNL     1      -4.559   1.950  -0.870  0.00  0.00    +0.066 C 
ATOM      9  N3  UNL     1      -4.750   1.938   1.580  0.00  0.00    -0.240 NA
ATOM     10  C13 UNL     1      -4.524   1.434   2.819  0.00  0.00    +0.225 A 
ATOM     11  N4  UNL     1      -3.824   0.283   2.967  0.00  0.00    -0.201 NA
ATOM     12  C14 UNL     1      -3.337  -0.388   1.890  0.00  0.00    +0.228 A 
BRANCH  12  13
ATOM     13  O3  UNL     1      -2.652  -1.584   2.086  0.00  0.00    -0.492 OA
ATOM     14  H17 UNL     1      -2.500  -1.950   3.018  0.00  0.00    +0.294 HD
ENDBRANCH  12  13
ENDBRANCH   3   6
ENDBRANCH   1   2
BRANCH   1  15
ATOM     15  C6  UNL     1      -0.166  -0.861  -2.555  0.00  0.00    +0.087 C 
ATOM     16  C7  UNL     1      -0.951   0.293  -3.193  0.00  0.00    +0.029 C 
BRANCH  15  19
ATOM     17  C5  UNL     1       2.011  -1.159  -1.280  0.00  0.00    +0.280 C 
ATOM     18  O1  UNL     1       2.169  -2.307  -1.776  0.00  0.00    -0.267 OA
ATOM     19  N1  UNL     1       0.907  -0.342  -1.698  0.00  0.00    -0.305 N 
ATOM     20  H5  UNL     1       0.885   0.663  -1.414  0.00  0.00    +0.149 HD
BRANCH  17  24
ATOM     21  C1  UNL     1       4.426   1.562   2.224  0.00  0.00    +0.047 C 
ATOM     22  C2  UNL     1       4.027   0.494   1.257  0.00  0.00    -0.009 A 
ATOM     23  C3  UNL     1       2.895   0.483   0.468  0.00  0.00    +0.058 A 
ATOM     24  C4  UNL     1       2.985  -0.676  -0.287  0.00  0.00    +0.190 A 
ATOM     25  O4  UNL     1       4.092  -1.322   0.010  0.00  0.00    -0.455 OA
ATOM     26  C15 UNL     1       4.744  -0.641   0.923  0.00  0.00    +0.106 A 
ATOM     27  C16 UNL     1       6.052  -1.066   1.505  0.00  0.00    +0.086 C 
ENDBRANCH  17  24
ENDBRANCH  15  19
ENDBRANCH   1  15
TORSDOF 6
