MODEL 1
REMARK VINA RESULT:    -5.642      0.000      0.000
REMARK INTER + INTRA:          -7.965
REMARK INTER:                  -7.126
REMARK INTRA:                  -0.839
REMARK UNBOUND:                -0.839
REMARK  Name = /home/qwerty/github/datacon2025hack/step_04_hit_selection/docking/ligands/lig_342.pdb
REMARK  7 active torsions:
REMARK  status: ('A' for Active; 'I' for Inactive)
REMARK    1  A    between atoms: C2_2  and  C3_3
REMARK    2  A    between atoms: C2_2  and  C4_4
REMARK    3  A    between atoms: C4_4  and  N1_5
REMARK    4  A    between atoms: C5_6  and  C6_7
REMARK    5  A    between atoms: N3_10  and  C8_11
REMARK    6  A    between atoms: C8_11  and  C9_12
REMARK    7  A    between atoms: C10_13  and  O1_14
REMARK                            x       y       z     vdW  Elec       q    Type
REMARK                         _______ _______ _______ _____ _____    ______ ____
ROOT
ATOM      1  N1  UNL     1      17.697  10.791  36.129  0.00  0.00    -0.291 N 
ATOM      2  C5  UNL     1      18.030   9.492  35.955  0.00  0.00    +0.172 A 
ATOM      3  N4  UNL     1      16.954   8.750  35.623  0.00  0.00    -0.127 NA
ATOM      4  N5  UNL     1      15.913   9.567  35.571  0.00  0.00    -0.113 NA
ATOM      5  C11 UNL     1      16.373  10.793  35.874  0.00  0.00    +0.220 A 
ATOM      6  N6  UNL     1      15.536  11.951  35.943  0.00  0.00    -0.299 N 
ATOM      7  C12 UNL     1      14.699  12.149  37.128  0.00  0.00    +0.108 C 
ATOM      8  C13 UNL     1      13.365  12.762  36.728  0.00  0.00    +0.023 C 
ATOM      9  C14 UNL     1      13.587  14.127  36.067  0.00  0.00    -0.005 C 
ATOM     10  C15 UNL     1      13.372  14.190  34.561  0.00  0.00    +0.009 C 
ATOM     11  C16 UNL     1      14.789  14.217  35.126  0.00  0.00    +0.010 C 
ATOM     12  C17 UNL     1      15.607  12.936  34.854  0.00  0.00    +0.111 C 
ENDROOT
BRANCH   2  13
ATOM     13  C6  UNL     1      19.377   8.919  36.123  0.00  0.00    +0.100 A 
ATOM     14  C7  UNL     1      20.420   8.923  35.211  0.00  0.00    +0.149 A 
ATOM     15  N2  UNL     1      21.475   8.259  35.729  0.00  0.00    -0.176 NA
ATOM     16  N3  UNL     1      21.128   7.822  36.930  0.00  0.00    -0.233 N 
ATOM     17  C10 UNL     1      19.868   8.208  37.200  0.00  0.00    +0.222 A 
BRANCH  16  18
ATOM     18  C8  UNL     1      22.033   7.115  37.830  0.00  0.00    +0.144 C 
ATOM     19  C9  UNL     1      23.262   6.632  37.069  0.00  0.00    +0.029 C 
ENDBRANCH  16  18
BRANCH  17  20
ATOM     20  O1  UNL     1      19.209   7.940  38.398  0.00  0.00    -0.492 OA
ATOM     21  H14 UNL     1      18.316   8.361  38.618  0.00  0.00    +0.294 HD
ENDBRANCH  17  20
ENDBRANCH   2  13
BRANCH   1  22
ATOM     22  C4  UNL     1      18.509  11.897  36.651  0.00  0.00    +0.156 C 
BRANCH  22  24
ATOM     23  C1  UNL     1      20.776  12.604  35.934  0.00  0.00    +0.009 C 
ATOM     24  C2  UNL     1      19.494  12.382  35.610  0.00  0.00    -0.060 C 
ATOM     25  C3  UNL     1      19.048  12.577  34.185  0.00  0.00    +0.040 C 
ENDBRANCH  22  24
ENDBRANCH   1  22
TORSDOF 5
ENDMDL
MODEL 2
REMARK VINA RESULT:    -5.577      1.991      7.011
REMARK INTER + INTRA:          -7.884
REMARK INTER:                  -6.953
REMARK INTRA:                  -0.930
REMARK UNBOUND:                -0.839
REMARK  Name = /home/qwerty/github/datacon2025hack/step_04_hit_selection/docking/ligands/lig_342.pdb
REMARK  7 active torsions:
REMARK  status: ('A' for Active; 'I' for Inactive)
REMARK    1  A    between atoms: C2_2  and  C3_3
REMARK    2  A    between atoms: C2_2  and  C4_4
REMARK    3  A    between atoms: C4_4  and  N1_5
REMARK    4  A    between atoms: C5_6  and  C6_7
REMARK    5  A    between atoms: N3_10  and  C8_11
REMARK    6  A    between atoms: C8_11  and  C9_12
REMARK    7  A    between atoms: C10_13  and  O1_14
REMARK                            x       y       z     vdW  Elec       q    Type
REMARK                         _______ _______ _______ _____ _____    ______ ____
ROOT
ATOM      1  N1  UNL     1      17.840  10.095  36.129  0.00  0.00    -0.291 N 
ATOM      2  C5  UNL     1      16.858  10.337  37.028  0.00  0.00    +0.172 A 
ATOM      3  N4  UNL     1      16.957   9.519  38.095  0.00  0.00    -0.127 NA
ATOM      4  N5  UNL     1      18.011   8.741  37.900  0.00  0.00    -0.113 NA
ATOM      5  C11 UNL     1      18.536   9.100  36.715  0.00  0.00    +0.220 A 
ATOM      6  N6  UNL     1      19.684   8.468  36.141  0.00  0.00    -0.299 N 
ATOM      7  C12 UNL     1      19.525   7.164  35.494  0.00  0.00    +0.108 C 
ATOM      8  C13 UNL     1      20.746   6.296  35.759  0.00  0.00    +0.023 C 
ATOM      9  C14 UNL     1      22.002   6.963  35.188  0.00  0.00    -0.005 C 
ATOM     10  C15 UNL     1      22.968   7.561  36.201  0.00  0.00    +0.009 C 
ATOM     11  C16 UNL     1      22.083   8.479  35.363  0.00  0.00    +0.010 C 
ATOM     12  C17 UNL     1      20.966   9.188  36.160  0.00  0.00    +0.111 C 
ENDROOT
BRANCH   2  13
ATOM     13  C6  UNL     1      15.789  11.340  36.883  0.00  0.00    +0.100 A 
ATOM     14  C7  UNL     1      14.497  11.142  36.423  0.00  0.00    +0.149 A 
ATOM     15  N2  UNL     1      13.840  12.321  36.402  0.00  0.00    -0.176 NA
ATOM     16  N3  UNL     1      14.678  13.259  36.817  0.00  0.00    -0.233 N 
ATOM     17  C10 UNL     1      15.862  12.699  37.120  0.00  0.00    +0.222 A 
BRANCH  16  18
ATOM     18  C8  UNL     1      14.306  14.659  36.995  0.00  0.00    +0.144 C 
ATOM     19  C9  UNL     1      13.983  15.294  35.648  0.00  0.00    +0.029 C 
ENDBRANCH  16  18
BRANCH  17  20
ATOM     20  O1  UNL     1      16.955  13.404  37.621  0.00  0.00    -0.492 OA
ATOM     21  H14 UNL     1      17.374  13.171  38.512  0.00  0.00    +0.294 HD
ENDBRANCH  17  20
ENDBRANCH   2  13
BRANCH   1  22
ATOM     22  C4  UNL     1      18.010  10.628  34.772  0.00  0.00    +0.156 C 
BRANCH  22  24
ATOM     23  C1  UNL     1      17.982  13.012  34.092  0.00  0.00    +0.009 C 
ATOM     24  C2  UNL     1      18.557  12.038  34.811  0.00  0.00    -0.060 C 
ATOM     25  C3  UNL     1      19.729  12.367  35.696  0.00  0.00    +0.040 C 
ENDBRANCH  22  24
ENDBRANCH   1  22
TORSDOF 5
ENDMDL
MODEL 3
REMARK VINA RESULT:    -5.565      2.246      7.331
REMARK INTER + INTRA:          -7.868
REMARK INTER:                  -7.004
REMARK INTRA:                  -0.864
REMARK UNBOUND:                -0.839
REMARK  Name = /home/qwerty/github/datacon2025hack/step_04_hit_selection/docking/ligands/lig_342.pdb
REMARK  7 active torsions:
REMARK  status: ('A' for Active; 'I' for Inactive)
REMARK    1  A    between atoms: C2_2  and  C3_3
REMARK    2  A    between atoms: C2_2  and  C4_4
REMARK    3  A    between atoms: C4_4  and  N1_5
REMARK    4  A    between atoms: C5_6  and  C6_7
REMARK    5  A    between atoms: N3_10  and  C8_11
REMARK    6  A    between atoms: C8_11  and  C9_12
REMARK    7  A    between atoms: C10_13  and  O1_14
REMARK                            x       y       z     vdW  Elec       q    Type
REMARK                         _______ _______ _______ _____ _____    ______ ____
ROOT
ATOM      1  N1  UNL     1      17.995  10.768  35.539  0.00  0.00    -0.291 N 
ATOM      2  C5  UNL     1      17.957  12.120  35.551  0.00  0.00    +0.172 A 
ATOM      3  N4  UNL     1      19.178  12.643  35.783  0.00  0.00    -0.127 NA
ATOM      4  N5  UNL     1      20.022  11.631  35.917  0.00  0.00    -0.113 NA
ATOM      5  C11 UNL     1      19.299  10.507  35.764  0.00  0.00    +0.220 A 
ATOM      6  N6  UNL     1      19.858   9.194  35.863  0.00  0.00    -0.299 N 
ATOM      7  C12 UNL     1      20.137   8.642  37.190  0.00  0.00    +0.108 C 
ATOM      8  C13 UNL     1      21.412   7.812  37.152  0.00  0.00    +0.023 C 
ATOM      9  C14 UNL     1      21.254   6.644  36.173  0.00  0.00    -0.005 C 
ATOM     10  C15 UNL     1      22.017   6.757  34.860  0.00  0.00    +0.009 C 
ATOM     11  C16 UNL     1      20.505   6.965  34.878  0.00  0.00    +0.010 C 
ATOM     12  C17 UNL     1      20.060   8.422  34.628  0.00  0.00    +0.111 C 
ENDROOT
BRANCH   2  13
ATOM     13  C6  UNL     1      16.753  12.948  35.363  0.00  0.00    +0.100 A 
ATOM     14  C7  UNL     1      15.991  13.088  34.215  0.00  0.00    +0.149 A 
ATOM     15  N2  UNL     1      14.995  13.971  34.439  0.00  0.00    -0.176 NA
ATOM     16  N3  UNL     1      15.112  14.405  35.685  0.00  0.00    -0.233 N 
ATOM     17  C10 UNL     1      16.162  13.803  36.272  0.00  0.00    +0.222 A 
BRANCH  16  18
ATOM     18  C8  UNL     1      14.171  15.324  36.317  0.00  0.00    +0.144 C 
ATOM     19  C9  UNL     1      14.787  16.714  36.431  0.00  0.00    +0.029 C 
ENDBRANCH  16  18
BRANCH  17  20
ATOM     20  O1  UNL     1      16.542  14.011  37.596  0.00  0.00    -0.492 OA
ATOM     21  H14 UNL     1      15.858  14.163  38.327  0.00  0.00    +0.294 HD
ENDBRANCH  17  20
ENDBRANCH   2  13
BRANCH   1  22
ATOM     22  C4  UNL     1      16.886   9.807  35.491  0.00  0.00    +0.156 C 
BRANCH  22  24
ATOM     23  C1  UNL     1      16.572   9.538  37.936  0.00  0.00    +0.009 C 
ATOM     24  C2  UNL     1      16.051   9.882  36.749  0.00  0.00    -0.060 C 
ATOM     25  C3  UNL     1      14.635  10.390  36.685  0.00  0.00    +0.040 C 
ENDBRANCH  22  24
ENDBRANCH   1  22
TORSDOF 5
ENDMDL
MODEL 4
REMARK VINA RESULT:    -5.397     12.993     15.755
REMARK INTER + INTRA:          -7.656
REMARK INTER:                  -6.722
REMARK INTRA:                  -0.934
REMARK UNBOUND:                -0.839
REMARK  Name = /home/qwerty/github/datacon2025hack/step_04_hit_selection/docking/ligands/lig_342.pdb
REMARK  7 active torsions:
REMARK  status: ('A' for Active; 'I' for Inactive)
REMARK    1  A    between atoms: C2_2  and  C3_3
REMARK    2  A    between atoms: C2_2  and  C4_4
REMARK    3  A    between atoms: C4_4  and  N1_5
REMARK    4  A    between atoms: C5_6  and  C6_7
REMARK    5  A    between atoms: N3_10  and  C8_11
REMARK    6  A    between atoms: C8_11  and  C9_12
REMARK    7  A    between atoms: C10_13  and  O1_14
REMARK                            x       y       z     vdW  Elec       q    Type
REMARK                         _______ _______ _______ _____ _____    ______ ____
ROOT
ATOM      1  N1  UNL     1      10.180   9.220  24.211  0.00  0.00    -0.291 N 
ATOM      2  C5  UNL     1      10.037   9.290  25.554  0.00  0.00    +0.172 A 
ATOM      3  N4  UNL     1       9.954   8.062  26.104  0.00  0.00    -0.127 NA
ATOM      4  N5  UNL     1      10.052   7.182  25.119  0.00  0.00    -0.113 NA
ATOM      5  C11 UNL     1      10.191   7.891  23.985  0.00  0.00    +0.220 A 
ATOM      6  N6  UNL     1      10.306   7.289  22.692  0.00  0.00    -0.299 N 
ATOM      7  C12 UNL     1       9.097   6.785  22.037  0.00  0.00    +0.108 C 
ATOM      8  C13 UNL     1       9.414   5.511  21.267  0.00  0.00    +0.023 C 
ATOM      9  C14 UNL     1      10.461   5.796  20.184  0.00  0.00    -0.005 C 
ATOM     10  C15 UNL     1      11.862   5.259  20.442  0.00  0.00    +0.009 C 
ATOM     11  C16 UNL     1      11.584   6.753  20.586  0.00  0.00    +0.010 C 
ATOM     12  C17 UNL     1      11.623   7.270  22.041  0.00  0.00    +0.111 C 
ENDROOT
BRANCH   2  13
ATOM     13  C6  UNL     1       9.952  10.530  26.346  0.00  0.00    +0.100 A 
ATOM     14  C7  UNL     1      10.980  11.402  26.669  0.00  0.00    +0.149 A 
ATOM     15  N2  UNL     1      10.500  12.397  27.445  0.00  0.00    -0.176 NA
ATOM     16  N3  UNL     1       9.209  12.174  27.637  0.00  0.00    -0.233 N 
ATOM     17  C10 UNL     1       8.846  11.057  26.982  0.00  0.00    +0.222 A 
BRANCH  16  18
ATOM     18  C8  UNL     1       8.329  13.077  28.372  0.00  0.00    +0.144 C 
ATOM     19  C9  UNL     1       7.745  14.124  27.431  0.00  0.00    +0.029 C 
ENDBRANCH  16  18
BRANCH  17  20
ATOM     20  O1  UNL     1       7.544  10.559  26.949  0.00  0.00    -0.492 OA
ATOM     21  H14 UNL     1       7.293   9.697  27.416  0.00  0.00    +0.294 HD
ENDBRANCH  17  20
ENDBRANCH   2  13
BRANCH   1  22
ATOM     22  C4  UNL     1      10.141  10.297  23.214  0.00  0.00    +0.156 C 
BRANCH  22  24
ATOM     23  C1  UNL     1       8.686  10.380  21.208  0.00  0.00    +0.009 C 
ATOM     24  C2  UNL     1       8.786  10.363  22.545  0.00  0.00    -0.060 C 
ATOM     25  C3  UNL     1       7.533  10.365  23.379  0.00  0.00    +0.040 C 
ENDBRANCH  22  24
ENDBRANCH   1  22
TORSDOF 5
ENDMDL
MODEL 5
REMARK VINA RESULT:    -5.238     11.839     13.939
REMARK INTER + INTRA:          -7.454
REMARK INTER:                  -6.574
REMARK INTRA:                  -0.880
REMARK UNBOUND:                -0.839
REMARK  Name = /home/qwerty/github/datacon2025hack/step_04_hit_selection/docking/ligands/lig_342.pdb
REMARK  7 active torsions:
REMARK  status: ('A' for Active; 'I' for Inactive)
REMARK    1  A    between atoms: C2_2  and  C3_3
REMARK    2  A    between atoms: C2_2  and  C4_4
REMARK    3  A    between atoms: C4_4  and  N1_5
REMARK    4  A    between atoms: C5_6  and  C6_7
REMARK    5  A    between atoms: N3_10  and  C8_11
REMARK    6  A    between atoms: C8_11  and  C9_12
REMARK    7  A    between atoms: C10_13  and  O1_14
REMARK                            x       y       z     vdW  Elec       q    Type
REMARK                         _______ _______ _______ _____ _____    ______ ____
ROOT
ATOM      1  N1  UNL     1      21.231  15.179  24.326  0.00  0.00    -0.291 N 
ATOM      2  C5  UNL     1      20.725  16.095  25.182  0.00  0.00    +0.172 A 
ATOM      3  N4  UNL     1      19.934  16.980  24.541  0.00  0.00    -0.127 NA
ATOM      4  N5  UNL     1      19.916  16.638  23.262  0.00  0.00    -0.113 NA
ATOM      5  C11 UNL     1      20.697  15.550  23.146  0.00  0.00    +0.220 A 
ATOM      6  N6  UNL     1      20.947  14.893  21.900  0.00  0.00    -0.299 N 
ATOM      7  C12 UNL     1      21.909  15.485  20.968  0.00  0.00    +0.108 C 
ATOM      8  C13 UNL     1      21.438  15.286  19.535  0.00  0.00    +0.023 C 
ATOM      9  C14 UNL     1      21.326  13.790  19.219  0.00  0.00    -0.005 C 
ATOM     10  C15 UNL     1      19.915  13.228  19.112  0.00  0.00    +0.009 C 
ATOM     11  C16 UNL     1      20.764  12.919  20.342  0.00  0.00    +0.010 C 
ATOM     12  C17 UNL     1      20.283  13.608  21.638  0.00  0.00    +0.111 C 
ENDROOT
BRANCH   2  13
ATOM     13  C6  UNL     1      20.998  16.165  26.628  0.00  0.00    +0.100 A 
ATOM     14  C7  UNL     1      21.754  17.111  27.304  0.00  0.00    +0.149 A 
ATOM     15  N2  UNL     1      21.797  16.799  28.617  0.00  0.00    -0.176 NA
ATOM     16  N3  UNL     1      21.109  15.680  28.790  0.00  0.00    -0.233 N 
ATOM     17  C10 UNL     1      20.610  15.275  27.609  0.00  0.00    +0.222 A 
BRANCH  16  18
ATOM     18  C8  UNL     1      20.872  15.066  30.092  0.00  0.00    +0.144 C 
ATOM     19  C9  UNL     1      21.766  15.706  31.147  0.00  0.00    +0.029 C 
ENDBRANCH  16  18
BRANCH  17  20
ATOM     20  O1  UNL     1      19.807  14.147  27.446  0.00  0.00    -0.492 OA
ATOM     21  H14 UNL     1      20.167  13.292  27.042  0.00  0.00    +0.294 HD
ENDBRANCH  17  20
ENDBRANCH   2  13
BRANCH   1  22
ATOM     22  C4  UNL     1      22.254  14.152  24.562  0.00  0.00    +0.156 C 
BRANCH  22  24
ATOM     23  C1  UNL     1      24.325  13.903  23.220  0.00  0.00    +0.009 C 
ATOM     24  C2  UNL     1      23.613  14.627  24.095  0.00  0.00    -0.060 C 
ATOM     25  C3  UNL     1      24.157  15.945  24.578  0.00  0.00    +0.040 C 
ENDBRANCH  22  24
ENDBRANCH   1  22
TORSDOF 5
ENDMDL
MODEL 6
REMARK VINA RESULT:    -5.209     16.445     17.376
REMARK INTER + INTRA:          -7.419
REMARK INTER:                  -6.542
REMARK INTRA:                  -0.877
REMARK UNBOUND:                -0.839
REMARK  Name = /home/qwerty/github/datacon2025hack/step_04_hit_selection/docking/ligands/lig_342.pdb
REMARK  7 active torsions:
REMARK  status: ('A' for Active; 'I' for Inactive)
REMARK    1  A    between atoms: C2_2  and  C3_3
REMARK    2  A    between atoms: C2_2  and  C4_4
REMARK    3  A    between atoms: C4_4  and  N1_5
REMARK    4  A    between atoms: C5_6  and  C6_7
REMARK    5  A    between atoms: N3_10  and  C8_11
REMARK    6  A    between atoms: C8_11  and  C9_12
REMARK    7  A    between atoms: C10_13  and  O1_14
REMARK                            x       y       z     vdW  Elec       q    Type
REMARK                         _______ _______ _______ _____ _____    ______ ____
ROOT
ATOM      1  N1  UNL     1      12.324   3.483  21.943  0.00  0.00    -0.291 N 
ATOM      2  C5  UNL     1      13.346   3.097  21.146  0.00  0.00    +0.172 A 
ATOM      3  N4  UNL     1      13.242   3.641  19.917  0.00  0.00    -0.127 NA
ATOM      4  N5  UNL     1      12.152   4.392  19.909  0.00  0.00    -0.113 NA
ATOM      5  C11 UNL     1      11.609   4.292  21.136  0.00  0.00    +0.220 A 
ATOM      6  N6  UNL     1      10.397   4.951  21.514  0.00  0.00    -0.299 N 
ATOM      7  C12 UNL     1       9.119   4.384  21.079  0.00  0.00    +0.108 C 
ATOM      8  C13 UNL     1       8.138   5.501  20.749  0.00  0.00    +0.023 C 
ATOM      9  C14 UNL     1       7.881   6.361  21.991  0.00  0.00    -0.005 C 
ATOM     10  C15 UNL     1       8.512   7.748  21.993  0.00  0.00    +0.009 C 
ATOM     11  C16 UNL     1       9.105   6.644  22.864  0.00  0.00    +0.010 C 
ATOM     12  C17 UNL     1      10.481   6.129  22.389  0.00  0.00    +0.111 C 
ENDROOT
BRANCH   2  13
ATOM     13  C6  UNL     1      14.437   2.182  21.529  0.00  0.00    +0.100 A 
ATOM     14  C7  UNL     1      15.327   2.318  22.582  0.00  0.00    +0.149 A 
ATOM     15  N2  UNL     1      16.201   1.289  22.568  0.00  0.00    -0.176 NA
ATOM     16  N3  UNL     1      15.904   0.519  21.533  0.00  0.00    -0.233 N 
ATOM     17  C10 UNL     1      14.840   1.028  20.887  0.00  0.00    +0.222 A 
BRANCH  16  18
ATOM     18  C8  UNL     1      16.589  -0.733  21.229  0.00  0.00    +0.144 C 
ATOM     19  C9  UNL     1      16.885  -1.497  22.513  0.00  0.00    +0.029 C 
ENDBRANCH  16  18
BRANCH  17  20
ATOM     20  O1  UNL     1      14.248   0.440  19.771  0.00  0.00    -0.492 OA
ATOM     21  H14 UNL     1      13.775   0.992  19.067  0.00  0.00    +0.294 HD
ENDBRANCH  17  20
ENDBRANCH   2  13
BRANCH   1  22
ATOM     22  C4  UNL     1      11.957   3.005  23.282  0.00  0.00    +0.156 C 
BRANCH  22  24
ATOM     23  C1  UNL     1      12.200   0.618  23.910  0.00  0.00    +0.009 C 
ATOM     24  C2  UNL     1      11.519   1.557  23.238  0.00  0.00    -0.060 C 
ATOM     25  C3  UNL     1      10.284   1.167  22.472  0.00  0.00    +0.040 C 
ENDBRANCH  22  24
ENDBRANCH   1  22
TORSDOF 5
ENDMDL
MODEL 7
REMARK VINA RESULT:    -5.166     15.859     16.929
REMARK INTER + INTRA:          -7.365
REMARK INTER:                  -6.439
REMARK INTRA:                  -0.925
REMARK UNBOUND:                -0.839
REMARK  Name = /home/qwerty/github/datacon2025hack/step_04_hit_selection/docking/ligands/lig_342.pdb
REMARK  7 active torsions:
REMARK  status: ('A' for Active; 'I' for Inactive)
REMARK    1  A    between atoms: C2_2  and  C3_3
REMARK    2  A    between atoms: C2_2  and  C4_4
REMARK    3  A    between atoms: C4_4  and  N1_5
REMARK    4  A    between atoms: C5_6  and  C6_7
REMARK    5  A    between atoms: N3_10  and  C8_11
REMARK    6  A    between atoms: C8_11  and  C9_12
REMARK    7  A    between atoms: C10_13  and  O1_14
REMARK                            x       y       z     vdW  Elec       q    Type
REMARK                         _______ _______ _______ _____ _____    ______ ____
ROOT
ATOM      1  N1  UNL     1      11.184   5.578  21.559  0.00  0.00    -0.291 N 
ATOM      2  C5  UNL     1      10.966   4.324  21.103  0.00  0.00    +0.172 A 
ATOM      3  N4  UNL     1       9.689   4.162  20.704  0.00  0.00    -0.127 NA
ATOM      4  N5  UNL     1       9.068   5.317  20.891  0.00  0.00    -0.113 NA
ATOM      5  C11 UNL     1       9.979   6.163  21.403  0.00  0.00    +0.220 A 
ATOM      6  N6  UNL     1       9.681   7.514  21.763  0.00  0.00    -0.299 N 
ATOM      7  C12 UNL     1       8.973   7.772  23.020  0.00  0.00    +0.108 C 
ATOM      8  C13 UNL     1       8.008   8.935  22.846  0.00  0.00    +0.023 C 
ATOM      9  C14 UNL     1       8.775  10.205  22.461  0.00  0.00    -0.005 C 
ATOM     10  C15 UNL     1       8.631  10.669  21.018  0.00  0.00    +0.009 C 
ATOM     11  C16 UNL     1       9.928  10.007  21.476  0.00  0.00    +0.010 C 
ATOM     12  C17 UNL     1      10.163   8.596  20.893  0.00  0.00    +0.111 C 
ENDROOT
BRANCH   2  13
ATOM     13  C6  UNL     1      11.964   3.240  21.057  0.00  0.00    +0.100 A 
ATOM     14  C7  UNL     1      12.073   2.151  21.906  0.00  0.00    +0.149 A 
ATOM     15  N2  UNL     1      13.146   1.411  21.555  0.00  0.00    -0.176 NA
ATOM     16  N3  UNL     1      13.728   2.005  20.524  0.00  0.00    -0.233 N 
ATOM     17  C10 UNL     1      13.036   3.111  20.196  0.00  0.00    +0.222 A 
BRANCH  16  18
ATOM     18  C8  UNL     1      14.885   1.462  19.820  0.00  0.00    +0.144 C 
ATOM     19  C9  UNL     1      16.160   2.147  20.295  0.00  0.00    +0.029 C 
ENDBRANCH  16  18
BRANCH  17  20
ATOM     20  O1  UNL     1      13.361   3.948  19.131  0.00  0.00    -0.492 OA
ATOM     21  H14 UNL     1      14.317   4.066  18.820  0.00  0.00    +0.294 HD
ENDBRANCH  17  20
ENDBRANCH   2  13
BRANCH   1  22
ATOM     22  C4  UNL     1      12.365   6.130  22.236  0.00  0.00    +0.156 C 
BRANCH  22  24
ATOM     23  C1  UNL     1      13.717   4.878  23.895  0.00  0.00    +0.009 C 
ATOM     24  C2  UNL     1      12.562   5.485  23.590  0.00  0.00    -0.060 C 
ATOM     25  C3  UNL     1      11.473   5.560  24.626  0.00  0.00    +0.040 C 
ENDBRANCH  22  24
ENDBRANCH   1  22
TORSDOF 5
ENDMDL
MODEL 8
REMARK VINA RESULT:    -5.150     14.561     15.992
REMARK INTER + INTRA:          -7.344
REMARK INTER:                  -6.513
REMARK INTRA:                  -0.830
REMARK UNBOUND:                -0.839
REMARK  Name = /home/qwerty/github/datacon2025hack/step_04_hit_selection/docking/ligands/lig_342.pdb
REMARK  7 active torsions:
REMARK  status: ('A' for Active; 'I' for Inactive)
REMARK    1  A    between atoms: C2_2  and  C3_3
REMARK    2  A    between atoms: C2_2  and  C4_4
REMARK    3  A    between atoms: C4_4  and  N1_5
REMARK    4  A    between atoms: C5_6  and  C6_7
REMARK    5  A    between atoms: N3_10  and  C8_11
REMARK    6  A    between atoms: C8_11  and  C9_12
REMARK    7  A    between atoms: C10_13  and  O1_14
REMARK                            x       y       z     vdW  Elec       q    Type
REMARK                         _______ _______ _______ _____ _____    ______ ____
ROOT
ATOM      1  N1  UNL     1       7.341   0.710  32.386  0.00  0.00    -0.291 N 
ATOM      2  C5  UNL     1       6.780   1.064  33.565  0.00  0.00    +0.172 A 
ATOM      3  N4  UNL     1       5.638   1.755  33.377  0.00  0.00    -0.127 NA
ATOM      4  N5  UNL     1       5.443   1.848  32.070  0.00  0.00    -0.113 NA
ATOM      5  C11 UNL     1       6.473   1.212  31.484  0.00  0.00    +0.220 A 
ATOM      6  N6  UNL     1       6.631   1.115  30.066  0.00  0.00    -0.299 N 
ATOM      7  C12 UNL     1       7.137   2.275  29.330  0.00  0.00    +0.108 C 
ATOM      8  C13 UNL     1       6.446   2.378  27.977  0.00  0.00    +0.023 C 
ATOM      9  C14 UNL     1       6.728   1.123  27.144  0.00  0.00    -0.005 C 
ATOM     10  C15 UNL     1       5.567   0.151  26.976  0.00  0.00    +0.009 C 
ATOM     11  C16 UNL     1       6.719  -0.197  27.915  0.00  0.00    +0.010 C 
ATOM     12  C17 UNL     1       6.348  -0.171  29.414  0.00  0.00    +0.111 C 
ENDROOT
BRANCH   2  13
ATOM     13  C6  UNL     1       7.331   0.772  34.900  0.00  0.00    +0.100 A 
ATOM     14  C7  UNL     1       8.381   1.409  35.542  0.00  0.00    +0.149 A 
ATOM     15  N2  UNL     1       8.605   0.818  36.735  0.00  0.00    -0.176 NA
ATOM     16  N3  UNL     1       7.744  -0.181  36.860  0.00  0.00    -0.233 N 
ATOM     17  C10 UNL     1       6.957  -0.232  35.771  0.00  0.00    +0.222 A 
BRANCH  16  18
ATOM     18  C8  UNL     1       7.634  -1.013  38.053  0.00  0.00    +0.144 C 
ATOM     19  C9  UNL     1       8.952  -1.729  38.320  0.00  0.00    +0.029 C 
ENDBRANCH  16  18
BRANCH  17  20
ATOM     20  O1  UNL     1       5.919  -1.146  35.599  0.00  0.00    -0.492 OA
ATOM     21  H14 UNL     1       5.910  -2.036  36.082  0.00  0.00    +0.294 HD
ENDBRANCH  17  20
ENDBRANCH   2  13
BRANCH   1  22
ATOM     22  C4  UNL     1       8.653   0.107  32.124  0.00  0.00    +0.156 C 
BRANCH  22  24
ATOM     23  C1  UNL     1       7.619  -2.115  32.502  0.00  0.00    +0.009 C 
ATOM     24  C2  UNL     1       8.520  -1.374  31.843  0.00  0.00    -0.060 C 
ATOM     25  C3  UNL     1       9.373  -2.019  30.784  0.00  0.00    +0.040 C 
ENDBRANCH  22  24
ENDBRANCH   1  22
TORSDOF 5
ENDMDL
MODEL 9
REMARK VINA RESULT:    -5.146     12.140     14.385
REMARK INTER + INTRA:          -7.339
REMARK INTER:                  -6.465
REMARK INTRA:                  -0.874
REMARK UNBOUND:                -0.839
REMARK  Name = /home/qwerty/github/datacon2025hack/step_04_hit_selection/docking/ligands/lig_342.pdb
REMARK  7 active torsions:
REMARK  status: ('A' for Active; 'I' for Inactive)
REMARK    1  A    between atoms: C2_2  and  C3_3
REMARK    2  A    between atoms: C2_2  and  C4_4
REMARK    3  A    between atoms: C4_4  and  N1_5
REMARK    4  A    between atoms: C5_6  and  C6_7
REMARK    5  A    between atoms: N3_10  and  C8_11
REMARK    6  A    between atoms: C8_11  and  C9_12
REMARK    7  A    between atoms: C10_13  and  O1_14
REMARK                            x       y       z     vdW  Elec       q    Type
REMARK                         _______ _______ _______ _____ _____    ______ ____
ROOT
ATOM      1  N1  UNL     1      22.319  15.209  24.054  0.00  0.00    -0.291 N 
ATOM      2  C5  UNL     1      23.078  15.413  25.154  0.00  0.00    +0.172 A 
ATOM      3  N4  UNL     1      24.388  15.473  24.843  0.00  0.00    -0.127 NA
ATOM      4  N5  UNL     1      24.490  15.316  23.532  0.00  0.00    -0.113 NA
ATOM      5  C11 UNL     1      23.237  15.162  23.067  0.00  0.00    +0.220 A 
ATOM      6  N6  UNL     1      22.933  14.943  21.687  0.00  0.00    -0.299 N 
ATOM      7  C12 UNL     1      23.134  13.607  21.121  0.00  0.00    +0.108 C 
ATOM      8  C13 UNL     1      23.639  13.717  19.690  0.00  0.00    +0.023 C 
ATOM      9  C14 UNL     1      22.612  14.452  18.823  0.00  0.00    -0.005 C 
ATOM     10  C15 UNL     1      22.972  15.873  18.409  0.00  0.00    +0.009 C 
ATOM     11  C16 UNL     1      21.917  15.641  19.487  0.00  0.00    +0.010 C 
ATOM     12  C17 UNL     1      22.359  16.050  20.909  0.00  0.00    +0.111 C 
ENDROOT
BRANCH   2  13
ATOM     13  C6  UNL     1      22.576  15.534  26.535  0.00  0.00    +0.100 A 
ATOM     14  C7  UNL     1      21.863  16.585  27.089  0.00  0.00    +0.149 A 
ATOM     15  N2  UNL     1      21.626  16.331  28.394  0.00  0.00    -0.176 NA
ATOM     16  N3  UNL     1      22.181  15.164  28.686  0.00  0.00    -0.233 N 
ATOM     17  C10 UNL     1      22.758  14.654  27.583  0.00  0.00    +0.222 A 
BRANCH  16  18
ATOM     18  C8  UNL     1      22.076  14.519  29.991  0.00  0.00    +0.144 C 
ATOM     19  C9  UNL     1      21.791  15.557  31.070  0.00  0.00    +0.029 C 
ENDBRANCH  16  18
BRANCH  17  20
ATOM     20  O1  UNL     1      23.400  13.418  27.538  0.00  0.00    -0.492 OA
ATOM     21  H14 UNL     1      24.367  13.333  27.251  0.00  0.00    +0.294 HD
ENDBRANCH  17  20
ENDBRANCH   2  13
BRANCH   1  22
ATOM     22  C4  UNL     1      20.884  14.917  23.955  0.00  0.00    +0.156 C 
BRANCH  22  24
ATOM     23  C1  UNL     1      20.900  12.631  24.916  0.00  0.00    +0.009 C 
ATOM     24  C2  UNL     1      20.640  13.427  23.869  0.00  0.00    -0.060 C 
ATOM     25  C3  UNL     1      20.059  12.830  22.615  0.00  0.00    +0.040 C 
ENDBRANCH  22  24
ENDBRANCH   1  22
TORSDOF 5
ENDMDL
