MODEL 1
REMARK VINA RESULT:    -5.276      0.000      0.000
REMARK INTER + INTRA:          -6.284
REMARK INTER:                  -5.893
REMARK INTRA:                  -0.391
REMARK UNBOUND:                -0.391
REMARK  Name = /home/qwerty/github/datacon2025hack/step_04_hit_selection/docking/ligands/lig_807.pdb
REMARK  4 active torsions:
REMARK  status: ('A' for Active; 'I' for Inactive)
REMARK    1  A    between atoms: C1_1  and  C2_2
REMARK    2  A    between atoms: C2_2  and  C3_3
REMARK    3  A    between atoms: C2_2  and  N1_4
REMARK    4  A    between atoms: N3_11  and  C8_12
REMARK                            x       y       z     vdW  Elec       q    Type
REMARK                         _______ _______ _______ _____ _____    ______ ____
ROOT
ATOM      1  N1  UNL     1      22.010   1.057  29.646  0.00  0.00    -0.268 N 
ATOM      2  C4  UNL     1      20.670   0.843  29.661  0.00  0.00    +0.114 A 
ATOM      3  C5  UNL     1      20.142   1.600  30.683  0.00  0.00    +0.020 A 
ATOM      4  C6  UNL     1      21.208   2.205  31.261  0.00  0.00    +0.152 A 
ATOM      5  N2  UNL     1      22.355   1.830  30.671  0.00  0.00    -0.166 NA
ATOM      6  C7  UNL     1      20.933   2.323  32.668  0.00  0.00    +0.268 C 
ATOM      7  O1  UNL     1      21.734   2.749  33.541  0.00  0.00    -0.268 OA
ATOM      8  N3  UNL     1      19.626   1.804  32.936  0.00  0.00    -0.289 N 
ATOM      9  C14 UNL     1      19.065   1.286  31.679  0.00  0.00    +0.147 C 
ENDROOT
BRANCH   8  10
ATOM     10  C8  UNL     1      18.961   1.702  34.240  0.00  0.00    +0.077 C 
ATOM     11  C9  UNL     1      18.570   3.093  34.767  0.00  0.00    +0.022 C 
ATOM     12  C10 UNL     1      17.989   3.012  36.194  0.00  0.00    +0.002 C 
ATOM     13  C11 UNL     1      17.250   1.688  36.483  0.00  0.00    +0.000 C 
ATOM     14  C12 UNL     1      16.653   1.079  35.211  0.00  0.00    +0.002 C 
ATOM     15  C13 UNL     1      17.741   0.751  34.167  0.00  0.00    +0.022 C 
ENDBRANCH   8  10
BRANCH   1  17
ATOM     16  C1  UNL     1      22.728  -1.151  28.812  0.00  0.00    +0.032 C 
ATOM     17  C2  UNL     1      22.990   0.359  28.810  0.00  0.00    +0.101 C 
ATOM     18  C3  UNL     1      24.412   0.675  29.278  0.00  0.00    +0.032 C 
ENDBRANCH   1  17
TORSDOF 2
ENDMDL
MODEL 2
REMARK VINA RESULT:    -5.271      5.692      8.795
REMARK INTER + INTRA:          -6.278
REMARK INTER:                  -5.889
REMARK INTRA:                  -0.390
REMARK UNBOUND:                -0.391
REMARK  Name = /home/qwerty/github/datacon2025hack/step_04_hit_selection/docking/ligands/lig_807.pdb
REMARK  4 active torsions:
REMARK  status: ('A' for Active; 'I' for Inactive)
REMARK    1  A    between atoms: C1_1  and  C2_2
REMARK    2  A    between atoms: C2_2  and  C3_3
REMARK    3  A    between atoms: C2_2  and  N1_4
REMARK    4  A    between atoms: N3_11  and  C8_12
REMARK                            x       y       z     vdW  Elec       q    Type
REMARK                         _______ _______ _______ _____ _____    ______ ____
ROOT
ATOM      1  N1  UNL     1      22.117   1.154  28.378  0.00  0.00    -0.268 N 
ATOM      2  C4  UNL     1      22.188   2.507  28.298  0.00  0.00    +0.114 A 
ATOM      3  C5  UNL     1      21.334   2.907  27.294  0.00  0.00    +0.020 A 
ATOM      4  C6  UNL     1      20.819   1.758  26.790  0.00  0.00    +0.152 A 
ATOM      5  N2  UNL     1      21.340   0.684  27.408  0.00  0.00    -0.166 NA
ATOM      6  C7  UNL     1      20.610   1.955  25.381  0.00  0.00    +0.268 C 
ATOM      7  O1  UNL     1      20.232   1.075  24.563  0.00  0.00    -0.268 OA
ATOM      8  N3  UNL     1      20.975   3.295  25.034  0.00  0.00    -0.289 N 
ATOM      9  C14 UNL     1      21.487   3.963  26.240  0.00  0.00    +0.147 C 
ENDROOT
BRANCH   8  10
ATOM     10  C8  UNL     1      20.948   3.906  23.700  0.00  0.00    +0.077 C 
ATOM     11  C9  UNL     1      19.501   4.119  23.224  0.00  0.00    +0.022 C 
ATOM     12  C10 UNL     1      19.457   4.640  21.773  0.00  0.00    +0.002 C 
ATOM     13  C11 UNL     1      20.678   5.503  21.391  0.00  0.00    +0.000 C 
ATOM     14  C12 UNL     1      21.272   6.221  22.607  0.00  0.00    +0.002 C 
ATOM     15  C13 UNL     1      21.761   5.224  23.679  0.00  0.00    +0.022 C 
ENDBRANCH   8  10
BRANCH   1  17
ATOM     16  C1  UNL     1      24.417   0.737  29.168  0.00  0.00    +0.032 C 
ATOM     17  C2  UNL     1      22.951   0.291  29.218  0.00  0.00    +0.101 C 
ATOM     18  C3  UNL     1      22.803  -1.172  28.793  0.00  0.00    +0.032 C 
ENDBRANCH   1  17
TORSDOF 2
ENDMDL
MODEL 3
REMARK VINA RESULT:    -5.157      3.648      7.205
REMARK INTER + INTRA:          -6.151
REMARK INTER:                  -5.731
REMARK INTRA:                  -0.421
REMARK UNBOUND:                -0.391
REMARK  Name = /home/qwerty/github/datacon2025hack/step_04_hit_selection/docking/ligands/lig_807.pdb
REMARK  4 active torsions:
REMARK  status: ('A' for Active; 'I' for Inactive)
REMARK    1  A    between atoms: C1_1  and  C2_2
REMARK    2  A    between atoms: C2_2  and  C3_3
REMARK    3  A    between atoms: C2_2  and  N1_4
REMARK    4  A    between atoms: N3_11  and  C8_12
REMARK                            x       y       z     vdW  Elec       q    Type
REMARK                         _______ _______ _______ _____ _____    ______ ____
ROOT
ATOM      1  N1  UNL     1      20.955   1.039  31.374  0.00  0.00    -0.268 N 
ATOM      2  C4  UNL     1      21.142   0.323  30.237  0.00  0.00    +0.114 A 
ATOM      3  C5  UNL     1      21.702   1.167  29.304  0.00  0.00    +0.020 A 
ATOM      4  C6  UNL     1      21.786   2.371  29.923  0.00  0.00    +0.152 A 
ATOM      5  N2  UNL     1      21.276   2.312  31.164  0.00  0.00    -0.166 NA
ATOM      6  C7  UNL     1      21.581   3.388  28.927  0.00  0.00    +0.268 C 
ATOM      7  O1  UNL     1      21.495   4.625  29.147  0.00  0.00    -0.268 OA
ATOM      8  N3  UNL     1      21.409   2.767  27.649  0.00  0.00    -0.289 N 
ATOM      9  C14 UNL     1      21.447   1.308  27.832  0.00  0.00    +0.147 C 
ENDROOT
BRANCH   8  10
ATOM     10  C8  UNL     1      21.142   3.431  26.368  0.00  0.00    +0.077 C 
ATOM     11  C9  UNL     1      22.428   4.051  25.794  0.00  0.00    +0.022 C 
ATOM     12  C10 UNL     1      22.139   4.862  24.514  0.00  0.00    +0.002 C 
ATOM     13  C11 UNL     1      20.945   4.321  23.698  0.00  0.00    +0.000 C 
ATOM     14  C12 UNL     1      20.760   2.813  23.892  0.00  0.00    +0.002 C 
ATOM     15  C13 UNL     1      20.478   2.455  25.366  0.00  0.00    +0.022 C 
ENDBRANCH   8  10
BRANCH   1  17
ATOM     16  C1  UNL     1      18.943  -0.105  32.228  0.00  0.00    +0.032 C 
ATOM     17  C2  UNL     1      20.266   0.581  32.583  0.00  0.00    +0.101 C 
ATOM     18  C3  UNL     1      20.043   1.750  33.546  0.00  0.00    +0.032 C 
ENDBRANCH   1  17
TORSDOF 2
ENDMDL
MODEL 4
REMARK VINA RESULT:    -5.155     14.826     15.621
REMARK INTER + INTRA:          -6.149
REMARK INTER:                  -5.730
REMARK INTRA:                  -0.418
REMARK UNBOUND:                -0.391
REMARK  Name = /home/qwerty/github/datacon2025hack/step_04_hit_selection/docking/ligands/lig_807.pdb
REMARK  4 active torsions:
REMARK  status: ('A' for Active; 'I' for Inactive)
REMARK    1  A    between atoms: C1_1  and  C2_2
REMARK    2  A    between atoms: C2_2  and  C3_3
REMARK    3  A    between atoms: C2_2  and  N1_4
REMARK    4  A    between atoms: N3_11  and  C8_12
REMARK                            x       y       z     vdW  Elec       q    Type
REMARK                         _______ _______ _______ _____ _____    ______ ____
ROOT
ATOM      1  N1  UNL     1      10.894  14.152  28.627  0.00  0.00    -0.268 N 
ATOM      2  C4  UNL     1       9.900  13.807  27.770  0.00  0.00    +0.114 A 
ATOM      3  C5  UNL     1       9.138  12.841  28.388  0.00  0.00    +0.020 A 
ATOM      4  C6  UNL     1       9.744  12.623  29.582  0.00  0.00    +0.152 A 
ATOM      5  N2  UNL     1      10.850  13.377  29.706  0.00  0.00    -0.166 NA
ATOM      6  C7  UNL     1       9.578  11.233  29.908  0.00  0.00    +0.268 C 
ATOM      7  O1  UNL     1      10.089  10.643  30.897  0.00  0.00    -0.268 OA
ATOM      8  N3  UNL     1       8.802  10.600  28.886  0.00  0.00    -0.289 N 
ATOM      9  C14 UNL     1       8.507  11.594  27.844  0.00  0.00    +0.147 C 
ENDROOT
BRANCH   8  10
ATOM     10  C8  UNL     1       8.424   9.184  28.806  0.00  0.00    +0.077 C 
ATOM     11  C9  UNL     1       7.275   8.867  29.780  0.00  0.00    +0.022 C 
ATOM     12  C10 UNL     1       6.956   7.358  29.801  0.00  0.00    +0.002 C 
ATOM     13  C11 UNL     1       7.232   6.651  28.457  0.00  0.00    +0.000 C 
ATOM     14  C12 UNL     1       7.081   7.605  27.269  0.00  0.00    +0.002 C 
ATOM     15  C13 UNL     1       8.071   8.785  27.352  0.00  0.00    +0.022 C 
ENDBRANCH   8  10
BRANCH   1  17
ATOM     16  C1  UNL     1      12.559  14.801  26.926  0.00  0.00    +0.032 C 
ATOM     17  C2  UNL     1      12.016  15.048  28.337  0.00  0.00    +0.101 C 
ATOM     18  C3  UNL     1      13.115  14.886  29.390  0.00  0.00    +0.032 C 
ENDBRANCH   1  17
TORSDOF 2
ENDMDL
MODEL 5
REMARK VINA RESULT:    -5.137     15.150     16.346
REMARK INTER + INTRA:          -6.129
REMARK INTER:                  -5.755
REMARK INTRA:                  -0.374
REMARK UNBOUND:                -0.391
REMARK  Name = /home/qwerty/github/datacon2025hack/step_04_hit_selection/docking/ligands/lig_807.pdb
REMARK  4 active torsions:
REMARK  status: ('A' for Active; 'I' for Inactive)
REMARK    1  A    between atoms: C1_1  and  C2_2
REMARK    2  A    between atoms: C2_2  and  C3_3
REMARK    3  A    between atoms: C2_2  and  N1_4
REMARK    4  A    between atoms: N3_11  and  C8_12
REMARK                            x       y       z     vdW  Elec       q    Type
REMARK                         _______ _______ _______ _____ _____    ______ ____
ROOT
ATOM      1  N1  UNL     1       9.841   8.365  20.562  0.00  0.00    -0.268 N 
ATOM      2  C4  UNL     1      10.796   7.432  20.320  0.00  0.00    +0.114 A 
ATOM      3  C5  UNL     1      10.177   6.201  20.314  0.00  0.00    +0.020 A 
ATOM      4  C6  UNL     1       8.876   6.458  20.596  0.00  0.00    +0.152 A 
ATOM      5  N2  UNL     1       8.678   7.770  20.807  0.00  0.00    -0.166 NA
ATOM      6  C7  UNL     1       8.368   5.351  21.360  0.00  0.00    +0.268 C 
ATOM      7  O1  UNL     1       7.224   5.280  21.881  0.00  0.00    -0.268 OA
ATOM      8  N3  UNL     1       9.399   4.368  21.505  0.00  0.00    -0.289 N 
ATOM      9  C14 UNL     1      10.621   4.879  20.867  0.00  0.00    +0.147 C 
ENDROOT
BRANCH   8  10
ATOM     10  C8  UNL     1       9.319   3.099  22.238  0.00  0.00    +0.077 C 
ATOM     11  C9  UNL     1      10.465   2.158  21.832  0.00  0.00    +0.022 C 
ATOM     12  C10 UNL     1      10.320   0.773  22.497  0.00  0.00    +0.002 C 
ATOM     13  C11 UNL     1       9.626   0.822  23.874  0.00  0.00    +0.000 C 
ATOM     14  C12 UNL     1       9.856   2.161  24.582  0.00  0.00    +0.002 C 
ATOM     15  C13 UNL     1       9.290   3.344  23.767  0.00  0.00    +0.022 C 
ENDBRANCH   8  10
BRANCH   1  17
ATOM     16  C1  UNL     1       8.742  10.518  21.058  0.00  0.00    +0.032 C 
ATOM     17  C2  UNL     1      10.065   9.796  20.784  0.00  0.00    +0.101 C 
ATOM     18  C3  UNL     1      10.796  10.414  19.589  0.00  0.00    +0.032 C 
ENDBRANCH   1  17
TORSDOF 2
ENDMDL
MODEL 6
REMARK VINA RESULT:    -5.103      5.024      7.842
REMARK INTER + INTRA:          -6.091
REMARK INTER:                  -5.679
REMARK INTRA:                  -0.412
REMARK UNBOUND:                -0.391
REMARK  Name = /home/qwerty/github/datacon2025hack/step_04_hit_selection/docking/ligands/lig_807.pdb
REMARK  4 active torsions:
REMARK  status: ('A' for Active; 'I' for Inactive)
REMARK    1  A    between atoms: C1_1  and  C2_2
REMARK    2  A    between atoms: C2_2  and  C3_3
REMARK    3  A    between atoms: C2_2  and  N1_4
REMARK    4  A    between atoms: N3_11  and  C8_12
REMARK                            x       y       z     vdW  Elec       q    Type
REMARK                         _______ _______ _______ _____ _____    ______ ____
ROOT
ATOM      1  N1  UNL     1      21.355   1.347  28.710  0.00  0.00    -0.268 N 
ATOM      2  C4  UNL     1      21.647   1.292  27.386  0.00  0.00    +0.114 A 
ATOM      3  C5  UNL     1      20.469   1.478  26.696  0.00  0.00    +0.020 A 
ATOM      4  C6  UNL     1      19.515   1.596  27.652  0.00  0.00    +0.152 A 
ATOM      5  N2  UNL     1      20.042   1.456  28.880  0.00  0.00    -0.166 NA
ATOM      6  C7  UNL     1      18.306   1.015  27.135  0.00  0.00    +0.268 C 
ATOM      7  O1  UNL     1      17.233   0.857  27.775  0.00  0.00    -0.268 OA
ATOM      8  N3  UNL     1      18.535   0.568  25.795  0.00  0.00    -0.289 N 
ATOM      9  C14 UNL     1      19.945   0.815  25.457  0.00  0.00    +0.147 C 
ENDROOT
BRANCH   8  10
ATOM     10  C8  UNL     1      17.581  -0.112  24.909  0.00  0.00    +0.077 C 
ATOM     11  C9  UNL     1      17.860   0.232  23.436  0.00  0.00    +0.022 C 
ATOM     12  C10 UNL     1      16.788  -0.370  22.505  0.00  0.00    +0.002 C 
ATOM     13  C11 UNL     1      16.182  -1.687  23.034  0.00  0.00    +0.000 C 
ATOM     14  C12 UNL     1      17.172  -2.457  23.914  0.00  0.00    +0.002 C 
ATOM     15  C13 UNL     1      17.590  -1.641  25.155  0.00  0.00    +0.022 C 
ENDBRANCH   8  10
BRANCH   1  17
ATOM     16  C1  UNL     1      22.218   2.183  30.866  0.00  0.00    +0.032 C 
ATOM     17  C2  UNL     1      22.280   1.071  29.813  0.00  0.00    +0.101 C 
ATOM     18  C3  UNL     1      23.705   0.890  29.282  0.00  0.00    +0.032 C 
ENDBRANCH   1  17
TORSDOF 2
ENDMDL
MODEL 7
REMARK VINA RESULT:    -5.092     14.344     15.353
REMARK INTER + INTRA:          -6.078
REMARK INTER:                  -5.687
REMARK INTRA:                  -0.391
REMARK UNBOUND:                -0.391
REMARK  Name = /home/qwerty/github/datacon2025hack/step_04_hit_selection/docking/ligands/lig_807.pdb
REMARK  4 active torsions:
REMARK  status: ('A' for Active; 'I' for Inactive)
REMARK    1  A    between atoms: C1_1  and  C2_2
REMARK    2  A    between atoms: C2_2  and  C3_3
REMARK    3  A    between atoms: C2_2  and  N1_4
REMARK    4  A    between atoms: N3_11  and  C8_12
REMARK                            x       y       z     vdW  Elec       q    Type
REMARK                         _______ _______ _______ _____ _____    ______ ____
ROOT
ATOM      1  N1  UNL     1      13.604  14.655  28.274  0.00  0.00    -0.268 N 
ATOM      2  C4  UNL     1      12.861  14.028  27.327  0.00  0.00    +0.114 A 
ATOM      3  C5  UNL     1      11.589  13.876  27.834  0.00  0.00    +0.020 A 
ATOM      4  C6  UNL     1      11.646  14.387  29.089  0.00  0.00    +0.152 A 
ATOM      5  N2  UNL     1      12.888  14.808  29.383  0.00  0.00    -0.166 NA
ATOM      6  C7  UNL     1      10.752  13.620  29.913  0.00  0.00    +0.268 C 
ATOM      7  O1  UNL     1      10.611  13.743  31.159  0.00  0.00    -0.268 OA
ATOM      8  N3  UNL     1      10.099  12.633  29.107  0.00  0.00    -0.289 N 
ATOM      9  C14 UNL     1      10.627  12.728  27.738  0.00  0.00    +0.147 C 
ENDROOT
BRANCH   8  10
ATOM     10  C8  UNL     1       9.134  11.620  29.551  0.00  0.00    +0.077 C 
ATOM     11  C9  UNL     1       8.321  11.080  28.362  0.00  0.00    +0.022 C 
ATOM     12  C10 UNL     1       7.215  10.111  28.830  0.00  0.00    +0.002 C 
ATOM     13  C11 UNL     1       7.580   9.334  30.113  0.00  0.00    +0.000 C 
ATOM     14  C12 UNL     1       9.093   9.136  30.249  0.00  0.00    +0.002 C 
ATOM     15  C13 UNL     1       9.842  10.483  30.328  0.00  0.00    +0.022 C 
ENDBRANCH   8  10
BRANCH   1  17
ATOM     16  C1  UNL     1      15.526  15.611  29.490  0.00  0.00    +0.032 C 
ATOM     17  C2  UNL     1      15.047  14.904  28.218  0.00  0.00    +0.101 C 
ATOM     18  C3  UNL     1      15.400  15.714  26.968  0.00  0.00    +0.032 C 
ENDBRANCH   1  17
TORSDOF 2
ENDMDL
MODEL 8
REMARK VINA RESULT:    -5.084     14.727     15.955
REMARK INTER + INTRA:          -6.070
REMARK INTER:                  -5.701
REMARK INTRA:                  -0.368
REMARK UNBOUND:                -0.391
REMARK  Name = /home/qwerty/github/datacon2025hack/step_04_hit_selection/docking/ligands/lig_807.pdb
REMARK  4 active torsions:
REMARK  status: ('A' for Active; 'I' for Inactive)
REMARK    1  A    between atoms: C1_1  and  C2_2
REMARK    2  A    between atoms: C2_2  and  C3_3
REMARK    3  A    between atoms: C2_2  and  N1_4
REMARK    4  A    between atoms: N3_11  and  C8_12
REMARK                            x       y       z     vdW  Elec       q    Type
REMARK                         _______ _______ _______ _____ _____    ______ ____
ROOT
ATOM      1  N1  UNL     1       7.364   7.859  29.105  0.00  0.00    -0.268 N 
ATOM      2  C4  UNL     1       7.844   8.704  30.052  0.00  0.00    +0.114 A 
ATOM      3  C5  UNL     1       7.892   9.964  29.496  0.00  0.00    +0.020 A 
ATOM      4  C6  UNL     1       7.473   9.800  28.216  0.00  0.00    +0.152 A 
ATOM      5  N2  UNL     1       7.207   8.509  27.957  0.00  0.00    -0.166 NA
ATOM      6  C7  UNL     1       8.192  10.740  27.399  0.00  0.00    +0.268 C 
ATOM      7  O1  UNL     1       8.136  10.816  26.143  0.00  0.00    -0.268 OA
ATOM      8  N3  UNL     1       9.048  11.528  28.232  0.00  0.00    -0.289 N 
ATOM      9  C14 UNL     1       8.921  11.049  29.616  0.00  0.00    +0.147 C 
ENDROOT
BRANCH   8  10
ATOM     10  C8  UNL     1       9.979  12.581  27.805  0.00  0.00    +0.077 C 
ATOM     11  C9  UNL     1      10.424  13.438  29.003  0.00  0.00    +0.022 C 
ATOM     12  C10 UNL     1      11.298  14.625  28.551  0.00  0.00    +0.002 C 
ATOM     13  C11 UNL     1      12.127  14.332  27.282  0.00  0.00    +0.000 C 
ATOM     14  C12 UNL     1      12.461  12.843  27.151  0.00  0.00    +0.002 C 
ATOM     15  C13 UNL     1      11.188  11.977  27.049  0.00  0.00    +0.022 C 
ENDBRANCH   8  10
BRANCH   1  17
ATOM     16  C1  UNL     1       6.805   5.786  27.889  0.00  0.00    +0.032 C 
ATOM     17  C2  UNL     1       7.267   6.401  29.214  0.00  0.00    +0.101 C 
ATOM     18  C3  UNL     1       6.329   6.013  30.361  0.00  0.00    +0.032 C 
ENDBRANCH   1  17
TORSDOF 2
ENDMDL
MODEL 9
REMARK VINA RESULT:    -5.076      4.948      6.468
REMARK INTER + INTRA:          -6.060
REMARK INTER:                  -5.687
REMARK INTRA:                  -0.373
REMARK UNBOUND:                -0.391
REMARK  Name = /home/qwerty/github/datacon2025hack/step_04_hit_selection/docking/ligands/lig_807.pdb
REMARK  4 active torsions:
REMARK  status: ('A' for Active; 'I' for Inactive)
REMARK    1  A    between atoms: C1_1  and  C2_2
REMARK    2  A    between atoms: C2_2  and  C3_3
REMARK    3  A    between atoms: C2_2  and  N1_4
REMARK    4  A    between atoms: N3_11  and  C8_12
REMARK                            x       y       z     vdW  Elec       q    Type
REMARK                         _______ _______ _______ _____ _____    ______ ____
ROOT
ATOM      1  N1  UNL     1      21.468   4.272  24.243  0.00  0.00    -0.268 N 
ATOM      2  C4  UNL     1      22.047   4.591  25.428  0.00  0.00    +0.114 A 
ATOM      3  C5  UNL     1      22.138   3.433  26.168  0.00  0.00    +0.020 A 
ATOM      4  C6  UNL     1      21.565   2.475  25.398  0.00  0.00    +0.152 A 
ATOM      5  N2  UNL     1      21.101   2.994  24.248  0.00  0.00    -0.166 NA
ATOM      6  C7  UNL     1      20.913   1.541  26.275  0.00  0.00    +0.268 C 
ATOM      7  O1  UNL     1      20.196   0.571  25.915  0.00  0.00    -0.268 OA
ATOM      8  N3  UNL     1      21.142   1.934  27.633  0.00  0.00    -0.289 N 
ATOM      9  C14 UNL     1      21.914   3.185  27.631  0.00  0.00    +0.147 C 
ENDROOT
BRANCH   8  10
ATOM     10  C8  UNL     1      20.632   1.280  28.844  0.00  0.00    +0.077 C 
ATOM     11  C9  UNL     1      21.407   1.749  30.088  0.00  0.00    +0.022 C 
ATOM     12  C10 UNL     1      20.970   0.975  31.349  0.00  0.00    +0.002 C 
ATOM     13  C11 UNL     1      19.495   0.522  31.312  0.00  0.00    +0.000 C 
ATOM     14  C12 UNL     1      18.631   1.460  30.463  0.00  0.00    +0.002 C 
ATOM     15  C13 UNL     1      19.108   1.508  28.997  0.00  0.00    +0.022 C 
ENDBRANCH   8  10
BRANCH   1  17
ATOM     16  C1  UNL     1      20.575   4.465  21.951  0.00  0.00    +0.032 C 
ATOM     17  C2  UNL     1      21.056   5.213  23.198  0.00  0.00    +0.101 C 
ATOM     18  C3  UNL     1      22.202   6.171  22.862  0.00  0.00    +0.032 C 
ENDBRANCH   1  17
TORSDOF 2
ENDMDL
