MODEL 1
REMARK VINA RESULT:    -6.842      0.000      0.000
REMARK INTER + INTRA:          -9.084
REMARK INTER:                  -8.242
REMARK INTRA:                  -0.842
REMARK UNBOUND:                -0.842
REMARK  Name = /home/qwerty/github/datacon2025hack/step_04_hit_selection/docking/ligands/lig_488.pdb
REMARK  6 active torsions:
REMARK  status: ('A' for Active; 'I' for Inactive)
REMARK    1  A    between atoms: C1_1  and  C2_2
REMARK    2  A    between atoms: C4_4  and  C5_5
REMARK    3  A    between atoms: N1_6  and  C6_7
REMARK    4  A    between atoms: C9_10  and  N2_11
REMARK    5  A    between atoms: C10_12  and  C11_14
REMARK    6  A    between atoms: C20_23  and  O2_24
REMARK                            x       y       z     vdW  Elec       q    Type
REMARK                         _______ _______ _______ _____ _____    ______ ____
ROOT
ATOM      1  N2  UNL     1      22.530   4.530  24.392  0.00  0.00    -0.280 N 
ATOM      2  C10 UNL     1      21.663   5.340  23.577  0.00  0.00    +0.252 C 
ATOM      3  O1  UNL     1      20.480   5.571  23.949  0.00  0.00    -0.270 OA
ATOM      4  H10 UNL     1      23.544   4.473  24.149  0.00  0.00    +0.155 HD
ENDROOT
BRANCH   2   5
ATOM      5  C11 UNL     1      22.152   5.936  22.310  0.00  0.00    +0.079 A 
ATOM      6  C12 UNL     1      23.348   6.676  22.293  0.00  0.00    +0.025 A 
ATOM      7  C13 UNL     1      23.815   7.254  21.104  0.00  0.00    -0.017 A 
ATOM      8  C14 UNL     1      25.008   7.992  21.087  0.00  0.00    +0.008 A 
ATOM      9  C15 UNL     1      25.463   8.564  19.896  0.00  0.00    +0.001 A 
ATOM     10  C16 UNL     1      24.732   8.407  18.716  0.00  0.00    +0.001 A 
ATOM     11  C17 UNL     1      23.541   7.676  18.720  0.00  0.00    +0.008 A 
ATOM     12  C18 UNL     1      23.073   7.096  19.910  0.00  0.00    -0.014 A 
ATOM     13  C19 UNL     1      21.879   6.366  19.927  0.00  0.00    +0.054 A 
ATOM     14  C20 UNL     1      21.415   5.787  21.116  0.00  0.00    +0.130 A 
BRANCH  14  15
ATOM     15  O2  UNL     1      20.229   5.051  21.109  0.00  0.00    -0.506 OA
ATOM     16  H17 UNL     1      19.356   5.445  21.441  0.00  0.00    +0.292 HD
ENDBRANCH  14  15
ENDBRANCH   2   5
BRANCH   1  20
ATOM     17  C6  UNL     1      21.184   2.436  27.816  0.00  0.00    +0.154 A 
ATOM     18  C7  UNL     1      21.697   3.735  27.965  0.00  0.00    +0.050 A 
ATOM     19  C8  UNL     1      22.148   4.433  26.844  0.00  0.00    +0.028 A 
ATOM     20  C9  UNL     1      22.102   3.834  25.575  0.00  0.00    +0.052 A 
ATOM     21  C21 UNL     1      21.560   2.548  25.465  0.00  0.00    +0.136 A 
ATOM     22  N3  UNL     1      21.127   1.888  26.572  0.00  0.00    -0.234 NA
BRANCH  17  28
ATOM     23  C1  UNL     1      18.318   1.157  31.592  0.00  0.00    +0.067 C 
ATOM     24  C2  UNL     1      19.439   1.115  30.609  0.00  0.00    +0.061 A 
ATOM     25  C3  UNL     1      20.517   0.255  30.650  0.00  0.00    +0.048 A 
ATOM     26  C4  UNL     1      21.306   0.648  29.586  0.00  0.00    +0.044 A 
ATOM     27  C5  UNL     1      22.609   0.011  29.212  0.00  0.00    +0.066 C 
ATOM     28  N1  UNL     1      20.714   1.699  28.965  0.00  0.00    -0.219 N 
ATOM     29  N4  UNL     1      19.583   1.987  29.593  0.00  0.00    -0.170 NA
ENDBRANCH  17  28
ENDBRANCH   1  20
TORSDOF 4
ENDMDL
MODEL 2
REMARK VINA RESULT:    -6.695      6.683      9.021
REMARK INTER + INTRA:          -8.906
REMARK INTER:                  -8.043
REMARK INTRA:                  -0.863
REMARK UNBOUND:                -0.842
REMARK  Name = /home/qwerty/github/datacon2025hack/step_04_hit_selection/docking/ligands/lig_488.pdb
REMARK  6 active torsions:
REMARK  status: ('A' for Active; 'I' for Inactive)
REMARK    1  A    between atoms: C1_1  and  C2_2
REMARK    2  A    between atoms: C4_4  and  C5_5
REMARK    3  A    between atoms: N1_6  and  C6_7
REMARK    4  A    between atoms: C9_10  and  N2_11
REMARK    5  A    between atoms: C10_12  and  C11_14
REMARK    6  A    between atoms: C20_23  and  O2_24
REMARK                            x       y       z     vdW  Elec       q    Type
REMARK                         _______ _______ _______ _____ _____    ______ ____
ROOT
ATOM      1  N2  UNL     1      19.109   1.455  28.512  0.00  0.00    -0.280 N 
ATOM      2  C10 UNL     1      18.884   1.406  27.092  0.00  0.00    +0.252 C 
ATOM      3  O1  UNL     1      19.406   2.273  26.339  0.00  0.00    -0.270 OA
ATOM      4  H10 UNL     1      18.799   0.650  29.101  0.00  0.00    +0.155 HD
ENDROOT
BRANCH   2   5
ATOM      5  C11 UNL     1      18.065   0.327  26.490  0.00  0.00    +0.079 A 
ATOM      6  C12 UNL     1      16.776   0.058  26.986  0.00  0.00    +0.025 A 
ATOM      7  C13 UNL     1      15.996  -0.967  26.432  0.00  0.00    -0.017 A 
ATOM      8  C14 UNL     1      14.710  -1.234  26.927  0.00  0.00    +0.008 A 
ATOM      9  C15 UNL     1      13.942  -2.259  26.369  0.00  0.00    +0.001 A 
ATOM     10  C16 UNL     1      14.449  -3.025  25.316  0.00  0.00    +0.001 A 
ATOM     11  C17 UNL     1      15.730  -2.771  24.816  0.00  0.00    +0.008 A 
ATOM     12  C18 UNL     1      16.511  -1.744  25.369  0.00  0.00    -0.014 A 
ATOM     13  C19 UNL     1      17.797  -1.483  24.879  0.00  0.00    +0.054 A 
ATOM     14  C20 UNL     1      18.575  -0.456  25.432  0.00  0.00    +0.130 A 
BRANCH  14  15
ATOM     15  O2  UNL     1      19.848  -0.203  24.921  0.00  0.00    -0.506 OA
ATOM     16  H17 UNL     1      20.250   0.728  24.928  0.00  0.00    +0.292 HD
ENDBRANCH  14  15
ENDBRANCH   2   5
BRANCH   1  20
ATOM     17  C6  UNL     1      21.208   4.523  30.538  0.00  0.00    +0.154 A 
ATOM     18  C7  UNL     1      19.843   4.697  30.258  0.00  0.00    +0.050 A 
ATOM     19  C8  UNL     1      19.141   3.693  29.587  0.00  0.00    +0.028 A 
ATOM     20  C9  UNL     1      19.802   2.523  29.181  0.00  0.00    +0.052 A 
ATOM     21  C21 UNL     1      21.156   2.377  29.501  0.00  0.00    +0.136 A 
ATOM     22  N3  UNL     1      21.818   3.368  30.156  0.00  0.00    -0.234 NA
BRANCH  17  28
ATOM     23  C1  UNL     1      23.710   8.686  31.256  0.00  0.00    +0.067 C 
ATOM     24  C2  UNL     1      23.025   7.396  31.557  0.00  0.00    +0.061 A 
ATOM     25  C3  UNL     1      23.030   6.741  32.772  0.00  0.00    +0.048 A 
ATOM     26  C4  UNL     1      22.331   5.575  32.532  0.00  0.00    +0.044 A 
ATOM     27  C5  UNL     1      22.067   4.515  33.558  0.00  0.00    +0.066 C 
ATOM     28  N1  UNL     1      21.949   5.550  31.231  0.00  0.00    -0.219 N 
ATOM     29  N4  UNL     1      22.379   6.655  30.636  0.00  0.00    -0.170 NA
ENDBRANCH  17  28
ENDBRANCH   1  20
TORSDOF 4
ENDMDL
MODEL 3
REMARK VINA RESULT:    -6.646     11.699     15.112
REMARK INTER + INTRA:          -8.848
REMARK INTER:                  -8.185
REMARK INTRA:                  -0.663
REMARK UNBOUND:                -0.842
REMARK  Name = /home/qwerty/github/datacon2025hack/step_04_hit_selection/docking/ligands/lig_488.pdb
REMARK  6 active torsions:
REMARK  status: ('A' for Active; 'I' for Inactive)
REMARK    1  A    between atoms: C1_1  and  C2_2
REMARK    2  A    between atoms: C4_4  and  C5_5
REMARK    3  A    between atoms: N1_6  and  C6_7
REMARK    4  A    between atoms: C9_10  and  N2_11
REMARK    5  A    between atoms: C10_12  and  C11_14
REMARK    6  A    between atoms: C20_23  and  O2_24
REMARK                            x       y       z     vdW  Elec       q    Type
REMARK                         _______ _______ _______ _____ _____    ______ ____
ROOT
ATOM      1  N2  UNL     1      17.409   9.127  36.356  0.00  0.00    -0.280 N 
ATOM      2  C10 UNL     1      18.719   9.695  36.177  0.00  0.00    +0.252 C 
ATOM      3  O1  UNL     1      18.854  10.942  36.039  0.00  0.00    -0.270 OA
ATOM      4  H10 UNL     1      17.327   8.120  36.619  0.00  0.00    +0.155 HD
ENDROOT
BRANCH   2   5
ATOM      5  C11 UNL     1      19.926   8.834  36.183  0.00  0.00    +0.079 A 
ATOM      6  C12 UNL     1      20.791   8.823  35.073  0.00  0.00    +0.025 A 
ATOM      7  C13 UNL     1      21.930   8.006  35.062  0.00  0.00    -0.017 A 
ATOM      8  C14 UNL     1      22.793   7.996  33.954  0.00  0.00    +0.008 A 
ATOM      9  C15 UNL     1      23.924   7.176  33.954  0.00  0.00    +0.001 A 
ATOM     10  C16 UNL     1      24.203   6.360  35.054  0.00  0.00    +0.001 A 
ATOM     11  C17 UNL     1      23.350   6.359  36.161  0.00  0.00    +0.008 A 
ATOM     12  C18 UNL     1      22.210   7.178  36.174  0.00  0.00    -0.014 A 
ATOM     13  C19 UNL     1      21.346   7.182  37.276  0.00  0.00    +0.054 A 
ATOM     14  C20 UNL     1      20.209   8.003  37.287  0.00  0.00    +0.130 A 
BRANCH  14  15
ATOM     15  O2  UNL     1      19.369   8.002  38.400  0.00  0.00    -0.506 OA
ATOM     16  H17 UNL     1      19.456   7.308  39.134  0.00  0.00    +0.292 HD
ENDBRANCH  14  15
ENDBRANCH   2   5
BRANCH   1  20
ATOM     17  C6  UNL     1      13.824  11.344  35.957  0.00  0.00    +0.154 A 
ATOM     18  C7  UNL     1      14.661  11.587  37.060  0.00  0.00    +0.050 A 
ATOM     19  C8  UNL     1      15.844  10.859  37.203  0.00  0.00    +0.028 A 
ATOM     20  C9  UNL     1      16.187   9.878  36.259  0.00  0.00    +0.052 A 
ATOM     21  C21 UNL     1      15.339   9.684  35.162  0.00  0.00    +0.136 A 
ATOM     22  N3  UNL     1      14.193  10.406  35.043  0.00  0.00    -0.234 NA
BRANCH  17  28
ATOM     23  C1  UNL     1      10.627  14.571  34.097  0.00  0.00    +0.067 C 
ATOM     24  C2  UNL     1      11.177  13.485  34.958  0.00  0.00    +0.061 A 
ATOM     25  C3  UNL     1      10.544  12.914  36.043  0.00  0.00    +0.048 A 
ATOM     26  C4  UNL     1      11.472  12.024  36.547  0.00  0.00    +0.044 A 
ATOM     27  C5  UNL     1      11.251  11.153  37.746  0.00  0.00    +0.066 C 
ATOM     28  N1  UNL     1      12.598  12.087  35.793  0.00  0.00    -0.219 N 
ATOM     29  N4  UNL     1      12.421  12.983  34.832  0.00  0.00    -0.170 NA
ENDBRANCH  17  28
ENDBRANCH   1  20
TORSDOF 4
ENDMDL
MODEL 4
REMARK VINA RESULT:    -6.641      6.533      8.462
REMARK INTER + INTRA:          -8.841
REMARK INTER:                  -7.967
REMARK INTRA:                  -0.874
REMARK UNBOUND:                -0.842
REMARK  Name = /home/qwerty/github/datacon2025hack/step_04_hit_selection/docking/ligands/lig_488.pdb
REMARK  6 active torsions:
REMARK  status: ('A' for Active; 'I' for Inactive)
REMARK    1  A    between atoms: C1_1  and  C2_2
REMARK    2  A    between atoms: C4_4  and  C5_5
REMARK    3  A    between atoms: N1_6  and  C6_7
REMARK    4  A    between atoms: C9_10  and  N2_11
REMARK    5  A    between atoms: C10_12  and  C11_14
REMARK    6  A    between atoms: C20_23  and  O2_24
REMARK                            x       y       z     vdW  Elec       q    Type
REMARK                         _______ _______ _______ _____ _____    ______ ____
ROOT
ATOM      1  N2  UNL     1      21.378   4.066  29.427  0.00  0.00    -0.280 N 
ATOM      2  C10 UNL     1      21.260   4.462  30.805  0.00  0.00    +0.252 C 
ATOM      3  O1  UNL     1      20.352   3.970  31.529  0.00  0.00    -0.270 OA
ATOM      4  H10 UNL     1      22.219   4.364  28.886  0.00  0.00    +0.155 HD
ENDROOT
BRANCH   2   5
ATOM      5  C11 UNL     1      22.215   5.427  31.401  0.00  0.00    +0.079 A 
ATOM      6  C12 UNL     1      22.349   6.717  30.858  0.00  0.00    +0.025 A 
ATOM      7  C13 UNL     1      23.256   7.634  31.406  0.00  0.00    -0.017 A 
ATOM      8  C14 UNL     1      23.389   8.922  30.863  0.00  0.00    +0.008 A 
ATOM      9  C15 UNL     1      24.297   9.828  31.417  0.00  0.00    +0.001 A 
ATOM     10  C16 UNL     1      25.081   9.457  32.513  0.00  0.00    +0.001 A 
ATOM     11  C17 UNL     1      24.960   8.177  33.061  0.00  0.00    +0.008 A 
ATOM     12  C18 UNL     1      24.051   7.258  32.513  0.00  0.00    -0.014 A 
ATOM     13  C19 UNL     1      23.925   5.971  33.051  0.00  0.00    +0.054 A 
ATOM     14  C20 UNL     1      23.015   5.056  32.503  0.00  0.00    +0.130 A 
BRANCH  14  15
ATOM     15  O2  UNL     1      22.895   3.784  33.063  0.00  0.00    -0.506 OA
ATOM     16  H17 UNL     1      23.417   2.993  32.704  0.00  0.00    +0.292 HD
ENDBRANCH  14  15
ENDBRANCH   2   5
BRANCH   1  20
ATOM     17  C6  UNL     1      18.680   1.508  27.402  0.00  0.00    +0.154 A 
ATOM     18  C7  UNL     1      18.462   2.895  27.372  0.00  0.00    +0.050 A 
ATOM     19  C8  UNL     1      19.342   3.748  28.040  0.00  0.00    +0.028 A 
ATOM     20  C9  UNL     1      20.432   3.220  28.750  0.00  0.00    +0.052 A 
ATOM     21  C21 UNL     1      20.630   1.835  28.734  0.00  0.00    +0.136 A 
ATOM     22  N3  UNL     1      19.759   1.025  28.076  0.00  0.00    -0.234 NA
BRANCH  17  28
ATOM     23  C1  UNL     1      14.784  -1.376  26.626  0.00  0.00    +0.067 C 
ATOM     24  C2  UNL     1      16.051  -0.635  26.361  0.00  0.00    +0.061 A 
ATOM     25  C3  UNL     1      16.826  -0.740  25.224  0.00  0.00    +0.048 A 
ATOM     26  C4  UNL     1      17.914   0.071  25.480  0.00  0.00    +0.044 A 
ATOM     27  C5  UNL     1      19.055   0.288  24.533  0.00  0.00    +0.066 C 
ATOM     28  N1  UNL     1      17.780   0.611  26.717  0.00  0.00    -0.219 N 
ATOM     29  N4  UNL     1      16.650   0.174  27.256  0.00  0.00    -0.170 NA
ENDBRANCH  17  28
ENDBRANCH   1  20
TORSDOF 4
ENDMDL
MODEL 5
REMARK VINA RESULT:    -6.588     11.202     14.738
REMARK INTER + INTRA:          -8.777
REMARK INTER:                  -7.978
REMARK INTRA:                  -0.799
REMARK UNBOUND:                -0.842
REMARK  Name = /home/qwerty/github/datacon2025hack/step_04_hit_selection/docking/ligands/lig_488.pdb
REMARK  6 active torsions:
REMARK  status: ('A' for Active; 'I' for Inactive)
REMARK    1  A    between atoms: C1_1  and  C2_2
REMARK    2  A    between atoms: C4_4  and  C5_5
REMARK    3  A    between atoms: N1_6  and  C6_7
REMARK    4  A    between atoms: C9_10  and  N2_11
REMARK    5  A    between atoms: C10_12  and  C11_14
REMARK    6  A    between atoms: C20_23  and  O2_24
REMARK                            x       y       z     vdW  Elec       q    Type
REMARK                         _______ _______ _______ _____ _____    ______ ____
ROOT
ATOM      1  N2  UNL     1      17.553  10.714  34.854  0.00  0.00    -0.280 N 
ATOM      2  C10 UNL     1      16.999  11.278  36.056  0.00  0.00    +0.252 C 
ATOM      3  O1  UNL     1      17.647  11.224  37.137  0.00  0.00    -0.270 OA
ATOM      4  H10 UNL     1      17.077  10.899  33.943  0.00  0.00    +0.155 HD
ENDROOT
BRANCH   2   5
ATOM      5  C11 UNL     1      15.679  11.953  36.039  0.00  0.00    +0.079 A 
ATOM      6  C12 UNL     1      14.616  11.408  35.296  0.00  0.00    +0.025 A 
ATOM      7  C13 UNL     1      13.366  12.043  35.263  0.00  0.00    -0.017 A 
ATOM      8  C14 UNL     1      12.306  11.498  34.521  0.00  0.00    +0.008 A 
ATOM      9  C15 UNL     1      11.065  12.140  34.495  0.00  0.00    +0.001 A 
ATOM     10  C16 UNL     1      10.872  13.328  35.205  0.00  0.00    +0.001 A 
ATOM     11  C17 UNL     1      11.921  13.882  35.945  0.00  0.00    +0.008 A 
ATOM     12  C18 UNL     1      13.172  13.247  35.979  0.00  0.00    -0.014 A 
ATOM     13  C19 UNL     1      14.231  13.795  36.714  0.00  0.00    +0.054 A 
ATOM     14  C20 UNL     1      15.479  13.157  36.748  0.00  0.00    +0.130 A 
BRANCH  14  15
ATOM     15  O2  UNL     1      16.517  13.712  37.497  0.00  0.00    -0.506 OA
ATOM     16  H17 UNL     1      16.840  13.286  38.358  0.00  0.00    +0.292 HD
ENDBRANCH  14  15
ENDBRANCH   2   5
BRANCH   1  20
ATOM     17  C6  UNL     1      21.103   8.408  34.801  0.00  0.00    +0.154 A 
ATOM     18  C7  UNL     1      21.194   9.808  34.726  0.00  0.00    +0.050 A 
ATOM     19  C8  UNL     1      20.030  10.579  34.738  0.00  0.00    +0.028 A 
ATOM     20  C9  UNL     1      18.774   9.956  34.810  0.00  0.00    +0.052 A 
ATOM     21  C21 UNL     1      18.726   8.561  34.909  0.00  0.00    +0.136 A 
ATOM     22  N3  UNL     1      19.874   7.832  34.896  0.00  0.00    -0.234 NA
BRANCH  17  28
ATOM     23  C1  UNL     1      25.061   6.090  33.050  0.00  0.00    +0.067 C 
ATOM     24  C2  UNL     1      24.056   6.599  34.028  0.00  0.00    +0.061 A 
ATOM     25  C3  UNL     1      23.988   6.266  35.365  0.00  0.00    +0.048 A 
ATOM     26  C4  UNL     1      22.862   6.923  35.822  0.00  0.00    +0.044 A 
ATOM     27  C5  UNL     1      22.359   6.869  37.232  0.00  0.00    +0.066 C 
ATOM     28  N1  UNL     1      22.296   7.596  34.789  0.00  0.00    -0.219 N 
ATOM     29  N4  UNL     1      23.018   7.391  33.696  0.00  0.00    -0.170 NA
ENDBRANCH  17  28
ENDBRANCH   1  20
TORSDOF 4
ENDMDL
MODEL 6
REMARK VINA RESULT:    -6.572      3.875      9.953
REMARK INTER + INTRA:          -8.759
REMARK INTER:                  -7.926
REMARK INTRA:                  -0.833
REMARK UNBOUND:                -0.842
REMARK  Name = /home/qwerty/github/datacon2025hack/step_04_hit_selection/docking/ligands/lig_488.pdb
REMARK  6 active torsions:
REMARK  status: ('A' for Active; 'I' for Inactive)
REMARK    1  A    between atoms: C1_1  and  C2_2
REMARK    2  A    between atoms: C4_4  and  C5_5
REMARK    3  A    between atoms: N1_6  and  C6_7
REMARK    4  A    between atoms: C9_10  and  N2_11
REMARK    5  A    between atoms: C10_12  and  C11_14
REMARK    6  A    between atoms: C20_23  and  O2_24
REMARK                            x       y       z     vdW  Elec       q    Type
REMARK                         _______ _______ _______ _____ _____    ______ ____
ROOT
ATOM      1  N2  UNL     1      20.211   6.006  25.042  0.00  0.00    -0.280 N 
ATOM      2  C10 UNL     1      21.506   5.420  25.265  0.00  0.00    +0.252 C 
ATOM      3  O1  UNL     1      22.491   5.776  24.562  0.00  0.00    -0.270 OA
ATOM      4  H10 UNL     1      19.445   5.816  25.726  0.00  0.00    +0.155 HD
ENDROOT
BRANCH   2   5
ATOM      5  C11 UNL     1      21.710   4.417  26.337  0.00  0.00    +0.079 A 
ATOM      6  C12 UNL     1      21.307   4.699  27.655  0.00  0.00    +0.025 A 
ATOM      7  C13 UNL     1      21.503   3.763  28.680  0.00  0.00    -0.017 A 
ATOM      8  C14 UNL     1      21.100   4.045  29.995  0.00  0.00    +0.008 A 
ATOM      9  C15 UNL     1      21.303   3.105  31.008  0.00  0.00    +0.001 A 
ATOM     10  C16 UNL     1      21.909   1.879  30.720  0.00  0.00    +0.001 A 
ATOM     11  C17 UNL     1      22.317   1.587  29.415  0.00  0.00    +0.008 A 
ATOM     12  C18 UNL     1      22.119   2.523  28.388  0.00  0.00    -0.014 A 
ATOM     13  C19 UNL     1      22.528   2.244  27.079  0.00  0.00    +0.054 A 
ATOM     14  C20 UNL     1      22.328   3.180  26.055  0.00  0.00    +0.130 A 
BRANCH  14  15
ATOM     15  O2  UNL     1      22.730   2.877  24.754  0.00  0.00    -0.506 OA
ATOM     16  H17 UNL     1      23.012   1.940  24.488  0.00  0.00    +0.292 HD
ENDBRANCH  14  15
ENDBRANCH   2   5
BRANCH   1  20
ATOM     17  C6  UNL     1      19.258   8.708  21.925  0.00  0.00    +0.154 A 
ATOM     18  C7  UNL     1      19.422   7.346  21.624  0.00  0.00    +0.050 A 
ATOM     19  C8  UNL     1      19.740   6.446  22.643  0.00  0.00    +0.028 A 
ATOM     20  C9  UNL     1      19.911   6.904  23.960  0.00  0.00    +0.052 A 
ATOM     21  C21 UNL     1      19.713   8.264  24.222  0.00  0.00    +0.136 A 
ATOM     22  N3  UNL     1      19.403   9.121  23.213  0.00  0.00    -0.234 NA
BRANCH  17  28
ATOM     23  C1  UNL     1      16.529  11.598  19.043  0.00  0.00    +0.067 C 
ATOM     24  C2  UNL     1      17.735  10.948  19.633  0.00  0.00    +0.061 A 
ATOM     25  C3  UNL     1      19.027  11.063  19.163  0.00  0.00    +0.048 A 
ATOM     26  C4  UNL     1      19.763  10.233  19.984  0.00  0.00    +0.044 A 
ATOM     27  C5  UNL     1      21.240  10.013  19.869  0.00  0.00    +0.066 C 
ATOM     28  N1  UNL     1      18.929   9.652  20.884  0.00  0.00    -0.219 N 
ATOM     29  N4  UNL     1      17.694  10.082  20.663  0.00  0.00    -0.170 NA
ENDBRANCH  17  28
ENDBRANCH   1  20
TORSDOF 4
ENDMDL
MODEL 7
REMARK VINA RESULT:    -6.499      7.056      8.164
REMARK INTER + INTRA:          -8.671
REMARK INTER:                  -7.836
REMARK INTRA:                  -0.834
REMARK UNBOUND:                -0.842
REMARK  Name = /home/qwerty/github/datacon2025hack/step_04_hit_selection/docking/ligands/lig_488.pdb
REMARK  6 active torsions:
REMARK  status: ('A' for Active; 'I' for Inactive)
REMARK    1  A    between atoms: C1_1  and  C2_2
REMARK    2  A    between atoms: C4_4  and  C5_5
REMARK    3  A    between atoms: N1_6  and  C6_7
REMARK    4  A    between atoms: C9_10  and  N2_11
REMARK    5  A    between atoms: C10_12  and  C11_14
REMARK    6  A    between atoms: C20_23  and  O2_24
REMARK                            x       y       z     vdW  Elec       q    Type
REMARK                         _______ _______ _______ _____ _____    ______ ____
ROOT
ATOM      1  N2  UNL     1      16.743   7.555  19.742  0.00  0.00    -0.280 N 
ATOM      2  C10 UNL     1      18.046   8.012  20.146  0.00  0.00    +0.252 C 
ATOM      3  O1  UNL     1      18.817   7.243  20.782  0.00  0.00    -0.270 OA
ATOM      4  H10 UNL     1      16.180   8.144  19.090  0.00  0.00    +0.155 HD
ENDROOT
BRANCH   2   5
ATOM      5  C11 UNL     1      18.512   9.376  19.798  0.00  0.00    +0.079 A 
ATOM      6  C12 UNL     1      19.851   9.591  19.423  0.00  0.00    +0.025 A 
ATOM      7  C13 UNL     1      20.307  10.877  19.102  0.00  0.00    -0.017 A 
ATOM      8  C14 UNL     1      21.643  11.091  18.728  0.00  0.00    +0.008 A 
ATOM      9  C15 UNL     1      22.086  12.377  18.411  0.00  0.00    +0.001 A 
ATOM     10  C16 UNL     1      21.204  13.459  18.466  0.00  0.00    +0.001 A 
ATOM     11  C17 UNL     1      19.871  13.260  18.840  0.00  0.00    +0.008 A 
ATOM     12  C18 UNL     1      19.414  11.972  19.161  0.00  0.00    -0.014 A 
ATOM     13  C19 UNL     1      18.083  11.762  19.540  0.00  0.00    +0.054 A 
ATOM     14  C20 UNL     1      17.628  10.474  19.859  0.00  0.00    +0.130 A 
BRANCH  14  15
ATOM     15  O2  UNL     1      16.295  10.283  20.221  0.00  0.00    -0.506 OA
ATOM     16  H17 UNL     1      15.594  10.001  19.546  0.00  0.00    +0.292 HD
ENDBRANCH  14  15
ENDBRANCH   2   5
BRANCH   1  20
ATOM     17  C6  UNL     1      15.105   3.856  20.991  0.00  0.00    +0.154 A 
ATOM     18  C7  UNL     1      15.866   3.905  19.811  0.00  0.00    +0.050 A 
ATOM     19  C8  UNL     1      16.408   5.120  19.387  0.00  0.00    +0.028 A 
ATOM     20  C9  UNL     1      16.179   6.290  20.129  0.00  0.00    +0.052 A 
ATOM     21  C21 UNL     1      15.438   6.194  21.312  0.00  0.00    +0.136 A 
ATOM     22  N3  UNL     1      14.921   5.000  21.704  0.00  0.00    -0.234 NA
BRANCH  17  28
ATOM     23  C1  UNL     1      14.868  -0.622  22.990  0.00  0.00    +0.067 C 
ATOM     24  C2  UNL     1      14.423   0.650  22.350  0.00  0.00    +0.061 A 
ATOM     25  C3  UNL     1      13.153   0.920  21.885  0.00  0.00    +0.048 A 
ATOM     26  C4  UNL     1      13.258   2.176  21.321  0.00  0.00    +0.044 A 
ATOM     27  C5  UNL     1      12.128   2.913  20.669  0.00  0.00    +0.066 C 
ATOM     28  N1  UNL     1      14.538   2.608  21.443  0.00  0.00    -0.219 N 
ATOM     29  N4  UNL     1      15.248   1.675  22.062  0.00  0.00    -0.170 NA
ENDBRANCH  17  28
ENDBRANCH   1  20
TORSDOF 4
ENDMDL
MODEL 8
REMARK VINA RESULT:    -6.422      9.924     11.319
REMARK INTER + INTRA:          -8.578
REMARK INTER:                  -7.718
REMARK INTRA:                  -0.860
REMARK UNBOUND:                -0.842
REMARK  Name = /home/qwerty/github/datacon2025hack/step_04_hit_selection/docking/ligands/lig_488.pdb
REMARK  6 active torsions:
REMARK  status: ('A' for Active; 'I' for Inactive)
REMARK    1  A    between atoms: C1_1  and  C2_2
REMARK    2  A    between atoms: C4_4  and  C5_5
REMARK    3  A    between atoms: N1_6  and  C6_7
REMARK    4  A    between atoms: C9_10  and  N2_11
REMARK    5  A    between atoms: C10_12  and  C11_14
REMARK    6  A    between atoms: C20_23  and  O2_24
REMARK                            x       y       z     vdW  Elec       q    Type
REMARK                         _______ _______ _______ _____ _____    ______ ____
ROOT
ATOM      1  N2  UNL     1      11.954   4.012  22.428  0.00  0.00    -0.280 N 
ATOM      2  C10 UNL     1      11.689   4.795  21.250  0.00  0.00    +0.252 C 
ATOM      3  O1  UNL     1      12.228   4.488  20.152  0.00  0.00    -0.270 OA
ATOM      4  H10 UNL     1      11.387   4.185  23.288  0.00  0.00    +0.155 HD
ENDROOT
BRANCH   2   5
ATOM      5  C11 UNL     1      10.762   5.951  21.301  0.00  0.00    +0.079 A 
ATOM      6  C12 UNL     1      11.117   7.110  22.015  0.00  0.00    +0.025 A 
ATOM      7  C13 UNL     1      10.245   8.206  22.079  0.00  0.00    -0.017 A 
ATOM      8  C14 UNL     1      10.600   9.363  22.792  0.00  0.00    +0.008 A 
ATOM      9  C15 UNL     1       9.722  10.448  22.851  0.00  0.00    +0.001 A 
ATOM     10  C16 UNL     1       8.486  10.389  22.202  0.00  0.00    +0.001 A 
ATOM     11  C17 UNL     1       8.119   9.242  21.491  0.00  0.00    +0.008 A 
ATOM     12  C18 UNL     1       8.993   8.145  21.425  0.00  0.00    -0.014 A 
ATOM     13  C19 UNL     1       8.635   6.989  20.721  0.00  0.00    +0.054 A 
ATOM     14  C20 UNL     1       9.509   5.895  20.655  0.00  0.00    +0.130 A 
BRANCH  14  15
ATOM     15  O2  UNL     1       9.140   4.759  19.936  0.00  0.00    -0.506 OA
ATOM     16  H17 UNL     1       9.735   3.939  19.891  0.00  0.00    +0.292 HD
ENDBRANCH  14  15
ENDBRANCH   2   5
BRANCH   1  20
ATOM     17  C6  UNL     1      14.705   0.800  22.634  0.00  0.00    +0.154 A 
ATOM     18  C7  UNL     1      15.140   2.097  22.956  0.00  0.00    +0.050 A 
ATOM     19  C8  UNL     1      14.242   3.164  22.888  0.00  0.00    +0.028 A 
ATOM     20  C9  UNL     1      12.916   2.944  22.484  0.00  0.00    +0.052 A 
ATOM     21  C21 UNL     1      12.515   1.635  22.197  0.00  0.00    +0.136 A 
ATOM     22  N3  UNL     1      13.407   0.612  22.271  0.00  0.00    -0.234 NA
BRANCH  17  28
ATOM     23  C1  UNL     1      17.261  -2.936  24.534  0.00  0.00    +0.067 C 
ATOM     24  C2  UNL     1      16.723  -1.979  23.524  0.00  0.00    +0.061 A 
ATOM     25  C3  UNL     1      17.128  -1.879  22.209  0.00  0.00    +0.048 A 
ATOM     26  C4  UNL     1      16.401  -0.816  21.710  0.00  0.00    +0.044 A 
ATOM     27  C5  UNL     1      16.494  -0.307  20.304  0.00  0.00    +0.066 C 
ATOM     28  N1  UNL     1      15.619  -0.315  22.699  0.00  0.00    -0.219 N 
ATOM     29  N4  UNL     1      15.822  -1.018  23.804  0.00  0.00    -0.170 NA
ENDBRANCH  17  28
ENDBRANCH   1  20
TORSDOF 4
ENDMDL
MODEL 9
REMARK VINA RESULT:    -6.401     13.038     14.241
REMARK INTER + INTRA:          -8.553
REMARK INTER:                  -7.714
REMARK INTRA:                  -0.838
REMARK UNBOUND:                -0.842
REMARK  Name = /home/qwerty/github/datacon2025hack/step_04_hit_selection/docking/ligands/lig_488.pdb
REMARK  6 active torsions:
REMARK  status: ('A' for Active; 'I' for Inactive)
REMARK    1  A    between atoms: C1_1  and  C2_2
REMARK    2  A    between atoms: C4_4  and  C5_5
REMARK    3  A    between atoms: N1_6  and  C6_7
REMARK    4  A    between atoms: C9_10  and  N2_11
REMARK    5  A    between atoms: C10_12  and  C11_14
REMARK    6  A    between atoms: C20_23  and  O2_24
REMARK                            x       y       z     vdW  Elec       q    Type
REMARK                         _______ _______ _______ _____ _____    ______ ____
ROOT
ATOM      1  N2  UNL     1      10.531  11.587  26.893  0.00  0.00    -0.280 N 
ATOM      2  C10 UNL     1       9.887  10.431  26.328  0.00  0.00    +0.252 C 
ATOM      3  O1  UNL     1       9.388   9.553  27.084  0.00  0.00    -0.270 OA
ATOM      4  H10 UNL     1      10.802  12.373  26.261  0.00  0.00    +0.155 HD
ENDROOT
BRANCH   2   5
ATOM      5  C11 UNL     1       9.775  10.267  24.859  0.00  0.00    +0.079 A 
ATOM      6  C12 UNL     1      10.921  10.354  24.049  0.00  0.00    +0.025 A 
ATOM      7  C13 UNL     1      10.826  10.211  22.657  0.00  0.00    -0.017 A 
ATOM      8  C14 UNL     1      11.971  10.299  21.849  0.00  0.00    +0.008 A 
ATOM      9  C15 UNL     1      11.864  10.157  20.463  0.00  0.00    +0.001 A 
ATOM     10  C16 UNL     1      10.618   9.928  19.873  0.00  0.00    +0.001 A 
ATOM     11  C17 UNL     1       9.471   9.841  20.666  0.00  0.00    +0.008 A 
ATOM     12  C18 UNL     1       9.565   9.983  22.060  0.00  0.00    -0.014 A 
ATOM     13  C19 UNL     1       8.422   9.903  22.864  0.00  0.00    +0.054 A 
ATOM     14  C20 UNL     1       8.519  10.043  24.256  0.00  0.00    +0.130 A 
BRANCH  14  15
ATOM     15  O2  UNL     1       7.369   9.946  25.041  0.00  0.00    -0.506 OA
ATOM     16  H17 UNL     1       6.459  10.220  24.689  0.00  0.00    +0.292 HD
ENDBRANCH  14  15
ENDBRANCH   2   5
BRANCH   1  20
ATOM     17  C6  UNL     1      11.199  12.225  31.024  0.00  0.00    +0.154 A 
ATOM     18  C7  UNL     1      12.116  11.451  30.293  0.00  0.00    +0.050 A 
ATOM     19  C8  UNL     1      11.903  11.231  28.931  0.00  0.00    +0.028 A 
ATOM     20  C9  UNL     1      10.771  11.768  28.299  0.00  0.00    +0.052 A 
ATOM     21  C21 UNL     1       9.895  12.554  29.056  0.00  0.00    +0.136 A 
ATOM     22  N3  UNL     1      10.124  12.755  30.381  0.00  0.00    -0.234 NA
BRANCH  17  28
ATOM     23  C1  UNL     1      11.377  11.341  35.850  0.00  0.00    +0.067 C 
ATOM     24  C2  UNL     1      11.512  12.069  34.555  0.00  0.00    +0.061 A 
ATOM     25  C3  UNL     1      11.833  13.402  34.407  0.00  0.00    +0.048 A 
ATOM     26  C4  UNL     1      11.763  13.619  33.045  0.00  0.00    +0.044 A 
ATOM     27  C5  UNL     1      12.029  14.934  32.378  0.00  0.00    +0.066 C 
ATOM     28  N1  UNL     1      11.403  12.463  32.433  0.00  0.00    -0.219 N 
ATOM     29  N4  UNL     1      11.242  11.522  33.354  0.00  0.00    -0.170 NA
ENDBRANCH  17  28
ENDBRANCH   1  20
TORSDOF 4
ENDMDL
