REMARK  Name = /home/qwerty/github/datacon2025hack/step_04_hit_selection/docking/ligands/lig_435.pdb
REMARK  5 active torsions:
REMARK  status: ('A' for Active; 'I' for Inactive)
REMARK    1  A    between atoms: C1_1  and  O1_2
REMARK    2  A    between atoms: O1_2  and  C2_3
REMARK    3  A    between atoms: C6_7  and  C7_8
REMARK    4  A    between atoms: N1_10  and  C8_11
REMARK    5  A    between atoms: C17_22  and  O5_23
REMARK                            x       y       z     vdW  Elec       q    Type
REMARK                         _______ _______ _______ _____ _____    ______ ____
ROOT
ATOM      1  C7  UNL     1       0.678  -1.065  -0.064  0.00  0.00    +0.252 C 
ATOM      2  O2  UNL     1       0.048  -2.121   0.218  0.00  0.00    -0.270 OA
ATOM      3  N1  UNL     1       0.132  -0.141  -1.019  0.00  0.00    -0.276 N 
ATOM      4  H7  UNL     1       0.801   0.452  -1.559  0.00  0.00    +0.155 HD
ENDROOT
BRANCH   3   5
ATOM      5  C8  UNL     1      -1.266  -0.081  -1.361  0.00  0.00    +0.120 A 
ATOM      6  C9  UNL     1      -2.260  -0.353  -0.410  0.00  0.00    +0.042 A 
ATOM      7  C10 UNL     1      -3.607  -0.260  -0.770  0.00  0.00    +0.019 A 
ATOM      8  C11 UNL     1      -4.633  -0.531   0.148  0.00  0.00    +0.011 A 
ATOM      9  C12 UNL     1      -5.970  -0.425  -0.250  0.00  0.00    +0.001 A 
ATOM     10  C13 UNL     1      -6.286  -0.049  -1.560  0.00  0.00    +0.004 A 
ATOM     11  C14 UNL     1      -5.268   0.225  -2.478  0.00  0.00    +0.047 A 
ATOM     12  C15 UNL     1      -3.927   0.122  -2.089  0.00  0.00    +0.139 A 
ATOM     13  O3  UNL     1      -2.961   0.389  -2.962  0.00  0.00    -0.421 OA
ATOM     14  C16 UNL     1      -1.669   0.309  -2.652  0.00  0.00    +0.359 A 
ATOM     15  O4  UNL     1      -0.810   0.578  -3.533  0.00  0.00    -0.243 OA
ENDBRANCH   3   5
BRANCH   1  20
ATOM     16  C2  UNL     1       3.750   0.664   1.394  0.00  0.00    +0.162 A 
ATOM     17  C3  UNL     1       4.556  -0.456   1.672  0.00  0.00    +0.049 A 
ATOM     18  C4  UNL     1       4.092  -1.743   1.404  0.00  0.00    +0.005 A 
ATOM     19  C5  UNL     1       2.828  -1.931   0.846  0.00  0.00    +0.017 A 
ATOM     20  C6  UNL     1       2.011  -0.831   0.540  0.00  0.00    +0.082 A 
ATOM     21  C17 UNL     1       2.470   0.473   0.835  0.00  0.00    +0.171 A 
BRANCH  16  23
ATOM     22  C1  UNL     1       5.448   2.305   2.227  0.00  0.00    +0.277 C 
ATOM     23  O1  UNL     1       4.184   1.972   1.663  0.00  0.00    -0.491 OA
ENDBRANCH  16  23
BRANCH  21  24
ATOM     24  O5  UNL     1       1.642   1.572   0.595  0.00  0.00    -0.503 OA
ATOM     25  H13 UNL     1       1.925   2.523   0.798  0.00  0.00    +0.292 HD
ENDBRANCH  21  24
ENDBRANCH   1  20
TORSDOF 4
