REMARK  Name = /home/qwerty/github/datacon2025hack/step_04_hit_selection/docking/ligands/lig_313.pdb
REMARK  11 active torsions:
REMARK  status: ('A' for Active; 'I' for Inactive)
REMARK    1  A    between atoms: C1_1  and  C2_2
REMARK    2  A    between atoms: C4_4  and  C5_5
REMARK    3  A    between atoms: N1_7  and  C6_8
REMARK    4  A    between atoms: C6_8  and  C7_9
REMARK    5  A    between atoms: C6_8  and  C8_10
REMARK    6  A    between atoms: C8_10  and  C9_11
REMARK    7  A    between atoms: C9_11  and  C10_12
REMARK    8  A    between atoms: C9_11  and  N2_13
REMARK    9  A    between atoms: C11_14  and  C12_16
REMARK   10  A    between atoms: C12_16  and  C13_17
REMARK   11  A    between atoms: C17_21  and  C18_22
REMARK                            x       y       z     vdW  Elec       q    Type
REMARK                         _______ _______ _______ _____ _____    ______ ____
ROOT
ATOM      1  C6  UNL     1      -0.885  -1.146   1.611  0.00  0.00    +0.072 C 
ATOM      2  C7  UNL     1      -0.814  -2.633   1.983  0.00  0.00    +0.028 C 
ENDROOT
BRANCH   1   5
ATOM      3  C5  UNL     1      -2.830   0.304   0.857  0.00  0.00    +0.248 C 
ATOM      4  O1  UNL     1      -2.388   1.282   1.520  0.00  0.00    -0.270 OA
ATOM      5  N1  UNL     1      -2.074  -0.915   0.788  0.00  0.00    -0.309 N 
ATOM      6  H5  UNL     1      -2.253  -1.567  -0.008  0.00  0.00    +0.149 HD
BRANCH   3  10
ATOM      7  C1  UNL     1      -6.788   2.297  -1.522  0.00  0.00    +0.086 C 
ATOM      8  C2  UNL     1      -5.837   1.327  -0.908  0.00  0.00    +0.103 A 
ATOM      9  C3  UNL     1      -4.647   1.653  -0.289  0.00  0.00    +0.057 A 
ATOM     10  C4  UNL     1      -4.106   0.453   0.130  0.00  0.00    +0.077 A 
ATOM     11  C17 UNL     1      -5.024  -0.527  -0.235  0.00  0.00    +0.114 A 
ATOM     12  C18 UNL     1      -4.939  -1.997   0.021  0.00  0.00    +0.087 C 
ATOM     13  O3  UNL     1      -6.037   0.030  -0.859  0.00  0.00    -0.464 OA
ENDBRANCH   3  10
ENDBRANCH   1   5
BRANCH   1  14
ATOM     14  C8  UNL     1       0.365  -0.675   0.833  0.00  0.00    +0.044 C 
BRANCH  14  15
ATOM     15  C9  UNL     1       1.677  -0.680   1.651  0.00  0.00    +0.072 C 
ATOM     16  C10 UNL     1       1.663   0.321   2.816  0.00  0.00    +0.028 C 
BRANCH  15  17
ATOM     17  N2  UNL     1       2.829  -0.433   0.773  0.00  0.00    -0.312 N 
ATOM     18  C11 UNL     1       3.045   0.781   0.026  0.00  0.00    +0.219 C 
ATOM     19  O2  UNL     1       2.251   1.752   0.163  0.00  0.00    -0.275 OA
ATOM     20  H16 UNL     1       3.527  -1.205   0.685  0.00  0.00    +0.149 HD
BRANCH  18  21
ATOM     21  C12 UNL     1       4.228   0.912  -0.923  0.00  0.00    +0.044 C 
ATOM     22  C13 UNL     1       4.274   2.263  -1.663  0.00  0.00    +0.021 C 
ATOM     23  C14 UNL     1       5.572   0.554  -0.273  0.00  0.00    +0.016 C 
ATOM     24  C15 UNL     1       5.715  -0.631  -1.224  0.00  0.00    +0.002 C 
ATOM     25  C16 UNL     1       4.381  -0.282  -1.877  0.00  0.00    +0.016 C 
ENDBRANCH  18  21
ENDBRANCH  15  17
ENDBRANCH  14  15
ENDBRANCH   1  14
TORSDOF 6
