REMARK  Name = /home/qwerty/github/datacon2025hack/step_04_hit_selection/docking/ligands/lig_608.pdb
REMARK  6 active torsions:
REMARK  status: ('A' for Active; 'I' for Inactive)
REMARK    1  A    between atoms: C1_1  and  C2_2
REMARK    2  A    between atoms: C2_2  and  C3_3
REMARK    3  A    between atoms: C2_2  and  C4_4
REMARK    4  A    between atoms: C10_12  and  N3_13
REMARK    5  A    between atoms: C15_20  and  C16_21
REMARK    6  A    between atoms: C17_24  and  C18_25
REMARK                            x       y       z     vdW  Elec       q    Type
REMARK                         _______ _______ _______ _____ _____    ______ ____
ROOT
ATOM      1  N3  UNL     1      -2.023  -0.241   0.199  0.00  0.00    -0.254 N 
ATOM      2  C11 UNL     1      -0.958  -0.853   0.945  0.00  0.00    +0.308 C 
ATOM      3  O1  UNL     1      -1.225  -1.438   2.030  0.00  0.00    -0.252 OA
ATOM      4  N4  UNL     1       0.409  -0.798   0.473  0.00  0.00    -0.285 N 
ATOM      5  C12 UNL     1       1.513  -1.256   1.334  0.00  0.00    +0.109 C 
ATOM      6  C13 UNL     1       2.455  -2.215   0.584  0.00  0.00    +0.020 C 
ATOM      7  C14 UNL     1       2.567  -1.927  -0.927  0.00  0.00    +0.014 C 
ATOM      8  C15 UNL     1       2.166  -0.488  -1.296  0.00  0.00    +0.076 C 
ATOM      9  C21 UNL     1       0.704  -0.243  -0.860  0.00  0.00    +0.120 C 
ATOM     10  H12 UNL     1      -1.803   0.504  -0.494  0.00  0.00    +0.158 HD
ENDROOT
BRANCH   1  19
ATOM     11  C4  UNL     1      -4.406   0.442   0.701  0.00  0.00    +0.085 A 
ATOM     12  N1  UNL     1      -5.582  -0.199   0.913  0.00  0.00    -0.231 NA
ATOM     13  C5  UNL     1      -5.259  -1.507   0.826  0.00  0.00    +0.139 A 
ATOM     14  C6  UNL     1      -6.149  -2.573   0.948  0.00  0.00    +0.047 A 
ATOM     15  C7  UNL     1      -5.640  -3.871   0.786  0.00  0.00    +0.005 A 
ATOM     16  C8  UNL     1      -4.276  -4.069   0.498  0.00  0.00    +0.018 A 
ATOM     17  C9  UNL     1      -3.426  -2.959   0.381  0.00  0.00    +0.094 A 
ATOM     18  N2  UNL     1      -3.955  -1.721   0.570  0.00  0.00    -0.287 N 
ATOM     19  C10 UNL     1      -3.401  -0.500   0.494  0.00  0.00    +0.134 A 
BRANCH  11  21
ATOM     20  C1  UNL     1      -4.167   2.490  -0.727  0.00  0.00    +0.014 C 
ATOM     21  C2  UNL     1      -4.294   1.948   0.699  0.00  0.00    +0.035 C 
ATOM     22  C3  UNL     1      -3.155   2.446   1.596  0.00  0.00    +0.014 C 
ENDBRANCH  11  21
ENDBRANCH   1  19
BRANCH   8  23
ATOM     23  C16 UNL     1       3.141   0.521  -0.731  0.00  0.00    +0.156 A 
ATOM     24  N5  UNL     1       2.781   1.663  -0.108  0.00  0.00    -0.157 NA
ATOM     25  N6  UNL     1       3.907   2.282   0.192  0.00  0.00    -0.262 N 
ATOM     26  C17 UNL     1       4.921   1.531  -0.265  0.00  0.00    +0.128 A 
ATOM     27  N7  UNL     1       4.483   0.402  -0.855  0.00  0.00    -0.216 NA
ATOM     28  H20 UNL     1       3.971   3.195   0.695  0.00  0.00    +0.190 HD
BRANCH  26  29
ATOM     29  C18 UNL     1       6.368   1.867  -0.079  0.00  0.00    +0.056 C 
ATOM     30  C19 UNL     1       7.179   1.905  -1.365  0.00  0.00    +0.012 C 
ATOM     31  C20 UNL     1       6.788   3.201  -0.675  0.00  0.00    +0.012 C 
ENDBRANCH  26  29
ENDBRANCH   8  23
TORSDOF 4
