REMARK  Name = /home/qwerty/github/datacon2025hack/step_04_hit_selection/docking/ligands/lig_410.pdb
REMARK  6 active torsions:
REMARK  status: ('A' for Active; 'I' for Inactive)
REMARK    1  A    between atoms: C1_1  and  C2_2
REMARK    2  A    between atoms: C4_4  and  N1_5
REMARK    3  A    between atoms: C5_6  and  C6_8
REMARK    4  A    between atoms: C8_10  and  C9_11
REMARK    5  A    between atoms: N2_17  and  C15_18
REMARK    6  A    between atoms: N4_25  and  C21_26
REMARK                            x       y       z     vdW  Elec       q    Type
REMARK                         _______ _______ _______ _____ _____    ______ ____
ROOT
ATOM      1  C6  UNL     1      -0.068  -0.822   0.324  0.00  0.00    +0.148 A 
ATOM      2  C7  UNL     1      -0.503   0.415  -0.120  0.00  0.00    +0.063 A 
ATOM      3  C8  UNL     1      -1.871   0.273  -0.249  0.00  0.00    +0.075 A 
ATOM      4  N2  UNL     1      -2.209  -0.996   0.087  0.00  0.00    -0.231 N 
ATOM      5  N3  UNL     1      -1.118  -1.660   0.438  0.00  0.00    -0.161 NA
ENDROOT
BRANCH   3   6
ATOM      6  C9  UNL     1      -2.804   1.368  -0.596  0.00  0.00    +0.000 A 
ATOM      7  C10 UNL     1      -4.003   1.544   0.117  0.00  0.00    +0.010 A 
ATOM      8  C11 UNL     1      -4.872   2.589  -0.211  0.00  0.00    +0.001 A 
ATOM      9  C12 UNL     1      -4.546   3.473  -1.243  0.00  0.00    +0.000 A 
ATOM     10  C13 UNL     1      -3.348   3.318  -1.944  0.00  0.00    +0.001 A 
ATOM     11  C14 UNL     1      -2.476   2.274  -1.620  0.00  0.00    +0.010 A 
ENDBRANCH   3   6
BRANCH   4  12
ATOM     12  C15 UNL     1      -3.502  -1.619   0.016  0.00  0.00    +0.066 A 
ATOM     13  C16 UNL     1      -4.348  -1.404  -1.086  0.00  0.00    +0.028 A 
ATOM     14  C17 UNL     1      -5.596  -2.031  -1.150  0.00  0.00    +0.002 A 
ATOM     15  C18 UNL     1      -6.003  -2.887  -0.124  0.00  0.00    +0.000 A 
ATOM     16  C19 UNL     1      -5.160  -3.124   0.965  0.00  0.00    +0.002 A 
ATOM     17  C20 UNL     1      -3.911  -2.498   1.032  0.00  0.00    +0.028 A 
ENDBRANCH   4  12
BRANCH   1  19
ATOM     18  N1  UNL     1       2.382  -0.250   0.598  0.00  0.00    -0.265 N 
ATOM     19  C5  UNL     1       1.318  -1.215   0.628  0.00  0.00    +0.269 C 
ATOM     20  O1  UNL     1       1.553  -2.411   0.949  0.00  0.00    -0.268 OA
ATOM     21  H5  UNL     1       2.131   0.762   0.637  0.00  0.00    +0.157 HD
BRANCH  18  25
ATOM     22  C1  UNL     1       6.753  -2.622   0.103  0.00  0.00    +0.067 C 
ATOM     23  C2  UNL     1       5.690  -1.618   0.399  0.00  0.00    +0.062 A 
ATOM     24  C3  UNL     1       4.329  -1.818   0.257  0.00  0.00    +0.068 A 
ATOM     25  C4  UNL     1       3.780  -0.592   0.586  0.00  0.00    +0.124 A 
ATOM     26  N4  UNL     1       4.775   0.277   0.859  0.00  0.00    -0.247 N 
ATOM     27  N5  UNL     1       5.941  -0.343   0.761  0.00  0.00    -0.175 NA
BRANCH  26  28
ATOM     28  C21 UNL     1       4.627   1.665   1.293  0.00  0.00    +0.109 C 
ATOM     29  C22 UNL     1       5.635   2.625   0.679  0.00  0.00    +0.029 C 
ATOM     30  C23 UNL     1       4.201   2.607   0.178  0.00  0.00    +0.029 C 
ENDBRANCH  26  28
ENDBRANCH  18  25
ENDBRANCH   1  19
TORSDOF 5
