MODEL 1
REMARK VINA RESULT:    -7.417      0.000      0.000
REMARK INTER + INTRA:          -9.316
REMARK INTER:                  -8.718
REMARK INTRA:                  -0.598
REMARK UNBOUND:                -0.598
REMARK  Name = /home/qwerty/github/datacon2025hack/step_04_hit_selection/docking/ligands/lig_47.pdb
REMARK  3 active torsions:
REMARK  status: ('A' for Active; 'I' for Inactive)
REMARK    1  A    between atoms: N1_3  and  C2_4
REMARK    2  A    between atoms: N2_12  and  C9_13
REMARK    3  A    between atoms: N3_17  and  C13_18
REMARK                            x       y       z     vdW  Elec       q    Type
REMARK                         _______ _______ _______ _____ _____    ______ ____
ROOT
ATOM      1  O1  UNL     1      15.988  12.004  35.401  0.00  0.00    -0.252 OA
ATOM      2  C1  UNL     1      16.180  12.642  36.473  0.00  0.00    +0.308 C 
ATOM      3  N1  UNL     1      17.497  12.723  37.040  0.00  0.00    -0.269 N 
ATOM      4  N3  UNL     1      15.099  13.356  37.090  0.00  0.00    -0.267 N 
ATOM      5  H1  UNL     1      17.681  13.483  37.734  0.00  0.00    +0.156 HD
ATOM      6  H12 UNL     1      15.338  14.104  37.778  0.00  0.00    +0.156 HD
ENDROOT
BRANCH   3   7
ATOM      7  C2  UNL     1      18.601  11.895  36.639  0.00  0.00    +0.036 A 
ATOM      8  C3  UNL     1      19.580  12.361  35.723  0.00  0.00    +0.024 A 
ATOM      9  C4  UNL     1      20.640  11.529  35.322  0.00  0.00    +0.008 A 
ATOM     10  C5  UNL     1      20.702  10.234  35.832  0.00  0.00    -0.018 A 
ATOM     11  C6  UNL     1      19.743   9.775  36.702  0.00  0.00    +0.043 A 
ATOM     12  C7  UNL     1      18.679  10.572  37.119  0.00  0.00    +0.036 A 
ATOM     13  C8  UNL     1      20.075   8.412  37.030  0.00  0.00    +0.248 C 
ATOM     14  O2  UNL     1      19.410   7.676  37.806  0.00  0.00    -0.270 OA
ATOM     15  N2  UNL     1      21.272   8.027  36.341  0.00  0.00    -0.290 N 
ATOM     16  C12 UNL     1      21.723   9.173  35.544  0.00  0.00    +0.144 C 
BRANCH  15  17
ATOM     17  C9  UNL     1      22.006   6.751  36.346  0.00  0.00    +0.077 C 
ATOM     18  C10 UNL     1      23.222   6.688  37.255  0.00  0.00    +0.024 C 
ATOM     19  C11 UNL     1      23.400   6.786  35.742  0.00  0.00    +0.024 C 
ENDBRANCH  15  17
ENDBRANCH   3   7
BRANCH   4  20
ATOM     20  C13 UNL     1      13.727  13.217  36.690  0.00  0.00    +0.073 A 
ATOM     21  C14 UNL     1      13.002  12.090  37.106  0.00  0.00    +0.064 A 
ATOM     22  C15 UNL     1      11.669  11.924  36.719  0.00  0.00    +0.125 A 
ATOM     23  F1  UNL     1      10.972  10.838  37.139  0.00  0.00    -0.205 F 
ATOM     24  C16 UNL     1      11.054  12.873  35.899  0.00  0.00    +0.041 A 
ATOM     25  C17 UNL     1      11.776  13.985  35.455  0.00  0.00    +0.043 A 
ATOM     26  C18 UNL     1      13.109  14.158  35.840  0.00  0.00    +0.145 A 
ATOM     27  F2  UNL     1      13.806  15.211  35.344  0.00  0.00    -0.204 F 
ENDBRANCH   4  20
TORSDOF 3
ENDMDL
MODEL 2
REMARK VINA RESULT:    -7.297     17.126     17.584
REMARK INTER + INTRA:          -9.174
REMARK INTER:                  -8.584
REMARK INTRA:                  -0.590
REMARK UNBOUND:                -0.598
REMARK  Name = /home/qwerty/github/datacon2025hack/step_04_hit_selection/docking/ligands/lig_47.pdb
REMARK  3 active torsions:
REMARK  status: ('A' for Active; 'I' for Inactive)
REMARK    1  A    between atoms: N1_3  and  C2_4
REMARK    2  A    between atoms: N2_12  and  C9_13
REMARK    3  A    between atoms: N3_17  and  C13_18
REMARK                            x       y       z     vdW  Elec       q    Type
REMARK                         _______ _______ _______ _____ _____    ______ ____
ROOT
ATOM      1  O1  UNL     1      11.429   6.231  21.573  0.00  0.00    -0.252 OA
ATOM      2  C1  UNL     1      10.885   6.000  20.458  0.00  0.00    +0.308 C 
ATOM      3  N1  UNL     1      11.269   4.849  19.691  0.00  0.00    -0.269 N 
ATOM      4  N3  UNL     1       9.823   6.841  19.987  0.00  0.00    -0.267 N 
ATOM      5  H1  UNL     1      10.614   4.521  18.946  0.00  0.00    +0.156 HD
ATOM      6  H12 UNL     1       9.198   6.466  19.239  0.00  0.00    +0.156 HD
ENDROOT
BRANCH   3   7
ATOM      7  C2  UNL     1      12.443   4.061  19.952  0.00  0.00    +0.036 A 
ATOM      8  C3  UNL     1      13.709   4.424  19.423  0.00  0.00    +0.024 A 
ATOM      9  C4  UNL     1      14.842   3.629  19.667  0.00  0.00    +0.008 A 
ATOM     10  C5  UNL     1      14.694   2.471  20.428  0.00  0.00    -0.018 A 
ATOM     11  C6  UNL     1      13.466   2.108  20.923  0.00  0.00    +0.043 A 
ATOM     12  C7  UNL     1      12.322   2.871  20.699  0.00  0.00    +0.036 A 
ATOM     13  C8  UNL     1      13.638   0.872  21.643  0.00  0.00    +0.248 C 
ATOM     14  O2  UNL     1      12.716   0.246  22.231  0.00  0.00    -0.270 OA
ATOM     15  N2  UNL     1      15.013   0.469  21.588  0.00  0.00    -0.290 N 
ATOM     16  C12 UNL     1      15.747   1.472  20.808  0.00  0.00    +0.144 C 
BRANCH  15  17
ATOM     17  C9  UNL     1      15.685  -0.709  22.162  0.00  0.00    +0.077 C 
ATOM     18  C10 UNL     1      17.077  -0.471  22.724  0.00  0.00    +0.024 C 
ATOM     19  C11 UNL     1      16.900  -1.215  21.402  0.00  0.00    +0.024 C 
ENDBRANCH  15  17
ENDBRANCH   3   7
BRANCH   4  20
ATOM     20  C13 UNL     1       9.469   8.091  20.601  0.00  0.00    +0.073 A 
ATOM     21  C14 UNL     1       8.466   8.114  21.581  0.00  0.00    +0.064 A 
ATOM     22  C15 UNL     1       8.094   9.320  22.184  0.00  0.00    +0.125 A 
ATOM     23  F1  UNL     1       7.133   9.331  23.141  0.00  0.00    -0.205 F 
ATOM     24  C16 UNL     1       8.709  10.514  21.799  0.00  0.00    +0.041 A 
ATOM     25  C17 UNL     1       9.689  10.506  20.803  0.00  0.00    +0.043 A 
ATOM     26  C18 UNL     1      10.067   9.303  20.198  0.00  0.00    +0.145 A 
ATOM     27  F2  UNL     1      10.975   9.330  19.189  0.00  0.00    -0.204 F 
ENDBRANCH   4  20
TORSDOF 3
ENDMDL
MODEL 3
REMARK VINA RESULT:    -7.186     17.164     17.840
REMARK INTER + INTRA:          -9.044
REMARK INTER:                  -8.422
REMARK INTRA:                  -0.622
REMARK UNBOUND:                -0.598
REMARK  Name = /home/qwerty/github/datacon2025hack/step_04_hit_selection/docking/ligands/lig_47.pdb
REMARK  3 active torsions:
REMARK  status: ('A' for Active; 'I' for Inactive)
REMARK    1  A    between atoms: N1_3  and  C2_4
REMARK    2  A    between atoms: N2_12  and  C9_13
REMARK    3  A    between atoms: N3_17  and  C13_18
REMARK                            x       y       z     vdW  Elec       q    Type
REMARK                         _______ _______ _______ _____ _____    ______ ____
ROOT
ATOM      1  O1  UNL     1      10.605   5.646  22.013  0.00  0.00    -0.252 OA
ATOM      2  C1  UNL     1      10.212   5.387  20.842  0.00  0.00    +0.308 C 
ATOM      3  N1  UNL     1      10.376   4.068  20.298  0.00  0.00    -0.269 N 
ATOM      4  N3  UNL     1       9.527   6.388  20.075  0.00  0.00    -0.267 N 
ATOM      5  H1  UNL     1       9.789   3.806  19.474  0.00  0.00    +0.156 HD
ATOM      6  H12 UNL     1       8.956   6.072  19.259  0.00  0.00    +0.156 HD
ENDROOT
BRANCH   3   7
ATOM      7  C2  UNL     1      11.217   3.056  20.878  0.00  0.00    +0.036 A 
ATOM      8  C3  UNL     1      10.724   2.163  21.865  0.00  0.00    +0.024 A 
ATOM      9  C4  UNL     1      11.566   1.194  22.438  0.00  0.00    +0.008 A 
ATOM     10  C5  UNL     1      12.897   1.138  22.027  0.00  0.00    -0.018 A 
ATOM     11  C6  UNL     1      13.379   2.016  21.088  0.00  0.00    +0.043 A 
ATOM     12  C7  UNL     1      12.573   2.989  20.500  0.00  0.00    +0.036 A 
ATOM     13  C8  UNL     1      14.775   1.716  20.892  0.00  0.00    +0.248 C 
ATOM     14  O2  UNL     1      15.539   2.326  20.098  0.00  0.00    -0.270 OA
ATOM     15  N2  UNL     1      15.157   0.622  21.737  0.00  0.00    -0.290 N 
ATOM     16  C12 UNL     1      13.974   0.207  22.501  0.00  0.00    +0.144 C 
BRANCH  15  17
ATOM     17  C9  UNL     1      16.457  -0.047  21.902  0.00  0.00    +0.077 C 
ATOM     18  C10 UNL     1      16.747  -1.183  20.936  0.00  0.00    +0.024 C 
ATOM     19  C11 UNL     1      16.407  -1.484  22.394  0.00  0.00    +0.024 C 
ENDBRANCH  15  17
ENDBRANCH   3   7
BRANCH   4  20
ATOM     20  C13 UNL     1       9.446   7.768  20.464  0.00  0.00    +0.073 A 
ATOM     21  C14 UNL     1      10.463   8.651  20.072  0.00  0.00    +0.064 A 
ATOM     22  C15 UNL     1      10.415   9.997  20.450  0.00  0.00    +0.125 A 
ATOM     23  F1  UNL     1      11.396  10.847  20.054  0.00  0.00    -0.205 F 
ATOM     24  C16 UNL     1       9.360  10.466  21.236  0.00  0.00    +0.041 A 
ATOM     25  C17 UNL     1       8.358   9.588  21.656  0.00  0.00    +0.043 A 
ATOM     26  C18 UNL     1       8.399   8.242  21.280  0.00  0.00    +0.145 A 
ATOM     27  F2  UNL     1       7.448   7.397  21.753  0.00  0.00    -0.204 F 
ENDBRANCH   4  20
TORSDOF 3
ENDMDL
MODEL 4
REMARK VINA RESULT:    -6.858      4.140      9.559
REMARK INTER + INTRA:          -8.658
REMARK INTER:                  -8.155
REMARK INTRA:                  -0.503
REMARK UNBOUND:                -0.598
REMARK  Name = /home/qwerty/github/datacon2025hack/step_04_hit_selection/docking/ligands/lig_47.pdb
REMARK  3 active torsions:
REMARK  status: ('A' for Active; 'I' for Inactive)
REMARK    1  A    between atoms: N1_3  and  C2_4
REMARK    2  A    between atoms: N2_12  and  C9_13
REMARK    3  A    between atoms: N3_17  and  C13_18
REMARK                            x       y       z     vdW  Elec       q    Type
REMARK                         _______ _______ _______ _____ _____    ______ ____
ROOT
ATOM      1  O1  UNL     1      20.408   8.334  35.094  0.00  0.00    -0.252 OA
ATOM      2  C1  UNL     1      21.167   8.748  36.013  0.00  0.00    +0.308 C 
ATOM      3  N1  UNL     1      20.628   9.493  37.116  0.00  0.00    -0.269 N 
ATOM      4  N3  UNL     1      22.561   8.411  36.001  0.00  0.00    -0.267 N 
ATOM      5  H1  UNL     1      21.204   9.558  37.985  0.00  0.00    +0.156 HD
ATOM      6  H12 UNL     1      23.092   8.496  36.897  0.00  0.00    +0.156 HD
ENDROOT
BRANCH   3   7
ATOM      7  C2  UNL     1      19.309  10.063  37.136  0.00  0.00    +0.036 A 
ATOM      8  C3  UNL     1      18.271   9.495  37.920  0.00  0.00    +0.024 A 
ATOM      9  C4  UNL     1      16.979  10.051  37.910  0.00  0.00    +0.008 A 
ATOM     10  C5  UNL     1      16.737  11.162  37.104  0.00  0.00    -0.018 A 
ATOM     11  C6  UNL     1      17.736  11.699  36.330  0.00  0.00    +0.043 A 
ATOM     12  C7  UNL     1      19.026  11.173  36.315  0.00  0.00    +0.036 A 
ATOM     13  C8  UNL     1      17.173  12.814  35.611  0.00  0.00    +0.248 C 
ATOM     14  O2  UNL     1      17.806  13.543  34.802  0.00  0.00    -0.270 OA
ATOM     15  N2  UNL     1      15.789  12.963  35.957  0.00  0.00    -0.290 N 
ATOM     16  C12 UNL     1      15.450  11.913  36.924  0.00  0.00    +0.144 C 
BRANCH  15  17
ATOM     17  C9  UNL     1      14.791  13.940  35.495  0.00  0.00    +0.077 C 
ATOM     18  C10 UNL     1      14.625  15.180  36.358  0.00  0.00    +0.024 C 
ATOM     19  C11 UNL     1      13.556  14.091  36.368  0.00  0.00    +0.024 C 
ENDBRANCH  15  17
ENDBRANCH   3   7
BRANCH   4  20
ATOM     20  C13 UNL     1      23.222   7.805  34.879  0.00  0.00    +0.073 A 
ATOM     21  C14 UNL     1      23.406   8.553  33.706  0.00  0.00    +0.064 A 
ATOM     22  C15 UNL     1      24.033   7.983  32.594  0.00  0.00    +0.125 A 
ATOM     23  F1  UNL     1      24.220   8.719  31.470  0.00  0.00    -0.205 F 
ATOM     24  C16 UNL     1      24.466   6.655  32.639  0.00  0.00    +0.041 A 
ATOM     25  C17 UNL     1      24.262   5.893  33.793  0.00  0.00    +0.043 A 
ATOM     26  C18 UNL     1      23.637   6.458  34.909  0.00  0.00    +0.145 A 
ATOM     27  F2  UNL     1      23.393   5.678  35.992  0.00  0.00    -0.204 F 
ENDBRANCH   4  20
TORSDOF 3
ENDMDL
MODEL 5
REMARK VINA RESULT:    -6.804      2.140      3.454
REMARK INTER + INTRA:          -8.595
REMARK INTER:                  -8.155
REMARK INTRA:                  -0.441
REMARK UNBOUND:                -0.598
REMARK  Name = /home/qwerty/github/datacon2025hack/step_04_hit_selection/docking/ligands/lig_47.pdb
REMARK  3 active torsions:
REMARK  status: ('A' for Active; 'I' for Inactive)
REMARK    1  A    between atoms: N1_3  and  C2_4
REMARK    2  A    between atoms: N2_12  and  C9_13
REMARK    3  A    between atoms: N3_17  and  C13_18
REMARK                            x       y       z     vdW  Elec       q    Type
REMARK                         _______ _______ _______ _____ _____    ______ ____
ROOT
ATOM      1  O1  UNL     1      17.482  11.355  35.444  0.00  0.00    -0.252 OA
ATOM      2  C1  UNL     1      17.928  11.811  36.533  0.00  0.00    +0.308 C 
ATOM      3  N1  UNL     1      19.176  11.336  37.060  0.00  0.00    -0.269 N 
ATOM      4  N3  UNL     1      17.229  12.864  37.212  0.00  0.00    -0.267 N 
ATOM      5  H1  UNL     1      19.657  11.925  37.776  0.00  0.00    +0.156 HD
ATOM      6  H12 UNL     1      17.755  13.421  37.922  0.00  0.00    +0.156 HD
ENDROOT
BRANCH   3   7
ATOM      7  C2  UNL     1      19.854  10.159  36.590  0.00  0.00    +0.036 A 
ATOM      8  C3  UNL     1      19.772   8.929  37.293  0.00  0.00    +0.024 A 
ATOM      9  C4  UNL     1      20.461   7.793  36.833  0.00  0.00    +0.008 A 
ATOM     10  C5  UNL     1      21.236   7.904  35.679  0.00  0.00    -0.018 A 
ATOM     11  C6  UNL     1      21.332   9.099  35.010  0.00  0.00    +0.043 A 
ATOM     12  C7  UNL     1      20.665  10.244  35.439  0.00  0.00    +0.036 A 
ATOM     13  C8  UNL     1      22.207   8.895  33.884  0.00  0.00    +0.248 C 
ATOM     14  O2  UNL     1      22.524   9.781  33.047  0.00  0.00    -0.270 OA
ATOM     15  N2  UNL     1      22.659   7.533  33.864  0.00  0.00    -0.290 N 
ATOM     16  C12 UNL     1      22.059   6.842  35.011  0.00  0.00    +0.144 C 
BRANCH  15  17
ATOM     17  C9  UNL     1      23.557   6.840  32.926  0.00  0.00    +0.077 C 
ATOM     18  C10 UNL     1      24.630   5.968  33.556  0.00  0.00    +0.024 C 
ATOM     19  C11 UNL     1      25.003   7.307  32.925  0.00  0.00    +0.024 C 
ENDBRANCH  15  17
ENDBRANCH   3   7
BRANCH   4  20
ATOM     20  C13 UNL     1      15.908  13.300  36.853  0.00  0.00    +0.073 A 
ATOM     21  C14 UNL     1      15.711  14.630  36.453  0.00  0.00    +0.064 A 
ATOM     22  C15 UNL     1      14.433  15.084  36.111  0.00  0.00    +0.125 A 
ATOM     23  F1  UNL     1      14.254  16.368  35.711  0.00  0.00    -0.205 F 
ATOM     24  C16 UNL     1      13.340  14.216  36.182  0.00  0.00    +0.041 A 
ATOM     25  C17 UNL     1      13.521  12.897  36.606  0.00  0.00    +0.043 A 
ATOM     26  C18 UNL     1      14.797  12.437  36.948  0.00  0.00    +0.145 A 
ATOM     27  F2  UNL     1      14.936  11.172  37.418  0.00  0.00    -0.204 F 
ENDBRANCH   4  20
TORSDOF 3
ENDMDL
MODEL 6
REMARK VINA RESULT:    -6.793     17.149     19.390
REMARK INTER + INTRA:          -8.583
REMARK INTER:                  -8.045
REMARK INTRA:                  -0.537
REMARK UNBOUND:                -0.598
REMARK  Name = /home/qwerty/github/datacon2025hack/step_04_hit_selection/docking/ligands/lig_47.pdb
REMARK  3 active torsions:
REMARK  status: ('A' for Active; 'I' for Inactive)
REMARK    1  A    between atoms: N1_3  and  C2_4
REMARK    2  A    between atoms: N2_12  and  C9_13
REMARK    3  A    between atoms: N3_17  and  C13_18
REMARK                            x       y       z     vdW  Elec       q    Type
REMARK                         _______ _______ _______ _____ _____    ______ ____
ROOT
ATOM      1  O1  UNL     1      14.792   1.610  22.565  0.00  0.00    -0.252 OA
ATOM      2  C1  UNL     1      14.259   0.685  21.891  0.00  0.00    +0.308 C 
ATOM      3  N1  UNL     1      13.361   0.998  20.816  0.00  0.00    -0.269 N 
ATOM      4  N3  UNL     1      14.610  -0.683  22.144  0.00  0.00    -0.267 N 
ATOM      5  H1  UNL     1      13.179   0.256  20.103  0.00  0.00    +0.156 HD
ATOM      6  H12 UNL     1      14.404  -1.386  21.399  0.00  0.00    +0.156 HD
ENDROOT
BRANCH   3   7
ATOM      7  C2  UNL     1      12.779   2.296  20.602  0.00  0.00    +0.036 A 
ATOM      8  C3  UNL     1      13.495   3.325  19.938  0.00  0.00    +0.024 A 
ATOM      9  C4  UNL     1      12.921   4.596  19.758  0.00  0.00    +0.008 A 
ATOM     10  C5  UNL     1      11.641   4.827  20.258  0.00  0.00    -0.018 A 
ATOM     11  C6  UNL     1      10.956   3.837  20.920  0.00  0.00    +0.043 A 
ATOM     12  C7  UNL     1      11.495   2.568  21.117  0.00  0.00    +0.036 A 
ATOM     13  C8  UNL     1       9.686   4.385  21.323  0.00  0.00    +0.248 C 
ATOM     14  O2  UNL     1       8.797   3.756  21.956  0.00  0.00    -0.270 OA
ATOM     15  N2  UNL     1       9.591   5.751  20.893  0.00  0.00    -0.290 N 
ATOM     16  C12 UNL     1      10.837   6.092  20.196  0.00  0.00    +0.144 C 
BRANCH  15  17
ATOM     17  C9  UNL     1       8.505   6.730  21.061  0.00  0.00    +0.077 C 
ATOM     18  C10 UNL     1       8.935   8.180  21.206  0.00  0.00    +0.024 C 
ATOM     19  C11 UNL     1       8.426   7.406  22.420  0.00  0.00    +0.024 C 
ENDBRANCH  15  17
ENDBRANCH   3   7
BRANCH   4  20
ATOM     20  C13 UNL     1      15.375  -1.108  23.283  0.00  0.00    +0.073 A 
ATOM     21  C14 UNL     1      14.766  -1.133  24.547  0.00  0.00    +0.064 A 
ATOM     22  C15 UNL     1      15.493  -1.530  25.674  0.00  0.00    +0.125 A 
ATOM     23  F1  UNL     1      14.893  -1.564  26.890  0.00  0.00    -0.205 F 
ATOM     24  C16 UNL     1      16.838  -1.888  25.550  0.00  0.00    +0.041 A 
ATOM     25  C17 UNL     1      17.461  -1.839  24.300  0.00  0.00    +0.043 A 
ATOM     26  C18 UNL     1      16.739  -1.445  23.168  0.00  0.00    +0.145 A 
ATOM     27  F2  UNL     1      17.384  -1.344  21.979  0.00  0.00    -0.204 F 
ENDBRANCH   4  20
TORSDOF 3
ENDMDL
MODEL 7
REMARK VINA RESULT:    -6.645     16.958     19.457
REMARK INTER + INTRA:          -8.408
REMARK INTER:                  -7.876
REMARK INTRA:                  -0.532
REMARK UNBOUND:                -0.598
REMARK  Name = /home/qwerty/github/datacon2025hack/step_04_hit_selection/docking/ligands/lig_47.pdb
REMARK  3 active torsions:
REMARK  status: ('A' for Active; 'I' for Inactive)
REMARK    1  A    between atoms: N1_3  and  C2_4
REMARK    2  A    between atoms: N2_12  and  C9_13
REMARK    3  A    between atoms: N3_17  and  C13_18
REMARK                            x       y       z     vdW  Elec       q    Type
REMARK                         _______ _______ _______ _____ _____    ______ ____
ROOT
ATOM      1  O1  UNL     1      13.258   2.718  22.286  0.00  0.00    -0.252 OA
ATOM      2  C1  UNL     1      12.848   2.083  21.276  0.00  0.00    +0.308 C 
ATOM      3  N1  UNL     1      11.738   2.578  20.512  0.00  0.00    -0.269 N 
ATOM      4  N3  UNL     1      13.537   0.903  20.839  0.00  0.00    -0.267 N 
ATOM      5  H1  UNL     1      11.616   2.213  19.540  0.00  0.00    +0.156 HD
ATOM      6  H12 UNL     1      13.378   0.580  19.858  0.00  0.00    +0.156 HD
ENDROOT
BRANCH   3   7
ATOM      7  C2  UNL     1      10.849   3.616  20.959  0.00  0.00    +0.036 A 
ATOM      8  C3  UNL     1       9.716   3.322  21.762  0.00  0.00    +0.024 A 
ATOM      9  C4  UNL     1       8.843   4.346  22.171  0.00  0.00    +0.008 A 
ATOM     10  C5  UNL     1       9.107   5.652  21.761  0.00  0.00    -0.018 A 
ATOM     11  C6  UNL     1      10.192   5.933  20.968  0.00  0.00    +0.043 A 
ATOM     12  C7  UNL     1      11.076   4.943  20.543  0.00  0.00    +0.036 A 
ATOM     13  C8  UNL     1      10.181   7.350  20.707  0.00  0.00    +0.248 C 
ATOM     14  O2  UNL     1      11.033   7.961  20.009  0.00  0.00    -0.270 OA
ATOM     15  N2  UNL     1       9.056   7.953  21.362  0.00  0.00    -0.290 N 
ATOM     16  C12 UNL     1       8.320   6.893  22.062  0.00  0.00    +0.144 C 
BRANCH  15  17
ATOM     17  C9  UNL     1       8.613   9.356  21.398  0.00  0.00    +0.077 C 
ATOM     18  C10 UNL     1       9.443  10.293  22.259  0.00  0.00    +0.024 C 
ATOM     19  C11 UNL     1       8.061   9.843  22.727  0.00  0.00    +0.024 C 
ENDBRANCH  15  17
ENDBRANCH   3   7
BRANCH   4  20
ATOM     20  C13 UNL     1      14.555   0.247  21.611  0.00  0.00    +0.073 A 
ATOM     21  C14 UNL     1      14.196  -0.422  22.791  0.00  0.00    +0.064 A 
ATOM     22  C15 UNL     1      15.170  -1.057  23.568  0.00  0.00    +0.125 A 
ATOM     23  F1  UNL     1      14.811  -1.713  24.700  0.00  0.00    -0.205 F 
ATOM     24  C16 UNL     1      16.512  -1.013  23.182  0.00  0.00    +0.041 A 
ATOM     25  C17 UNL     1      16.884  -0.325  22.024  0.00  0.00    +0.043 A 
ATOM     26  C18 UNL     1      15.914   0.310  21.241  0.00  0.00    +0.145 A 
ATOM     27  F2  UNL     1      16.309   1.025  20.157  0.00  0.00    -0.204 F 
ENDBRANCH   4  20
TORSDOF 3
ENDMDL
MODEL 8
REMARK VINA RESULT:    -6.626      1.426      2.667
REMARK INTER + INTRA:          -8.386
REMARK INTER:                  -7.830
REMARK INTRA:                  -0.557
REMARK UNBOUND:                -0.598
REMARK  Name = /home/qwerty/github/datacon2025hack/step_04_hit_selection/docking/ligands/lig_47.pdb
REMARK  3 active torsions:
REMARK  status: ('A' for Active; 'I' for Inactive)
REMARK    1  A    between atoms: N1_3  and  C2_4
REMARK    2  A    between atoms: N2_12  and  C9_13
REMARK    3  A    between atoms: N3_17  and  C13_18
REMARK                            x       y       z     vdW  Elec       q    Type
REMARK                         _______ _______ _______ _____ _____    ______ ____
ROOT
ATOM      1  O1  UNL     1      15.432  11.234  35.740  0.00  0.00    -0.252 OA
ATOM      2  C1  UNL     1      15.469  11.822  36.856  0.00  0.00    +0.308 C 
ATOM      3  N1  UNL     1      16.562  11.592  37.759  0.00  0.00    -0.269 N 
ATOM      4  N3  UNL     1      14.462  12.785  37.197  0.00  0.00    -0.267 N 
ATOM      5  H1  UNL     1      16.724  12.295  38.515  0.00  0.00    +0.156 HD
ATOM      6  H12 UNL     1      14.673  13.464  37.962  0.00  0.00    +0.156 HD
ENDROOT
BRANCH   3   7
ATOM      7  C2  UNL     1      17.506  10.516  37.625  0.00  0.00    +0.036 A 
ATOM      8  C3  UNL     1      17.314   9.279  38.294  0.00  0.00    +0.024 A 
ATOM      9  C4  UNL     1      18.259   8.245  38.171  0.00  0.00    +0.008 A 
ATOM     10  C5  UNL     1      19.393   8.465  37.392  0.00  0.00    -0.018 A 
ATOM     11  C6  UNL     1      19.589   9.670  36.762  0.00  0.00    +0.043 A 
ATOM     12  C7  UNL     1      18.674  10.716  36.863  0.00  0.00    +0.036 A 
ATOM     13  C8  UNL     1      20.843   9.590  36.058  0.00  0.00    +0.248 C 
ATOM     14  O2  UNL     1      21.343  10.518  35.368  0.00  0.00    -0.270 OA
ATOM     15  N2  UNL     1      21.431   8.298  36.263  0.00  0.00    -0.290 N 
ATOM     16  C12 UNL     1      20.531   7.524  37.125  0.00  0.00    +0.144 C 
BRANCH  15  17
ATOM     17  C9  UNL     1      22.695   7.735  35.760  0.00  0.00    +0.077 C 
ATOM     18  C10 UNL     1      22.636   6.293  35.282  0.00  0.00    +0.024 C 
ATOM     19  C11 UNL     1      23.314   6.635  36.607  0.00  0.00    +0.024 C 
ENDBRANCH  15  17
ENDBRANCH   3   7
BRANCH   4  20
ATOM     20  C13 UNL     1      13.258  12.975  36.437  0.00  0.00    +0.073 A 
ATOM     21  C14 UNL     1      13.248  13.909  35.390  0.00  0.00    +0.064 A 
ATOM     22  C15 UNL     1      12.085  14.124  34.644  0.00  0.00    +0.125 A 
ATOM     23  F1  UNL     1      12.089  15.018  33.624  0.00  0.00    -0.205 F 
ATOM     24  C16 UNL     1      10.917  13.419  34.949  0.00  0.00    +0.041 A 
ATOM     25  C17 UNL     1      10.909  12.507  36.008  0.00  0.00    +0.043 A 
ATOM     26  C18 UNL     1      12.070  12.287  36.757  0.00  0.00    +0.145 A 
ATOM     27  F2  UNL     1      12.017  11.445  37.820  0.00  0.00    -0.204 F 
ENDBRANCH   4  20
TORSDOF 3
ENDMDL
MODEL 9
REMARK VINA RESULT:    -6.571     16.956     17.569
REMARK INTER + INTRA:          -8.322
REMARK INTER:                  -7.802
REMARK INTRA:                  -0.520
REMARK UNBOUND:                -0.598
REMARK  Name = /home/qwerty/github/datacon2025hack/step_04_hit_selection/docking/ligands/lig_47.pdb
REMARK  3 active torsions:
REMARK  status: ('A' for Active; 'I' for Inactive)
REMARK    1  A    between atoms: N1_3  and  C2_4
REMARK    2  A    between atoms: N2_12  and  C9_13
REMARK    3  A    between atoms: N3_17  and  C13_18
REMARK                            x       y       z     vdW  Elec       q    Type
REMARK                         _______ _______ _______ _____ _____    ______ ____
ROOT
ATOM      1  O1  UNL     1      11.649   4.197  22.081  0.00  0.00    -0.252 OA
ATOM      2  C1  UNL     1      11.239   3.736  20.981  0.00  0.00    +0.308 C 
ATOM      3  N1  UNL     1      11.787   2.517  20.457  0.00  0.00    -0.269 N 
ATOM      4  N3  UNL     1      10.165   4.385  20.284  0.00  0.00    -0.267 N 
ATOM      5  H1  UNL     1      11.238   2.012  19.726  0.00  0.00    +0.156 HD
ATOM      6  H12 UNL     1       9.649   3.836  19.561  0.00  0.00    +0.156 HD
ENDROOT
BRANCH   3   7
ATOM      7  C2  UNL     1      12.989   1.897  20.947  0.00  0.00    +0.036 A 
ATOM      8  C3  UNL     1      14.212   1.990  20.233  0.00  0.00    +0.024 A 
ATOM      9  C4  UNL     1      15.371   1.358  20.713  0.00  0.00    +0.008 A 
ATOM     10  C5  UNL     1      15.292   0.628  21.898  0.00  0.00    -0.018 A 
ATOM     11  C6  UNL     1      14.103   0.520  22.578  0.00  0.00    +0.043 A 
ATOM     12  C7  UNL     1      12.935   1.132  22.129  0.00  0.00    +0.036 A 
ATOM     13  C8  UNL     1      14.342  -0.301  23.737  0.00  0.00    +0.248 C 
ATOM     14  O2  UNL     1      13.470  -0.612  24.592  0.00  0.00    -0.270 OA
ATOM     15  N2  UNL     1      15.718  -0.707  23.767  0.00  0.00    -0.290 N 
ATOM     16  C12 UNL     1      16.383  -0.133  22.592  0.00  0.00    +0.144 C 
BRANCH  15  17
ATOM     17  C9  UNL     1      16.444  -1.543  24.736  0.00  0.00    +0.077 C 
ATOM     18  C10 UNL     1      17.347  -2.613  24.145  0.00  0.00    +0.024 C 
ATOM     19  C11 UNL     1      16.024  -3.003  24.800  0.00  0.00    +0.024 C 
ENDBRANCH  15  17
ENDBRANCH   3   7
BRANCH   4  20
ATOM     20  C13 UNL     1       9.655   5.679  20.643  0.00  0.00    +0.073 A 
ATOM     21  C14 UNL     1      10.347   6.827  20.231  0.00  0.00    +0.064 A 
ATOM     22  C15 UNL     1       9.879   8.098  20.579  0.00  0.00    +0.125 A 
ATOM     23  F1  UNL     1      10.547   9.204  20.164  0.00  0.00    -0.205 F 
ATOM     24  C16 UNL     1       8.724   8.231  21.355  0.00  0.00    +0.041 A 
ATOM     25  C17 UNL     1       8.043   7.093  21.794  0.00  0.00    +0.043 A 
ATOM     26  C18 UNL     1       8.506   5.819  21.448  0.00  0.00    +0.145 A 
ATOM     27  F2  UNL     1       7.863   4.730  21.941  0.00  0.00    -0.204 F 
ENDBRANCH   4  20
TORSDOF 3
ENDMDL
