REMARK  Name = /home/qwerty/github/datacon2025hack/step_04_hit_selection/docking/ligands/lig_574.pdb
REMARK  5 active torsions:
REMARK  status: ('A' for Active; 'I' for Inactive)
REMARK    1  A    between atoms: C1_1  and  C2_2
REMARK    2  A    between atoms: C2_2  and  C3_3
REMARK    3  A    between atoms: C2_2  and  C4_4
REMARK    4  A    between atoms: C7_9  and  C8_10
REMARK    5  A    between atoms: N2_12  and  C9_13
REMARK                            x       y       z     vdW  Elec       q    Type
REMARK                         _______ _______ _______ _____ _____    ______ ____
ROOT
ATOM      1  C8  UNL     1       0.322   0.653  -0.085  0.00  0.00    +0.220 C 
ATOM      2  O2  UNL     1       0.900   1.774  -0.073  0.00  0.00    -0.275 OA
ATOM      3  N2  UNL     1       1.047  -0.533  -0.451  0.00  0.00    -0.285 N 
ATOM      4  H13 UNL     1       0.501  -1.383  -0.720  0.00  0.00    +0.155 HD
ENDROOT
BRANCH   3   5
ATOM      5  C9  UNL     1       2.479  -0.595  -0.561  0.00  0.00    +0.034 A 
ATOM      6  C10 UNL     1       3.056  -1.418  -1.529  0.00  0.00    +0.027 A 
ATOM      7  C11 UNL     1       4.440  -1.510  -1.640  0.00  0.00    +0.048 A 
ATOM      8  C12 UNL     1       5.289  -0.800  -0.780  0.00  0.00    +0.133 A 
ATOM      9  C13 UNL     1       4.718   0.032   0.230  0.00  0.00    +0.080 A 
ATOM     10  C14 UNL     1       3.312   0.105   0.325  0.00  0.00    +0.040 A 
ATOM     11  C15 UNL     1       5.498   0.816   1.231  0.00  0.00    +0.248 C 
ATOM     12  O3  UNL     1       5.009   0.984   2.383  0.00  0.00    -0.270 OA
ATOM     13  N3  UNL     1       6.749   1.448   0.935  0.00  0.00    -0.308 N 
ATOM     14  C16 UNL     1       7.568   1.107  -0.215  0.00  0.00    +0.145 C 
ATOM     15  C17 UNL     1       7.737  -0.402  -0.278  0.00  0.00    +0.247 C 
ATOM     16  O4  UNL     1       6.664  -0.988  -0.999  0.00  0.00    -0.490 OA
ATOM     17  H17 UNL     1       7.156   2.095   1.648  0.00  0.00    +0.149 HD
ENDBRANCH   3   5
BRANCH   1  23
ATOM     18  C4  UNL     1      -5.085  -0.444   1.107  0.00  0.00    +0.218 C 
ATOM     19  O1  UNL     1      -5.265  -0.909   2.267  0.00  0.00    -0.275 OA
ATOM     20  N1  UNL     1      -3.762  -0.485   0.516  0.00  0.00    -0.301 N 
ATOM     21  C5  UNL     1      -3.463   0.248  -0.728  0.00  0.00    +0.108 C 
ATOM     22  C6  UNL     1      -1.960   0.257  -1.043  0.00  0.00    +0.032 C 
ATOM     23  C7  UNL     1      -1.153   0.586   0.225  0.00  0.00    +0.078 C 
ATOM     24  C18 UNL     1      -1.447  -0.399   1.390  0.00  0.00    +0.032 C 
ATOM     25  C19 UNL     1      -2.689  -1.271   1.149  0.00  0.00    +0.108 C 
BRANCH  18  27
ATOM     26  C1  UNL     1      -7.520  -0.670   0.529  0.00  0.00    +0.017 C 
ATOM     27  C2  UNL     1      -6.263   0.201   0.403  0.00  0.00    +0.069 C 
ATOM     28  C3  UNL     1      -6.514   1.599   0.976  0.00  0.00    +0.017 C 
ENDBRANCH  18  27
ENDBRANCH   1  23
TORSDOF 3
