MODEL 1
REMARK VINA RESULT:    -7.318      0.000      0.000
REMARK INTER + INTRA:         -12.348
REMARK INTER:                 -11.168
REMARK INTRA:                  -1.181
REMARK UNBOUND:                -1.181
REMARK  Name = /home/qwerty/github/datacon2025hack/step_04_hit_selection/docking/ligands/lig_626.pdb
REMARK  11 active torsions:
REMARK  status: ('A' for Active; 'I' for Inactive)
REMARK    1  A    between atoms: C1_1  and  O1_2
REMARK    2  A    between atoms: O1_2  and  C2_3
REMARK    3  A    between atoms: C5_6  and  S1_7
REMARK    4  A    between atoms: S1_7  and  N1_10
REMARK    5  A    between atoms: C11_17  and  N2_18
REMARK    6  A    between atoms: C12_19  and  C13_21
REMARK    7  A    between atoms: C13_21  and  N3_22
REMARK    8  A    between atoms: N3_22  and  C14_23
REMARK    9  A    between atoms: N3_22  and  S2_30
REMARK   10  A    between atoms: S2_30  and  C20_33
REMARK   11  A    between atoms: C23_36  and  C24_37
REMARK                            x       y       z     vdW  Elec       q    Type
REMARK                         _______ _______ _______ _____ _____    ______ ____
ROOT
ATOM      1  N2  UNL     1       7.178   8.184  27.886  0.00  0.00    -0.281 N 
ATOM      2  C12 UNL     1       8.071   8.985  28.678  0.00  0.00    +0.236 C 
ATOM      3  O5  UNL     1       9.161   8.511  29.100  0.00  0.00    -0.274 OA
ATOM      4  H15 UNL     1       6.211   8.551  27.733  0.00  0.00    +0.155 HD
ENDROOT
BRANCH   1  10
ATOM      5  C2  UNL     1       6.987   5.758  28.283  0.00  0.00    +0.141 A 
ATOM      6  C3  UNL     1       7.275   4.433  27.898  0.00  0.00    +0.049 A 
ATOM      7  C4  UNL     1       8.010   4.176  26.739  0.00  0.00    +0.032 A 
ATOM      8  C5  UNL     1       8.452   5.235  25.937  0.00  0.00    +0.107 A 
ATOM      9  C10 UNL     1       8.160   6.553  26.305  0.00  0.00    +0.055 A 
ATOM     10  C11 UNL     1       7.457   6.827  27.492  0.00  0.00    +0.077 A 
BRANCH   8  11
ATOM     11  S1  UNL     1       9.352   4.936  24.452  0.00  0.00    +0.061 S 
ATOM     12  O2  UNL     1       9.493   6.244  23.725  0.00  0.00    -0.153 OA
ATOM     13  O3  UNL     1      10.727   4.416  24.770  0.00  0.00    -0.153 OA
BRANCH  11  14
ATOM     14  N1  UNL     1       8.460   3.797  23.466  0.00  0.00    -0.172 NA
ATOM     15  C6  UNL     1       9.280   3.229  22.378  0.00  0.00    +0.137 C 
ATOM     16  C7  UNL     1       9.338   4.149  21.147  0.00  0.00    +0.177 C 
ATOM     17  O4  UNL     1       8.040   4.492  20.708  0.00  0.00    -0.377 OA
ATOM     18  C8  UNL     1       7.380   5.221  21.721  0.00  0.00    +0.177 C 
ATOM     19  C9  UNL     1       7.187   4.354  22.974  0.00  0.00    +0.137 C 
ENDBRANCH  11  14
ENDBRANCH   8  11
BRANCH   5  21
ATOM     20  C1  UNL     1       5.805   5.078  30.385  0.00  0.00    +0.277 C 
ATOM     21  O1  UNL     1       6.244   6.048  29.440  0.00  0.00    -0.493 OA
ENDBRANCH   5  21
ENDBRANCH   1  10
BRANCH   2  22
ATOM     22  C13 UNL     1       7.681  10.373  29.084  0.00  0.00    +0.227 C 
BRANCH  22  23
ATOM     23  N3  UNL     1       8.232  11.339  28.134  0.00  0.00    -0.194 N 
BRANCH  23  24
ATOM     24  C14 UNL     1       8.874  10.891  26.932  0.00  0.00    +0.052 A 
ATOM     25  C15 UNL     1       8.101  10.502  25.826  0.00  0.00    +0.026 A 
ATOM     26  C16 UNL     1       8.724  10.071  24.650  0.00  0.00    +0.022 A 
ATOM     27  C17 UNL     1      10.120  10.024  24.572  0.00  0.00    +0.041 A 
ATOM     28 CL1  UNL     1      10.900   9.484  23.094  0.00  0.00    -0.084 Cl
ATOM     29  C18 UNL     1      10.895  10.408  25.673  0.00  0.00    +0.022 A 
ATOM     30  C19 UNL     1      10.275  10.843  26.849  0.00  0.00    +0.026 A 
ENDBRANCH  23  24
BRANCH  23  31
ATOM     31  S2  UNL     1       8.153  13.037  28.501  0.00  0.00    +0.075 S 
ATOM     32  O6  UNL     1       7.612  13.787  27.312  0.00  0.00    -0.150 OA
ATOM     33  O7  UNL     1       7.244  13.276  29.678  0.00  0.00    -0.150 OA
BRANCH  31  34
ATOM     34  C20 UNL     1       9.766  13.597  28.913  0.00  0.00    +0.109 A 
ATOM     35  C21 UNL     1      10.594  14.186  27.946  0.00  0.00    +0.029 A 
ATOM     36  C22 UNL     1      11.886  14.604  28.289  0.00  0.00    +0.005 A 
ATOM     37  C23 UNL     1      12.365  14.420  29.596  0.00  0.00    -0.050 A 
ATOM     38  C24 UNL     1      13.733  14.901  29.976  0.00  0.00    +0.044 C 
ATOM     39  C25 UNL     1      11.528  13.838  30.563  0.00  0.00    +0.005 A 
ATOM     40  C26 UNL     1      10.239  13.424  30.220  0.00  0.00    +0.029 A 
ENDBRANCH  31  34
ENDBRANCH  23  31
ENDBRANCH  22  23
ENDBRANCH   2  22
TORSDOF 9
ENDMDL
MODEL 2
REMARK VINA RESULT:    -7.293     13.051     16.422
REMARK INTER + INTRA:         -12.311
REMARK INTER:                 -10.654
REMARK INTRA:                  -1.658
REMARK UNBOUND:                -1.181
REMARK  Name = /home/qwerty/github/datacon2025hack/step_04_hit_selection/docking/ligands/lig_626.pdb
REMARK  11 active torsions:
REMARK  status: ('A' for Active; 'I' for Inactive)
REMARK    1  A    between atoms: C1_1  and  O1_2
REMARK    2  A    between atoms: O1_2  and  C2_3
REMARK    3  A    between atoms: C5_6  and  S1_7
REMARK    4  A    between atoms: S1_7  and  N1_10
REMARK    5  A    between atoms: C11_17  and  N2_18
REMARK    6  A    between atoms: C12_19  and  C13_21
REMARK    7  A    between atoms: C13_21  and  N3_22
REMARK    8  A    between atoms: N3_22  and  C14_23
REMARK    9  A    between atoms: N3_22  and  S2_30
REMARK   10  A    between atoms: S2_30  and  C20_33
REMARK   11  A    between atoms: C23_36  and  C24_37
REMARK                            x       y       z     vdW  Elec       q    Type
REMARK                         _______ _______ _______ _____ _____    ______ ____
ROOT
ATOM      1  N2  UNL     1      22.418   4.310  33.842  0.00  0.00    -0.281 N 
ATOM      2  C12 UNL     1      22.353   4.228  32.408  0.00  0.00    +0.236 C 
ATOM      3  O5  UNL     1      22.117   5.253  31.713  0.00  0.00    -0.274 OA
ATOM      4  H15 UNL     1      22.416   3.411  34.375  0.00  0.00    +0.155 HD
ENDROOT
BRANCH   1  10
ATOM      5  C2  UNL     1      23.370   6.380  34.787  0.00  0.00    +0.141 A 
ATOM      6  C3  UNL     1      23.207   7.572  35.521  0.00  0.00    +0.049 A 
ATOM      7  C4  UNL     1      21.956   7.925  36.032  0.00  0.00    +0.032 A 
ATOM      8  C5  UNL     1      20.846   7.103  35.803  0.00  0.00    +0.107 A 
ATOM      9  C10 UNL     1      20.996   5.924  35.064  0.00  0.00    +0.055 A 
ATOM     10  C11 UNL     1      22.258   5.536  34.580  0.00  0.00    +0.077 A 
BRANCH   8  11
ATOM     11  S1  UNL     1      19.250   7.543  36.408  0.00  0.00    +0.061 S 
ATOM     12  O2  UNL     1      18.227   7.025  35.435  0.00  0.00    -0.153 OA
ATOM     13  O3  UNL     1      19.004   6.902  37.746  0.00  0.00    -0.153 OA
BRANCH  11  14
ATOM     14  N1  UNL     1      19.144   9.287  36.516  0.00  0.00    -0.172 NA
ATOM     15  C6  UNL     1      18.771   9.747  37.868  0.00  0.00    +0.137 C 
ATOM     16  C7  UNL     1      17.251   9.705  38.102  0.00  0.00    +0.177 C 
ATOM     17  O4  UNL     1      16.562  10.414  37.093  0.00  0.00    -0.377 OA
ATOM     18  C8  UNL     1      16.792   9.794  35.845  0.00  0.00    +0.177 C 
ATOM     19  C9  UNL     1      18.280   9.865  35.471  0.00  0.00    +0.137 C 
ENDBRANCH  11  14
ENDBRANCH   8  11
BRANCH   5  21
ATOM     20  C1  UNL     1      25.181   6.537  33.065  0.00  0.00    +0.277 C 
ATOM     21  O1  UNL     1      24.614   6.002  34.254  0.00  0.00    -0.493 OA
ENDBRANCH   5  21
ENDBRANCH   1  10
BRANCH   2  22
ATOM     22  C13 UNL     1      22.483   2.903  31.722  0.00  0.00    +0.227 C 
BRANCH  22  23
ATOM     23  N3  UNL     1      21.156   2.398  31.367  0.00  0.00    -0.194 N 
BRANCH  23  24
ATOM     24  C14 UNL     1      20.046   2.588  32.255  0.00  0.00    +0.052 A 
ATOM     25  C15 UNL     1      19.899   1.766  33.384  0.00  0.00    +0.026 A 
ATOM     26  C16 UNL     1      18.821   1.953  34.255  0.00  0.00    +0.022 A 
ATOM     27  C17 UNL     1      17.882   2.958  34.003  0.00  0.00    +0.041 A 
ATOM     28 CL1  UNL     1      16.530   3.192  35.099  0.00  0.00    -0.084 Cl
ATOM     29  C18 UNL     1      18.021   3.778  32.876  0.00  0.00    +0.022 A 
ATOM     30  C19 UNL     1      19.100   3.597  32.006  0.00  0.00    +0.026 A 
ENDBRANCH  23  24
BRANCH  23  31
ATOM     31  S2  UNL     1      20.947   1.515  29.884  0.00  0.00    +0.075 S 
ATOM     32  O6  UNL     1      21.783   0.263  29.918  0.00  0.00    -0.150 OA
ATOM     33  O7  UNL     1      19.503   1.129  29.704  0.00  0.00    -0.150 OA
BRANCH  31  34
ATOM     34  C20 UNL     1      21.424   2.550  28.545  0.00  0.00    +0.109 A 
ATOM     35  C21 UNL     1      22.196   2.050  27.487  0.00  0.00    +0.029 A 
ATOM     36  C22 UNL     1      22.585   2.895  26.441  0.00  0.00    +0.005 A 
ATOM     37  C23 UNL     1      22.220   4.252  26.457  0.00  0.00    -0.050 A 
ATOM     38  C24 UNL     1      22.604   5.152  25.320  0.00  0.00    +0.044 C 
ATOM     39  C25 UNL     1      21.439   4.745  27.515  0.00  0.00    +0.005 A 
ATOM     40  C26 UNL     1      21.049   3.900  28.556  0.00  0.00    +0.029 A 
ENDBRANCH  31  34
ENDBRANCH  23  31
ENDBRANCH  22  23
ENDBRANCH   2  22
TORSDOF 9
ENDMDL
MODEL 3
REMARK VINA RESULT:    -7.291     12.594     15.532
REMARK INTER + INTRA:         -12.307
REMARK INTER:                 -10.103
REMARK INTRA:                  -2.204
REMARK UNBOUND:                -1.181
REMARK  Name = /home/qwerty/github/datacon2025hack/step_04_hit_selection/docking/ligands/lig_626.pdb
REMARK  11 active torsions:
REMARK  status: ('A' for Active; 'I' for Inactive)
REMARK    1  A    between atoms: C1_1  and  O1_2
REMARK    2  A    between atoms: O1_2  and  C2_3
REMARK    3  A    between atoms: C5_6  and  S1_7
REMARK    4  A    between atoms: S1_7  and  N1_10
REMARK    5  A    between atoms: C11_17  and  N2_18
REMARK    6  A    between atoms: C12_19  and  C13_21
REMARK    7  A    between atoms: C13_21  and  N3_22
REMARK    8  A    between atoms: N3_22  and  C14_23
REMARK    9  A    between atoms: N3_22  and  S2_30
REMARK   10  A    between atoms: S2_30  and  C20_33
REMARK   11  A    between atoms: C23_36  and  C24_37
REMARK                            x       y       z     vdW  Elec       q    Type
REMARK                         _______ _______ _______ _____ _____    ______ ____
ROOT
ATOM      1  N2  UNL     1      20.829   1.841  30.018  0.00  0.00    -0.281 N 
ATOM      2  C12 UNL     1      21.971   1.316  29.320  0.00  0.00    +0.236 C 
ATOM      3  O5  UNL     1      23.122   1.375  29.831  0.00  0.00    -0.274 OA
ATOM      4  H15 UNL     1      19.942   1.950  29.475  0.00  0.00    +0.155 HD
ENDROOT
BRANCH   1  10
ATOM      5  C2  UNL     1      20.606   1.643  32.466  0.00  0.00    +0.141 A 
ATOM      6  C3  UNL     1      20.662   2.229  33.747  0.00  0.00    +0.049 A 
ATOM      7  C4  UNL     1      21.010   3.573  33.897  0.00  0.00    +0.032 A 
ATOM      8  C5  UNL     1      21.326   4.347  32.774  0.00  0.00    +0.107 A 
ATOM      9  C10 UNL     1      21.286   3.770  31.500  0.00  0.00    +0.055 A 
ATOM     10  C11 UNL     1      20.895   2.429  31.331  0.00  0.00    +0.077 A 
BRANCH   8  11
ATOM     11  S1  UNL     1      21.801   6.036  32.940  0.00  0.00    +0.061 S 
ATOM     12  O2  UNL     1      20.648   6.888  32.486  0.00  0.00    -0.153 OA
ATOM     13  O3  UNL     1      22.094   6.357  34.380  0.00  0.00    -0.153 OA
BRANCH  11  14
ATOM     14  N1  UNL     1      23.199   6.335  31.930  0.00  0.00    -0.172 NA
ATOM     15  C6  UNL     1      24.466   6.265  32.685  0.00  0.00    +0.137 C 
ATOM     16  C7  UNL     1      24.789   7.582  33.410  0.00  0.00    +0.177 C 
ATOM     17  O4  UNL     1      24.767   8.674  32.513  0.00  0.00    -0.377 OA
ATOM     18  C8  UNL     1      23.466   8.818  31.983  0.00  0.00    +0.177 C 
ATOM     19  C9  UNL     1      23.079   7.583  31.155  0.00  0.00    +0.137 C 
ENDBRANCH  11  14
ENDBRANCH   8  11
BRANCH   5  21
ATOM     20  C1  UNL     1      18.947  -0.232  32.386  0.00  0.00    +0.277 C 
ATOM     21  O1  UNL     1      20.266   0.291  32.284  0.00  0.00    -0.493 OA
ENDBRANCH   5  21
ENDBRANCH   1  10
BRANCH   2  22
ATOM     22  C13 UNL     1      21.821   0.765  27.936  0.00  0.00    +0.227 C 
BRANCH  22  23
ATOM     23  N3  UNL     1      20.878   1.587  27.176  0.00  0.00    -0.194 N 
BRANCH  23  24
ATOM     24  C14 UNL     1      19.629   1.037  26.733  0.00  0.00    +0.052 A 
ATOM     25  C15 UNL     1      19.586   0.217  25.594  0.00  0.00    +0.026 A 
ATOM     26  C16 UNL     1      18.371  -0.325  25.164  0.00  0.00    +0.022 A 
ATOM     27  C17 UNL     1      17.193  -0.052  25.866  0.00  0.00    +0.041 A 
ATOM     28 CL1  UNL     1      15.669  -0.735  25.324  0.00  0.00    -0.084 Cl
ATOM     29  C18 UNL     1      17.229   0.769  27.000  0.00  0.00    +0.022 A 
ATOM     30  C19 UNL     1      18.443   1.309  27.436  0.00  0.00    +0.026 A 
ENDBRANCH  23  24
BRANCH  23  31
ATOM     31  S2  UNL     1      21.307   3.221  26.766  0.00  0.00    +0.075 S 
ATOM     32  O6  UNL     1      20.927   4.143  27.896  0.00  0.00    -0.150 OA
ATOM     33  O7  UNL     1      22.791   3.329  26.531  0.00  0.00    -0.150 OA
BRANCH  31  34
ATOM     34  C20 UNL     1      20.469   3.666  25.287  0.00  0.00    +0.109 A 
ATOM     35  C21 UNL     1      20.966   3.280  24.033  0.00  0.00    +0.029 A 
ATOM     36  C22 UNL     1      20.297   3.664  22.865  0.00  0.00    +0.005 A 
ATOM     37  C23 UNL     1      19.136   4.452  22.942  0.00  0.00    -0.050 A 
ATOM     38  C24 UNL     1      18.395   4.833  21.695  0.00  0.00    +0.044 C 
ATOM     39  C25 UNL     1      18.638   4.827  24.201  0.00  0.00    +0.005 A 
ATOM     40  C26 UNL     1      19.305   4.441  25.365  0.00  0.00    +0.029 A 
ENDBRANCH  31  34
ENDBRANCH  23  31
ENDBRANCH  22  23
ENDBRANCH   2  22
TORSDOF 9
ENDMDL
MODEL 4
REMARK VINA RESULT:    -7.193      3.613      9.960
REMARK INTER + INTRA:         -12.158
REMARK INTER:                 -10.216
REMARK INTRA:                  -1.942
REMARK UNBOUND:                -1.181
REMARK  Name = /home/qwerty/github/datacon2025hack/step_04_hit_selection/docking/ligands/lig_626.pdb
REMARK  11 active torsions:
REMARK  status: ('A' for Active; 'I' for Inactive)
REMARK    1  A    between atoms: C1_1  and  O1_2
REMARK    2  A    between atoms: O1_2  and  C2_3
REMARK    3  A    between atoms: C5_6  and  S1_7
REMARK    4  A    between atoms: S1_7  and  N1_10
REMARK    5  A    between atoms: C11_17  and  N2_18
REMARK    6  A    between atoms: C12_19  and  C13_21
REMARK    7  A    between atoms: C13_21  and  N3_22
REMARK    8  A    between atoms: N3_22  and  C14_23
REMARK    9  A    between atoms: N3_22  and  S2_30
REMARK   10  A    between atoms: S2_30  and  C20_33
REMARK   11  A    between atoms: C23_36  and  C24_37
REMARK                            x       y       z     vdW  Elec       q    Type
REMARK                         _______ _______ _______ _____ _____    ______ ____
ROOT
ATOM      1  N2  UNL     1      10.256  12.867  28.761  0.00  0.00    -0.281 N 
ATOM      2  C12 UNL     1       8.829  13.046  28.763  0.00  0.00    +0.236 C 
ATOM      3  O5  UNL     1       8.265  13.727  29.662  0.00  0.00    -0.274 OA
ATOM      4  H15 UNL     1      10.648  12.140  28.122  0.00  0.00    +0.155 HD
ENDROOT
BRANCH   1  10
ATOM      5  C2  UNL     1      11.986  14.521  29.358  0.00  0.00    +0.141 A 
ATOM      6  C3  UNL     1      12.853  15.087  30.313  0.00  0.00    +0.049 A 
ATOM      7  C4  UNL     1      12.869  14.611  31.626  0.00  0.00    +0.032 A 
ATOM      8  C5  UNL     1      12.006  13.577  32.010  0.00  0.00    +0.107 A 
ATOM      9  C10 UNL     1      11.133  13.018  31.071  0.00  0.00    +0.055 A 
ATOM     10  C11 UNL     1      11.137  13.459  29.735  0.00  0.00    +0.077 A 
BRANCH   8  11
ATOM     11  S1  UNL     1      11.983  12.982  33.668  0.00  0.00    +0.061 S 
ATOM     12  O2  UNL     1      11.281  14.006  34.517  0.00  0.00    -0.153 OA
ATOM     13  O3  UNL     1      11.216  11.690  33.749  0.00  0.00    -0.153 OA
BRANCH  11  14
ATOM     14  N1  UNL     1      13.630  12.773  34.221  0.00  0.00    -0.172 NA
ATOM     15  C6  UNL     1      13.840  11.475  34.892  0.00  0.00    +0.137 C 
ATOM     16  C7  UNL     1      13.416  11.505  36.370  0.00  0.00    +0.177 C 
ATOM     17  O4  UNL     1      14.048  12.565  37.059  0.00  0.00    -0.377 OA
ATOM     18  C8  UNL     1      13.639  13.795  36.500  0.00  0.00    +0.177 C 
ATOM     19  C9  UNL     1      14.098  13.907  35.039  0.00  0.00    +0.137 C 
ENDBRANCH  11  14
ENDBRANCH   8  11
BRANCH   5  21
ATOM     20  C1  UNL     1      13.030  14.921  27.117  0.00  0.00    +0.277 C 
ATOM     21  O1  UNL     1      11.942  14.983  28.031  0.00  0.00    -0.493 OA
ENDBRANCH   5  21
ENDBRANCH   1  10
BRANCH   2  22
ATOM     22  C13 UNL     1       7.981  12.354  27.741  0.00  0.00    +0.227 C 
BRANCH  22  23
ATOM     23  N3  UNL     1       8.476  10.994  27.527  0.00  0.00    -0.194 N 
BRANCH  23  24
ATOM     24  C14 UNL     1       8.939  10.585  26.233  0.00  0.00    +0.052 A 
ATOM     25  C15 UNL     1      10.315  10.559  25.954  0.00  0.00    +0.026 A 
ATOM     26  C16 UNL     1      10.770  10.153  24.695  0.00  0.00    +0.022 A 
ATOM     27  C17 UNL     1       9.855   9.775  23.708  0.00  0.00    +0.041 A 
ATOM     28 CL1  UNL     1      10.429   9.265  22.128  0.00  0.00    -0.084 Cl
ATOM     29  C18 UNL     1       8.482   9.802  23.978  0.00  0.00    +0.022 A 
ATOM     30  C19 UNL     1       8.024  10.203  25.237  0.00  0.00    +0.026 A 
ENDBRANCH  23  24
BRANCH  23  31
ATOM     31  S2  UNL     1       8.446   9.858  28.843  0.00  0.00    +0.075 S 
ATOM     32  O6  UNL     1       9.680  10.030  29.688  0.00  0.00    -0.150 OA
ATOM     33  O7  UNL     1       7.233  10.089  29.705  0.00  0.00    -0.150 OA
BRANCH  31  34
ATOM     34  C20 UNL     1       8.363   8.233  28.179  0.00  0.00    +0.109 A 
ATOM     35  C21 UNL     1       9.521   7.458  28.025  0.00  0.00    +0.029 A 
ATOM     36  C22 UNL     1       9.437   6.174  27.471  0.00  0.00    +0.005 A 
ATOM     37  C23 UNL     1       8.197   5.665  27.052  0.00  0.00    -0.050 A 
ATOM     38  C24 UNL     1       8.098   4.277  26.494  0.00  0.00    +0.044 C 
ATOM     39  C25 UNL     1       7.039   6.443  27.217  0.00  0.00    +0.005 A 
ATOM     40  C26 UNL     1       7.124   7.722  27.772  0.00  0.00    +0.029 A 
ENDBRANCH  31  34
ENDBRANCH  23  31
ENDBRANCH  22  23
ENDBRANCH   2  22
TORSDOF 9
ENDMDL
MODEL 5
REMARK VINA RESULT:    -7.187     10.242     14.492
REMARK INTER + INTRA:         -12.149
REMARK INTER:                 -10.433
REMARK INTRA:                  -1.716
REMARK UNBOUND:                -1.181
REMARK  Name = /home/qwerty/github/datacon2025hack/step_04_hit_selection/docking/ligands/lig_626.pdb
REMARK  11 active torsions:
REMARK  status: ('A' for Active; 'I' for Inactive)
REMARK    1  A    between atoms: C1_1  and  O1_2
REMARK    2  A    between atoms: O1_2  and  C2_3
REMARK    3  A    between atoms: C5_6  and  S1_7
REMARK    4  A    between atoms: S1_7  and  N1_10
REMARK    5  A    between atoms: C11_17  and  N2_18
REMARK    6  A    between atoms: C12_19  and  C13_21
REMARK    7  A    between atoms: C13_21  and  N3_22
REMARK    8  A    between atoms: N3_22  and  C14_23
REMARK    9  A    between atoms: N3_22  and  S2_30
REMARK   10  A    between atoms: S2_30  and  C20_33
REMARK   11  A    between atoms: C23_36  and  C24_37
REMARK                            x       y       z     vdW  Elec       q    Type
REMARK                         _______ _______ _______ _____ _____    ______ ____
ROOT
ATOM      1  N2  UNL     1      19.588   2.886  23.280  0.00  0.00    -0.281 N 
ATOM      2  C12 UNL     1      18.166   3.072  23.377  0.00  0.00    +0.236 C 
ATOM      3  O5  UNL     1      17.647   3.549  24.422  0.00  0.00    -0.274 OA
ATOM      4  H15 UNL     1      19.944   2.310  22.484  0.00  0.00    +0.155 HD
ENDROOT
BRANCH   1  10
ATOM      5  C2  UNL     1      21.250   4.447  24.221  0.00  0.00    +0.141 A 
ATOM      6  C3  UNL     1      22.163   4.788  25.239  0.00  0.00    +0.049 A 
ATOM      7  C4  UNL     1      22.334   3.953  26.346  0.00  0.00    +0.032 A 
ATOM      8  C5  UNL     1      21.584   2.777  26.462  0.00  0.00    +0.107 A 
ATOM      9  C10 UNL     1      20.666   2.438  25.462  0.00  0.00    +0.055 A 
ATOM     10  C11 UNL     1      20.515   3.247  24.322  0.00  0.00    +0.077 A 
BRANCH   8  11
ATOM     11  S1  UNL     1      21.757   1.724  27.865  0.00  0.00    +0.061 S 
ATOM     12  O2  UNL     1      21.353   0.336  27.454  0.00  0.00    -0.153 OA
ATOM     13  O3  UNL     1      23.190   1.690  28.318  0.00  0.00    -0.153 OA
BRANCH  11  14
ATOM     14  N1  UNL     1      20.706   2.300  29.141  0.00  0.00    -0.172 NA
ATOM     15  C6  UNL     1      21.430   3.095  30.152  0.00  0.00    +0.137 C 
ATOM     16  C7  UNL     1      22.119   2.213  31.207  0.00  0.00    +0.177 C 
ATOM     17  O4  UNL     1      21.200   1.315  31.797  0.00  0.00    -0.377 OA
ATOM     18  C8  UNL     1      20.700   0.440  30.808  0.00  0.00    +0.177 C 
ATOM     19  C9  UNL     1      19.908   1.219  29.746  0.00  0.00    +0.137 C 
ENDBRANCH  11  14
ENDBRANCH   8  11
BRANCH   5  21
ATOM     20  C1  UNL     1      22.053   6.089  22.508  0.00  0.00    +0.277 C 
ATOM     21  O1  UNL     1      21.051   5.270  23.099  0.00  0.00    -0.493 OA
ENDBRANCH   5  21
ENDBRANCH   1  10
BRANCH   2  22
ATOM     22  C13 UNL     1      17.269   2.624  22.265  0.00  0.00    +0.227 C 
BRANCH  22  23
ATOM     23  N3  UNL     1      16.398   1.547  22.735  0.00  0.00    -0.194 N 
BRANCH  23  24
ATOM     24  C14 UNL     1      14.978   1.736  22.798  0.00  0.00    +0.052 A 
ATOM     25  C15 UNL     1      14.141   1.095  21.870  0.00  0.00    +0.026 A 
ATOM     26  C16 UNL     1      12.755   1.272  21.933  0.00  0.00    +0.022 A 
ATOM     27  C17 UNL     1      12.198   2.091  22.920  0.00  0.00    +0.041 A 
ATOM     28 CL1  UNL     1      10.457   2.311  22.998  0.00  0.00    -0.084 Cl
ATOM     29  C18 UNL     1      13.027   2.736  23.846  0.00  0.00    +0.022 A 
ATOM     30  C19 UNL     1      14.413   2.558  23.788  0.00  0.00    +0.026 A 
ENDBRANCH  23  24
BRANCH  23  31
ATOM     31  S2  UNL     1      17.105   0.051  23.272  0.00  0.00    +0.075 S 
ATOM     32  O6  UNL     1      17.211  -0.904  22.112  0.00  0.00    -0.150 OA
ATOM     33  O7  UNL     1      18.484   0.293  23.827  0.00  0.00    -0.150 OA
BRANCH  31  34
ATOM     34  C20 UNL     1      16.096  -0.620  24.544  0.00  0.00    +0.109 A 
ATOM     35  C21 UNL     1      16.220  -0.182  25.871  0.00  0.00    +0.029 A 
ATOM     36  C22 UNL     1      15.424  -0.746  26.874  0.00  0.00    +0.005 A 
ATOM     37  C23 UNL     1      14.509  -1.765  26.561  0.00  0.00    -0.050 A 
ATOM     38  C24 UNL     1      13.628  -2.345  27.627  0.00  0.00    +0.044 C 
ATOM     39  C25 UNL     1      14.382  -2.194  25.230  0.00  0.00    +0.005 A 
ATOM     40  C26 UNL     1      15.176  -1.628  24.229  0.00  0.00    +0.029 A 
ENDBRANCH  31  34
ENDBRANCH  23  31
ENDBRANCH  22  23
ENDBRANCH   2  22
TORSDOF 9
ENDMDL
MODEL 6
REMARK VINA RESULT:    -7.180      6.302     10.938
REMARK INTER + INTRA:         -12.139
REMARK INTER:                 -10.423
REMARK INTRA:                  -1.717
REMARK UNBOUND:                -1.181
REMARK  Name = /home/qwerty/github/datacon2025hack/step_04_hit_selection/docking/ligands/lig_626.pdb
REMARK  11 active torsions:
REMARK  status: ('A' for Active; 'I' for Inactive)
REMARK    1  A    between atoms: C1_1  and  O1_2
REMARK    2  A    between atoms: O1_2  and  C2_3
REMARK    3  A    between atoms: C5_6  and  S1_7
REMARK    4  A    between atoms: S1_7  and  N1_10
REMARK    5  A    between atoms: C11_17  and  N2_18
REMARK    6  A    between atoms: C12_19  and  C13_21
REMARK    7  A    between atoms: C13_21  and  N3_22
REMARK    8  A    between atoms: N3_22  and  C14_23
REMARK    9  A    between atoms: N3_22  and  S2_30
REMARK   10  A    between atoms: S2_30  and  C20_33
REMARK   11  A    between atoms: C23_36  and  C24_37
REMARK                            x       y       z     vdW  Elec       q    Type
REMARK                         _______ _______ _______ _____ _____    ______ ____
ROOT
ATOM      1  N2  UNL     1      12.242  13.104  32.665  0.00  0.00    -0.281 N 
ATOM      2  C12 UNL     1      12.118  14.291  31.864  0.00  0.00    +0.236 C 
ATOM      3  O5  UNL     1      12.463  15.416  32.318  0.00  0.00    -0.274 OA
ATOM      4  H15 UNL     1      11.762  12.241  32.323  0.00  0.00    +0.155 HD
ENDROOT
BRANCH   1  10
ATOM      5  C2  UNL     1      11.942  13.369  35.099  0.00  0.00    +0.141 A 
ATOM      6  C3  UNL     1      12.481  13.369  36.401  0.00  0.00    +0.049 A 
ATOM      7  C4  UNL     1      13.834  13.091  36.608  0.00  0.00    +0.032 A 
ATOM      8  C5  UNL     1      14.664  12.790  35.521  0.00  0.00    +0.107 A 
ATOM      9  C10 UNL     1      14.134  12.774  34.226  0.00  0.00    +0.055 A 
ATOM     10  C11 UNL     1      12.783  13.094  34.000  0.00  0.00    +0.077 A 
BRANCH   8  11
ATOM     11  S1  UNL     1      16.367  12.401  35.759  0.00  0.00    +0.061 S 
ATOM     12  O2  UNL     1      17.143  13.006  34.622  0.00  0.00    -0.153 OA
ATOM     13  O3  UNL     1      16.863  12.998  37.047  0.00  0.00    -0.153 OA
BRANCH  11  14
ATOM     14  N1  UNL     1      16.559  10.662  35.755  0.00  0.00    -0.172 NA
ATOM     15  C6  UNL     1      15.967  10.026  36.948  0.00  0.00    +0.137 C 
ATOM     16  C7  UNL     1      16.912  10.062  38.161  0.00  0.00    +0.177 C 
ATOM     17  O4  UNL     1      18.173   9.512  37.838  0.00  0.00    -0.377 OA
ATOM     18  C8  UNL     1      18.782  10.295  36.833  0.00  0.00    +0.177 C 
ATOM     19  C9  UNL     1      17.958  10.249  35.538  0.00  0.00    +0.137 C 
ENDBRANCH  11  14
ENDBRANCH   8  11
BRANCH   5  21
ATOM     20  C1  UNL     1       9.737  14.372  35.738  0.00  0.00    +0.277 C 
ATOM     21  O1  UNL     1      10.583  13.638  34.860  0.00  0.00    -0.493 OA
ENDBRANCH   5  21
ENDBRANCH   1  10
BRANCH   2  22
ATOM     22  C13 UNL     1      11.499  14.221  30.502  0.00  0.00    +0.227 C 
BRANCH  22  23
ATOM     23  N3  UNL     1      11.605  12.858  29.981  0.00  0.00    -0.194 N 
BRANCH  23  24
ATOM     24  C14 UNL     1      10.441  12.026  29.879  0.00  0.00    +0.052 A 
ATOM     25  C15 UNL     1      10.416  10.770  30.506  0.00  0.00    +0.026 A 
ATOM     26  C16 UNL     1       9.280   9.960  30.413  0.00  0.00    +0.022 A 
ATOM     27  C17 UNL     1       8.164  10.397  29.693  0.00  0.00    +0.041 A 
ATOM     28 CL1  UNL     1       6.738   9.379  29.578  0.00  0.00    -0.084 Cl
ATOM     29  C18 UNL     1       8.184  11.647  29.061  0.00  0.00    +0.022 A 
ATOM     30  C19 UNL     1       9.317  12.461  29.156  0.00  0.00    +0.026 A 
ENDBRANCH  23  24
BRANCH  23  31
ATOM     31  S2  UNL     1      13.166  12.233  29.537  0.00  0.00    +0.075 S 
ATOM     32  O6  UNL     1      13.782  11.527  30.716  0.00  0.00    -0.150 OA
ATOM     33  O7  UNL     1      13.034  11.254  28.401  0.00  0.00    -0.150 OA
BRANCH  31  34
ATOM     34  C20 UNL     1      14.176  13.572  29.013  0.00  0.00    +0.109 A 
ATOM     35  C21 UNL     1      15.156  14.112  29.859  0.00  0.00    +0.029 A 
ATOM     36  C22 UNL     1      15.934  15.194  29.432  0.00  0.00    +0.005 A 
ATOM     37  C23 UNL     1      15.726  15.755  28.161  0.00  0.00    -0.050 A 
ATOM     38  C24 UNL     1      16.583  16.890  27.685  0.00  0.00    +0.044 C 
ATOM     39  C25 UNL     1      14.751  15.205  27.314  0.00  0.00    +0.005 A 
ATOM     40  C26 UNL     1      13.976  14.124  27.741  0.00  0.00    +0.029 A 
ENDBRANCH  31  34
ENDBRANCH  23  31
ENDBRANCH  22  23
ENDBRANCH   2  22
TORSDOF 9
ENDMDL
MODEL 7
REMARK VINA RESULT:    -7.167      6.032      9.873
REMARK INTER + INTRA:         -12.118
REMARK INTER:                 -10.126
REMARK INTRA:                  -1.992
REMARK UNBOUND:                -1.181
REMARK  Name = /home/qwerty/github/datacon2025hack/step_04_hit_selection/docking/ligands/lig_626.pdb
REMARK  11 active torsions:
REMARK  status: ('A' for Active; 'I' for Inactive)
REMARK    1  A    between atoms: C1_1  and  O1_2
REMARK    2  A    between atoms: O1_2  and  C2_3
REMARK    3  A    between atoms: C5_6  and  S1_7
REMARK    4  A    between atoms: S1_7  and  N1_10
REMARK    5  A    between atoms: C11_17  and  N2_18
REMARK    6  A    between atoms: C12_19  and  C13_21
REMARK    7  A    between atoms: C13_21  and  N3_22
REMARK    8  A    between atoms: N3_22  and  C14_23
REMARK    9  A    between atoms: N3_22  and  S2_30
REMARK   10  A    between atoms: S2_30  and  C20_33
REMARK   11  A    between atoms: C23_36  and  C24_37
REMARK                            x       y       z     vdW  Elec       q    Type
REMARK                         _______ _______ _______ _____ _____    ______ ____
ROOT
ATOM      1  N2  UNL     1      12.855  13.962  31.882  0.00  0.00    -0.281 N 
ATOM      2  C12 UNL     1      12.266  14.427  33.109  0.00  0.00    +0.236 C 
ATOM      3  O5  UNL     1      11.115  14.941  33.118  0.00  0.00    -0.274 OA
ATOM      4  H15 UNL     1      13.874  13.733  31.895  0.00  0.00    +0.155 HD
ENDROOT
BRANCH   1  10
ATOM      5  C2  UNL     1      12.751  14.758  29.550  0.00  0.00    +0.141 A 
ATOM      6  C3  UNL     1      12.086  14.812  28.309  0.00  0.00    +0.049 A 
ATOM      7  C4  UNL     1      10.885  14.125  28.118  0.00  0.00    +0.032 A 
ATOM      8  C5  UNL     1      10.339  13.360  29.156  0.00  0.00    +0.107 A 
ATOM      9  C10 UNL     1      11.000  13.291  30.387  0.00  0.00    +0.055 A 
ATOM     10  C11 UNL     1      12.187  14.012  30.606  0.00  0.00    +0.077 A 
BRANCH   8  11
ATOM     11  S1  UNL     1       8.843  12.457  28.929  0.00  0.00    +0.061 S 
ATOM     12  O2  UNL     1       7.856  12.931  29.960  0.00  0.00    -0.153 OA
ATOM     13  O3  UNL     1       8.273  12.726  27.564  0.00  0.00    -0.153 OA
BRANCH  11  14
ATOM     14  N1  UNL     1       9.169  10.752  29.152  0.00  0.00    -0.172 NA
ATOM     15  C6  UNL     1       9.376  10.045  27.873  0.00  0.00    +0.137 C 
ATOM     16  C7  UNL     1       8.050   9.638  27.208  0.00  0.00    +0.177 C 
ATOM     17  O4  UNL     1       7.242   8.896  28.098  0.00  0.00    -0.377 OA
ATOM     18  C8  UNL     1       6.903   9.703  29.206  0.00  0.00    +0.177 C 
ATOM     19  C9  UNL     1       8.159  10.091  29.999  0.00  0.00    +0.137 C 
ENDBRANCH  11  14
ENDBRANCH   8  11
BRANCH   5  21
ATOM     20  C1  UNL     1      15.170  15.182  29.058  0.00  0.00    +0.277 C 
ATOM     21  O1  UNL     1      13.964  15.433  29.770  0.00  0.00    -0.493 OA
ENDBRANCH   5  21
ENDBRANCH   1  10
BRANCH   2  22
ATOM     22  C13 UNL     1      13.049  14.384  34.384  0.00  0.00    +0.227 C 
BRANCH  22  23
ATOM     23  N3  UNL     1      13.552  13.028  34.610  0.00  0.00    -0.194 N 
BRANCH  23  24
ATOM     24  C14 UNL     1      12.708  12.028  35.197  0.00  0.00    +0.052 A 
ATOM     25  C15 UNL     1      12.438  12.056  36.575  0.00  0.00    +0.026 A 
ATOM     26  C16 UNL     1      11.610  11.086  37.149  0.00  0.00    +0.022 A 
ATOM     27  C17 UNL     1      11.048  10.083  36.352  0.00  0.00    +0.041 A 
ATOM     28 CL1  UNL     1      10.007   8.867  37.075  0.00  0.00    -0.084 Cl
ATOM     29  C18 UNL     1      11.316  10.048  34.978  0.00  0.00    +0.022 A 
ATOM     30  C19 UNL     1      12.141  11.019  34.400  0.00  0.00    +0.026 A 
ENDBRANCH  23  24
BRANCH  23  31
ATOM     31  S2  UNL     1      15.202  12.653  34.210  0.00  0.00    +0.075 S 
ATOM     32  O6  UNL     1      15.293  12.250  32.762  0.00  0.00    -0.150 OA
ATOM     33  O7  UNL     1      16.081  13.855  34.435  0.00  0.00    -0.150 OA
BRANCH  31  34
ATOM     34  C20 UNL     1      15.750  11.352  35.257  0.00  0.00    +0.109 A 
ATOM     35  C21 UNL     1      16.134  11.606  36.582  0.00  0.00    +0.029 A 
ATOM     36  C22 UNL     1      16.590  10.560  37.393  0.00  0.00    +0.005 A 
ATOM     37  C23 UNL     1      16.681   9.256  36.880  0.00  0.00    -0.050 A 
ATOM     38  C24 UNL     1      17.133   8.126  37.757  0.00  0.00    +0.044 C 
ATOM     39  C25 UNL     1      16.286   9.005  35.556  0.00  0.00    +0.005 A 
ATOM     40  C26 UNL     1      15.829  10.049  34.748  0.00  0.00    +0.029 A 
ENDBRANCH  31  34
ENDBRANCH  23  31
ENDBRANCH  22  23
ENDBRANCH   2  22
TORSDOF 9
ENDMDL
MODEL 8
REMARK VINA RESULT:    -7.051     13.041     15.928
REMARK INTER + INTRA:         -11.942
REMARK INTER:                 -10.749
REMARK INTRA:                  -1.193
REMARK UNBOUND:                -1.181
REMARK  Name = /home/qwerty/github/datacon2025hack/step_04_hit_selection/docking/ligands/lig_626.pdb
REMARK  11 active torsions:
REMARK  status: ('A' for Active; 'I' for Inactive)
REMARK    1  A    between atoms: C1_1  and  O1_2
REMARK    2  A    between atoms: O1_2  and  C2_3
REMARK    3  A    between atoms: C5_6  and  S1_7
REMARK    4  A    between atoms: S1_7  and  N1_10
REMARK    5  A    between atoms: C11_17  and  N2_18
REMARK    6  A    between atoms: C12_19  and  C13_21
REMARK    7  A    between atoms: C13_21  and  N3_22
REMARK    8  A    between atoms: N3_22  and  C14_23
REMARK    9  A    between atoms: N3_22  and  S2_30
REMARK   10  A    between atoms: S2_30  and  C20_33
REMARK   11  A    between atoms: C23_36  and  C24_37
REMARK                            x       y       z     vdW  Elec       q    Type
REMARK                         _______ _______ _______ _____ _____    ______ ____
ROOT
ATOM      1  N2  UNL     1      19.936   1.789  33.549  0.00  0.00    -0.281 N 
ATOM      2  C12 UNL     1      19.643   1.664  32.147  0.00  0.00    +0.236 C 
ATOM      3  O5  UNL     1      18.654   2.258  31.639  0.00  0.00    -0.274 OA
ATOM      4  H15 UNL     1      20.635   1.127  33.954  0.00  0.00    +0.155 HD
ENDROOT
BRANCH   1  10
ATOM      5  C2  UNL     1      18.065   2.046  35.135  0.00  0.00    +0.141 A 
ATOM      6  C3  UNL     1      17.311   2.853  36.012  0.00  0.00    +0.049 A 
ATOM      7  C4  UNL     1      17.658   4.189  36.219  0.00  0.00    +0.032 A 
ATOM      8  C5  UNL     1      18.772   4.736  35.569  0.00  0.00    +0.107 A 
ATOM      9  C10 UNL     1      19.532   3.939  34.706  0.00  0.00    +0.055 A 
ATOM     10  C11 UNL     1      19.169   2.603  34.456  0.00  0.00    +0.077 A 
BRANCH   8  11
ATOM     11  S1  UNL     1      19.250   6.411  35.840  0.00  0.00    +0.061 S 
ATOM     12  O2  UNL     1      20.228   6.434  36.981  0.00  0.00    -0.153 OA
ATOM     13  O3  UNL     1      19.931   6.963  34.617  0.00  0.00    -0.153 OA
BRANCH  11  14
ATOM     14  N1  UNL     1      17.830   7.348  36.249  0.00  0.00    -0.172 NA
ATOM     15  C6  UNL     1      17.494   8.345  35.213  0.00  0.00    +0.137 C 
ATOM     16  C7  UNL     1      18.312   9.640  35.359  0.00  0.00    +0.177 C 
ATOM     17  O4  UNL     1      18.193  10.171  36.664  0.00  0.00    -0.377 OA
ATOM     18  C8  UNL     1      18.728   9.252  37.593  0.00  0.00    +0.177 C 
ATOM     19  C9  UNL     1      17.918   7.947  37.593  0.00  0.00    +0.137 C 
ENDBRANCH  11  14
ENDBRANCH   8  11
BRANCH   5  21
ATOM     20  C1  UNL     1      16.788  -0.044  35.661  0.00  0.00    +0.277 C 
ATOM     21  O1  UNL     1      17.745   0.696  34.912  0.00  0.00    -0.493 OA
ENDBRANCH   5  21
ENDBRANCH   1  10
BRANCH   2  22
ATOM     22  C13 UNL     1      20.463   0.756  31.283  0.00  0.00    +0.227 C 
BRANCH  22  23
ATOM     23  N3  UNL     1      21.500   1.529  30.599  0.00  0.00    -0.194 N 
BRANCH  23  24
ATOM     24  C14 UNL     1      21.740   2.898  30.955  0.00  0.00    +0.052 A 
ATOM     25  C15 UNL     1      21.170   3.933  30.196  0.00  0.00    +0.026 A 
ATOM     26  C16 UNL     1      21.397   5.268  30.545  0.00  0.00    +0.022 A 
ATOM     27  C17 UNL     1      22.195   5.578  31.650  0.00  0.00    +0.041 A 
ATOM     28 CL1  UNL     1      22.478   7.255  32.087  0.00  0.00    -0.084 Cl
ATOM     29  C18 UNL     1      22.770   4.550  32.409  0.00  0.00    +0.022 A 
ATOM     30  C19 UNL     1      22.541   3.214  32.065  0.00  0.00    +0.026 A 
ENDBRANCH  23  24
BRANCH  23  31
ATOM     31  S2  UNL     1      22.404   0.791  29.310  0.00  0.00    +0.075 S 
ATOM     32  O6  UNL     1      23.875   1.041  29.515  0.00  0.00    -0.150 OA
ATOM     33  O7  UNL     1      22.164  -0.696  29.288  0.00  0.00    -0.150 OA
BRANCH  31  34
ATOM     34  C20 UNL     1      21.860   1.472  27.783  0.00  0.00    +0.109 A 
ATOM     35  C21 UNL     1      20.749   0.941  27.112  0.00  0.00    +0.029 A 
ATOM     36  C22 UNL     1      20.346   1.481  25.886  0.00  0.00    +0.005 A 
ATOM     37  C23 UNL     1      21.062   2.546  25.313  0.00  0.00    -0.050 A 
ATOM     38  C24 UNL     1      20.611   3.153  24.018  0.00  0.00    +0.044 C 
ATOM     39  C25 UNL     1      22.168   3.080  25.994  0.00  0.00    +0.005 A 
ATOM     40  C26 UNL     1      22.568   2.541  27.219  0.00  0.00    +0.029 A 
ENDBRANCH  31  34
ENDBRANCH  23  31
ENDBRANCH  22  23
ENDBRANCH   2  22
TORSDOF 9
ENDMDL
MODEL 9
REMARK VINA RESULT:    -6.965     12.050     14.100
REMARK INTER + INTRA:         -11.810
REMARK INTER:                  -9.799
REMARK INTRA:                  -2.012
REMARK UNBOUND:                -1.181
REMARK  Name = /home/qwerty/github/datacon2025hack/step_04_hit_selection/docking/ligands/lig_626.pdb
REMARK  11 active torsions:
REMARK  status: ('A' for Active; 'I' for Inactive)
REMARK    1  A    between atoms: C1_1  and  O1_2
REMARK    2  A    between atoms: O1_2  and  C2_3
REMARK    3  A    between atoms: C5_6  and  S1_7
REMARK    4  A    between atoms: S1_7  and  N1_10
REMARK    5  A    between atoms: C11_17  and  N2_18
REMARK    6  A    between atoms: C12_19  and  C13_21
REMARK    7  A    between atoms: C13_21  and  N3_22
REMARK    8  A    between atoms: N3_22  and  C14_23
REMARK    9  A    between atoms: N3_22  and  S2_30
REMARK   10  A    between atoms: S2_30  and  C20_33
REMARK   11  A    between atoms: C23_36  and  C24_37
REMARK                            x       y       z     vdW  Elec       q    Type
REMARK                         _______ _______ _______ _____ _____    ______ ____
ROOT
ATOM      1  N2  UNL     1      21.403   2.104  27.888  0.00  0.00    -0.281 N 
ATOM      2  C12 UNL     1      22.028   1.063  28.658  0.00  0.00    +0.236 C 
ATOM      3  O5  UNL     1      22.136  -0.105  28.196  0.00  0.00    -0.274 OA
ATOM      4  H15 UNL     1      21.160   2.990  28.385  0.00  0.00    +0.155 HD
ENDROOT
BRANCH   1  10
ATOM      5  C2  UNL     1      21.502   2.584  25.470  0.00  0.00    +0.141 A 
ATOM      6  C3  UNL     1      20.991   2.403  24.170  0.00  0.00    +0.049 A 
ATOM      7  C4  UNL     1      19.898   1.562  23.948  0.00  0.00    +0.032 A 
ATOM      8  C5  UNL     1      19.312   0.875  25.018  0.00  0.00    +0.107 A 
ATOM      9  C10 UNL     1      19.821   1.038  26.311  0.00  0.00    +0.055 A 
ATOM     10  C11 UNL     1      20.894   1.915  26.554  0.00  0.00    +0.077 A 
BRANCH   8  11
ATOM     11  S1  UNL     1      17.954  -0.219  24.760  0.00  0.00    +0.061 S 
ATOM     12  O2  UNL     1      17.591  -0.169  23.301  0.00  0.00    -0.153 OA
ATOM     13  O3  UNL     1      18.346  -1.629  25.106  0.00  0.00    -0.153 OA
BRANCH  11  14
ATOM     14  N1  UNL     1      16.600   0.316  25.731  0.00  0.00    -0.172 NA
ATOM     15  C6  UNL     1      15.997  -0.782  26.512  0.00  0.00    +0.137 C 
ATOM     16  C7  UNL     1      14.994  -1.605  25.685  0.00  0.00    +0.177 C 
ATOM     17  O4  UNL     1      14.015  -0.772  25.098  0.00  0.00    -0.377 OA
ATOM     18  C8  UNL     1      14.638   0.121  24.199  0.00  0.00    +0.177 C 
ATOM     19  C9  UNL     1      15.599   1.058  24.944  0.00  0.00    +0.137 C 
ENDBRANCH  11  14
ENDBRANCH   8  11
BRANCH   5  21
ATOM     20  C1  UNL     1      22.638   4.816  25.466  0.00  0.00    +0.277 C 
ATOM     21  O1  UNL     1      22.605   3.418  25.724  0.00  0.00    -0.493 OA
ENDBRANCH   5  21
ENDBRANCH   1  10
BRANCH   2  22
ATOM     22  C13 UNL     1      22.487   1.332  30.058  0.00  0.00    +0.227 C 
BRANCH  22  23
ATOM     23  N3  UNL     1      21.491   2.145  30.756  0.00  0.00    -0.194 N 
BRANCH  23  24
ATOM     24  C14 UNL     1      21.820   3.465  31.211  0.00  0.00    +0.052 A 
ATOM     25  C15 UNL     1      22.556   3.639  32.394  0.00  0.00    +0.026 A 
ATOM     26  C16 UNL     1      22.883   4.925  32.836  0.00  0.00    +0.022 A 
ATOM     27  C17 UNL     1      22.477   6.043  32.102  0.00  0.00    +0.041 A 
ATOM     28 CL1  UNL     1      22.891   7.657  32.658  0.00  0.00    -0.084 Cl
ATOM     29  C18 UNL     1      21.740   5.877  30.923  0.00  0.00    +0.022 A 
ATOM     30  C19 UNL     1      21.414   4.592  30.476  0.00  0.00    +0.026 A 
ENDBRANCH  23  24
BRANCH  23  31
ATOM     31  S2  UNL     1      19.919   1.476  31.081  0.00  0.00    +0.075 S 
ATOM     32  O6  UNL     1      19.020   1.695  29.892  0.00  0.00    -0.150 OA
ATOM     33  O7  UNL     1      20.024  -0.003  31.343  0.00  0.00    -0.150 OA
BRANCH  31  34
ATOM     34  C20 UNL     1      19.263   2.256  32.513  0.00  0.00    +0.109 A 
ATOM     35  C21 UNL     1      18.408   3.363  32.404  0.00  0.00    +0.029 A 
ATOM     36  C22 UNL     1      17.915   3.985  33.557  0.00  0.00    +0.005 A 
ATOM     37  C23 UNL     1      18.289   3.516  34.827  0.00  0.00    -0.050 A 
ATOM     38  C24 UNL     1      17.733   4.157  36.064  0.00  0.00    +0.044 C 
ATOM     39  C25 UNL     1      19.138   2.402  34.931  0.00  0.00    +0.005 A 
ATOM     40  C26 UNL     1      19.627   1.781  33.779  0.00  0.00    +0.029 A 
ENDBRANCH  31  34
ENDBRANCH  23  31
ENDBRANCH  22  23
ENDBRANCH   2  22
TORSDOF 9
ENDMDL
