REMARK  Name = /home/qwerty/github/datacon2025hack/step_04_hit_selection/docking/ligands/lig_218.pdb
REMARK  4 active torsions:
REMARK  status: ('A' for Active; 'I' for Inactive)
REMARK    1  A    between atoms: C1_1  and  C2_2
REMARK    2  A    between atoms: C5_5  and  C6_6
REMARK    3  A    between atoms: C12_15  and  C13_16
REMARK    4  A    between atoms: N3_17  and  C14_18
REMARK                            x       y       z     vdW  Elec       q    Type
REMARK                         _______ _______ _______ _____ _____    ______ ____
ROOT
ATOM      1  C1  UNL     1       1.917   1.105  -2.554  0.00  0.00    +0.064 C 
ATOM      2  C2  UNL     1       1.200   0.702  -1.303  0.00  0.00    +0.030 A 
ATOM      3  C3  UNL     1      -0.162   0.712  -1.109  0.00  0.00    +0.022 A 
ATOM      4  C4  UNL     1      -1.354   1.052  -1.698  0.00  0.00    +0.042 A 
ATOM      5  C5  UNL     1      -2.296   0.809  -0.679  0.00  0.00    +0.103 A 
ATOM      6  N2  UNL     1      -1.693   0.370   0.465  0.00  0.00    -0.349 N 
ATOM      7  C11 UNL     1      -0.399   0.323   0.131  0.00  0.00    +0.068 A 
ATOM      8  C12 UNL     1       0.787   0.052   0.766  0.00  0.00    +0.045 A 
ATOM      9  C13 UNL     1       0.959  -0.366   2.193  0.00  0.00    +0.066 C 
ATOM     10  N3  UNL     1       1.787   0.287  -0.137  0.00  0.00    -0.315 N 
ATOM     11  H13 UNL     1      -2.113   0.193   1.403  0.00  0.00    +0.166 HD
ENDROOT
BRANCH  10  12
ATOM     12  C14 UNL     1       3.198   0.155   0.101  0.00  0.00    +0.050 A 
ATOM     13  C15 UNL     1       3.812   0.862   1.166  0.00  0.00    +0.030 A 
ATOM     14  C16 UNL     1       5.193   0.739   1.403  0.00  0.00    +0.051 A 
ATOM     15  C17 UNL     1       5.924  -0.093   0.561  0.00  0.00    +0.166 A 
ATOM     16  C18 UNL     1       5.344  -0.771  -0.461  0.00  0.00    +0.168 A 
ATOM     17  C19 UNL     1       3.981  -0.677  -0.729  0.00  0.00    +0.075 A 
ATOM     18  O2  UNL     1       6.302  -1.513  -1.124  0.00  0.00    -0.453 OA
ATOM     19  C20 UNL     1       7.563  -1.286  -0.479  0.00  0.00    +0.466 C 
ATOM     20  O3  UNL     1       7.277  -0.373   0.591  0.00  0.00    -0.453 OA
ENDBRANCH  10  12
BRANCH   5  21
ATOM     21  C6  UNL     1      -3.739   1.086  -0.802  0.00  0.00    +0.263 C 
ATOM     22  O1  UNL     1      -4.112   2.012  -1.572  0.00  0.00    -0.268 OA
ATOM     23  N1  UNL     1      -4.725   0.317  -0.089  0.00  0.00    -0.296 N 
ATOM     24  C7  UNL     1      -6.119   0.722  -0.016  0.00  0.00    +0.108 C 
ATOM     25  C8  UNL     1      -6.842  -0.418   0.687  0.00  0.00    +0.020 C 
ATOM     26  C9  UNL     1      -5.922  -1.626   0.558  0.00  0.00    +0.020 C 
ATOM     27  C10 UNL     1      -4.525  -1.055   0.352  0.00  0.00    +0.108 C 
ENDBRANCH   5  21
TORSDOF 2
