REMARK  Name = /home/qwerty/github/datacon2025hack/step_04_hit_selection/docking/ligands/lig_475.pdb
REMARK  7 active torsions:
REMARK  status: ('A' for Active; 'I' for Inactive)
REMARK    1  A    between atoms: C1_1  and  C2_2
REMARK    2  A    between atoms: C4_4  and  C5_5
REMARK    3  A    between atoms: N1_7  and  C6_8
REMARK    4  A    between atoms: C6_8  and  C7_9
REMARK    5  A    between atoms: C7_9  and  N2_10
REMARK    6  A    between atoms: C7_9  and  C13_19
REMARK    7  A    between atoms: C8_11  and  C9_13
REMARK                            x       y       z     vdW  Elec       q    Type
REMARK                         _______ _______ _______ _____ _____    ______ ____
ROOT
ATOM      1  C7  UNL     1      -1.371  -0.588   0.843  0.00  0.00    +0.093 C 
ENDROOT
BRANCH   1   2
ATOM      2  N2  UNL     1      -2.701  -0.062   0.508  0.00  0.00    -0.307 N 
ATOM      3  C8  UNL     1      -3.077   1.302   0.770  0.00  0.00    +0.247 C 
ATOM      4  O2  UNL     1      -2.335   2.026   1.489  0.00  0.00    -0.270 OA
ATOM      5  H9  UNL     1      -3.434  -0.718   0.156  0.00  0.00    +0.149 HD
BRANCH   3   6
ATOM      6  C9  UNL     1      -4.333   1.868   0.223  0.00  0.00    +0.073 A 
ATOM      7  C10 UNL     1      -4.958   1.323  -0.909  0.00  0.00    +0.127 A 
ATOM      8  N3  UNL     1      -6.103   1.874  -1.388  0.00  0.00    -0.243 NA
ATOM      9  C11 UNL     1      -6.662   2.956  -0.790  0.00  0.00    +0.221 A 
ATOM     10  N4  UNL     1      -6.073   3.511   0.299  0.00  0.00    -0.243 NA
ATOM     11  C12 UNL     1      -4.925   2.995   0.812  0.00  0.00    +0.127 A 
ENDBRANCH   3   6
ENDBRANCH   1   2
BRANCH   1  12
ATOM     12  C13 UNL     1      -1.424  -2.140   0.953  0.00  0.00    +0.011 C 
ATOM     13  C14 UNL     1      -1.847  -2.877  -0.315  0.00  0.00    +0.006 C 
ATOM     14  C15 UNL     1      -0.428  -3.025   0.203  0.00  0.00    +0.006 C 
ENDBRANCH   1  12
BRANCH   1  15
ATOM     15  C6  UNL     1      -0.315  -0.008  -0.126  0.00  0.00    +0.127 C 
BRANCH  15  18
ATOM     16  C5  UNL     1       2.191   0.174  -0.403  0.00  0.00    +0.263 C 
ATOM     17  O1  UNL     1       2.026   0.781  -1.497  0.00  0.00    -0.269 OA
ATOM     18  N1  UNL     1       1.047  -0.243   0.358  0.00  0.00    -0.308 N 
ATOM     19  H5  UNL     1       1.191  -0.730   1.271  0.00  0.00    +0.149 HD
BRANCH  16  23
ATOM     20  C1  UNL     1       7.183   0.429  -0.896  0.00  0.00    +0.066 C 
ATOM     21  C2  UNL     1       5.958   0.014  -0.145  0.00  0.00    +0.042 A 
ATOM     22  C3  UNL     1       4.686   0.303  -0.649  0.00  0.00    +0.056 A 
ATOM     23  C4  UNL     1       3.561  -0.105   0.083  0.00  0.00    +0.129 A 
ATOM     24  N5  UNL     1       3.740  -0.769   1.257  0.00  0.00    -0.231 NA
ATOM     25  C16 UNL     1       4.982  -1.043   1.732  0.00  0.00    +0.222 A 
ATOM     26  N6  UNL     1       6.079  -0.654   1.033  0.00  0.00    -0.241 NA
ENDBRANCH  16  23
ENDBRANCH  15  18
ENDBRANCH   1  15
TORSDOF 6
