MODEL 1
REMARK VINA RESULT:    -6.872      0.000      0.000
REMARK INTER + INTRA:          -8.631
REMARK INTER:                  -8.077
REMARK INTRA:                  -0.553
REMARK UNBOUND:                -0.553
REMARK  Name = /home/qwerty/github/datacon2025hack/step_04_hit_selection/docking/ligands/lig_777.pdb
REMARK  5 active torsions:
REMARK  status: ('A' for Active; 'I' for Inactive)
REMARK    1  A    between atoms: C1_1  and  C2_2
REMARK    2  A    between atoms: C5_5  and  C6_6
REMARK    3  A    between atoms: C7_8  and  C8_9
REMARK    4  A    between atoms: C12_13  and  N2_14
REMARK    5  A    between atoms: C17_23  and  C18_24
REMARK                            x       y       z     vdW  Elec       q    Type
REMARK                         _______ _______ _______ _____ _____    ______ ____
ROOT
ATOM      1  C6  UNL     1      20.393   1.402  26.850  0.00  0.00    +0.260 A 
ATOM      2  N1  UNL     1      19.334   0.598  26.623  0.00  0.00    -0.187 NA
ATOM      3  C7  UNL     1      19.302   0.550  25.276  0.00  0.00    +0.202 A 
ATOM      4  N4  UNL     1      20.285   1.284  24.717  0.00  0.00    -0.056 NA
ATOM      5  O2  UNL     1      20.934   1.792  25.720  0.00  0.00    -0.332 OA
ENDROOT
BRANCH   1  10
ATOM      6  C1  UNL     1      22.285   3.105  32.037  0.00  0.00    +0.065 C 
ATOM      7  C2  UNL     1      21.776   2.656  30.704  0.00  0.00    +0.039 A 
ATOM      8  C3  UNL     1      20.905   3.461  29.970  0.00  0.00    +0.024 A 
ATOM      9  C4  UNL     1      20.465   3.031  28.719  0.00  0.00    +0.017 A 
ATOM     10  C5  UNL     1      20.896   1.803  28.189  0.00  0.00    +0.060 A 
ATOM     11  C17 UNL     1      21.792   1.019  28.965  0.00  0.00    +0.051 A 
ATOM     12  C18 UNL     1      22.326  -0.307  28.507  0.00  0.00    +0.066 C 
ATOM     13  N5  UNL     1      22.198   1.475  30.183  0.00  0.00    -0.256 NA
ENDBRANCH   1  10
BRANCH   3  14
ATOM     14  C8  UNL     1      18.304  -0.217  24.503  0.00  0.00    +0.024 A 
ATOM     15  C9  UNL     1      17.994  -1.541  24.855  0.00  0.00    +0.012 A 
ATOM     16  C10 UNL     1      17.041  -2.259  24.131  0.00  0.00    +0.003 A 
ATOM     17  C11 UNL     1      16.392  -1.669  23.045  0.00  0.00    +0.023 A 
ATOM     18  C12 UNL     1      16.695  -0.351  22.664  0.00  0.00    +0.038 A 
ATOM     19  C16 UNL     1      17.646   0.372  23.408  0.00  0.00    +0.035 A 
BRANCH  18  20
ATOM     20  N2  UNL     1      16.014   0.254  21.547  0.00  0.00    -0.254 N 
ATOM     21  C13 UNL     1      15.011   1.314  21.642  0.00  0.00    +0.134 C 
ATOM     22  C14 UNL     1      14.703   1.740  20.184  0.00  0.00    +0.125 C 
ATOM     23  N3  UNL     1      15.481   0.850  19.337  0.00  0.00    -0.297 N 
ATOM     24  C15 UNL     1      16.229  -0.003  20.171  0.00  0.00    +0.307 C 
ATOM     25  O1  UNL     1      16.957  -0.931  19.728  0.00  0.00    -0.252 OA
ATOM     26  H13 UNL     1      15.485   0.843  18.293  0.00  0.00    +0.150 HD
ENDBRANCH  18  20
ENDBRANCH   3  14
TORSDOF 3
ENDMDL
MODEL 2
REMARK VINA RESULT:    -6.803      5.060     12.089
REMARK INTER + INTRA:          -8.549
REMARK INTER:                  -8.038
REMARK INTRA:                  -0.511
REMARK UNBOUND:                -0.553
REMARK  Name = /home/qwerty/github/datacon2025hack/step_04_hit_selection/docking/ligands/lig_777.pdb
REMARK  5 active torsions:
REMARK  status: ('A' for Active; 'I' for Inactive)
REMARK    1  A    between atoms: C1_1  and  C2_2
REMARK    2  A    between atoms: C5_5  and  C6_6
REMARK    3  A    between atoms: C7_8  and  C8_9
REMARK    4  A    between atoms: C12_13  and  N2_14
REMARK    5  A    between atoms: C17_23  and  C18_24
REMARK                            x       y       z     vdW  Elec       q    Type
REMARK                         _______ _______ _______ _____ _____    ______ ____
ROOT
ATOM      1  C6  UNL     1      21.391   2.471  30.833  0.00  0.00    +0.260 A 
ATOM      2  N1  UNL     1      21.959   3.672  31.063  0.00  0.00    -0.187 NA
ATOM      3  C7  UNL     1      22.081   3.672  32.407  0.00  0.00    +0.202 A 
ATOM      4  N4  UNL     1      21.612   2.536  32.959  0.00  0.00    -0.056 NA
ATOM      5  O2  UNL     1      21.197   1.823  31.958  0.00  0.00    -0.332 OA
ENDROOT
BRANCH   1  10
ATOM      6  C1  UNL     1      19.826   0.416  25.665  0.00  0.00    +0.065 C 
ATOM      7  C2  UNL     1      20.234   0.968  26.993  0.00  0.00    +0.039 A 
ATOM      8  C3  UNL     1      19.308   1.626  27.803  0.00  0.00    +0.024 A 
ATOM      9  C4  UNL     1      19.707   2.110  29.048  0.00  0.00    +0.017 A 
ATOM     10  C5  UNL     1      21.028   1.934  29.497  0.00  0.00    +0.060 A 
ATOM     11  C17 UNL     1      21.937   1.249  28.645  0.00  0.00    +0.051 A 
ATOM     12  C18 UNL     1      23.370   0.997  29.013  0.00  0.00    +0.066 C 
ATOM     13  N5  UNL     1      21.506   0.792  27.436  0.00  0.00    -0.256 NA
ENDBRANCH   1  10
BRANCH   3  14
ATOM     14  C8  UNL     1      22.660   4.789  33.181  0.00  0.00    +0.024 A 
ATOM     15  C9  UNL     1      23.909   5.327  32.830  0.00  0.00    +0.012 A 
ATOM     16  C10 UNL     1      24.447   6.391  33.556  0.00  0.00    +0.003 A 
ATOM     17  C11 UNL     1      23.751   6.926  34.642  0.00  0.00    +0.023 A 
ATOM     18  C12 UNL     1      22.507   6.395  35.021  0.00  0.00    +0.038 A 
ATOM     19  C16 UNL     1      21.963   5.332  34.276  0.00  0.00    +0.035 A 
BRANCH  18  20
ATOM     20  N2  UNL     1      21.790   6.957  36.138  0.00  0.00    -0.254 N 
ATOM     21  C13 UNL     1      20.494   7.629  36.058  0.00  0.00    +0.134 C 
ATOM     22  C14 UNL     1      20.067   7.904  37.522  0.00  0.00    +0.125 C 
ATOM     23  N3  UNL     1      21.173   7.451  38.351  0.00  0.00    -0.297 N 
ATOM     24  C15 UNL     1      22.159   6.909  37.504  0.00  0.00    +0.307 C 
ATOM     25  O1  UNL     1      23.269   6.488  37.925  0.00  0.00    -0.252 OA
ATOM     26  H13 UNL     1      21.228   7.517  39.392  0.00  0.00    +0.150 HD
ENDBRANCH  18  20
ENDBRANCH   3  14
TORSDOF 3
ENDMDL
MODEL 3
REMARK VINA RESULT:    -6.566     12.151     13.865
REMARK INTER + INTRA:          -8.271
REMARK INTER:                  -7.711
REMARK INTRA:                  -0.560
REMARK UNBOUND:                -0.553
REMARK  Name = /home/qwerty/github/datacon2025hack/step_04_hit_selection/docking/ligands/lig_777.pdb
REMARK  5 active torsions:
REMARK  status: ('A' for Active; 'I' for Inactive)
REMARK    1  A    between atoms: C1_1  and  C2_2
REMARK    2  A    between atoms: C5_5  and  C6_6
REMARK    3  A    between atoms: C7_8  and  C8_9
REMARK    4  A    between atoms: C12_13  and  N2_14
REMARK    5  A    between atoms: C17_23  and  C18_24
REMARK                            x       y       z     vdW  Elec       q    Type
REMARK                         _______ _______ _______ _____ _____    ______ ____
ROOT
ATOM      1  C6  UNL     1       8.832  10.780  27.178  0.00  0.00    +0.260 A 
ATOM      2  N1  UNL     1       9.293  10.747  25.912  0.00  0.00    -0.187 NA
ATOM      3  C7  UNL     1       8.448   9.873  25.328  0.00  0.00    +0.202 A 
ATOM      4  N4  UNL     1       7.527   9.402  26.192  0.00  0.00    -0.056 NA
ATOM      5  O2  UNL     1       7.797   9.984  27.320  0.00  0.00    -0.332 OA
ENDROOT
BRANCH   1  10
ATOM      6  C1  UNL     1      11.113  13.835  31.519  0.00  0.00    +0.065 C 
ATOM      7  C2  UNL     1      10.541  13.050  30.383  0.00  0.00    +0.039 A 
ATOM      8  C3  UNL     1      10.914  11.721  30.181  0.00  0.00    +0.024 A 
ATOM      9  C4  UNL     1      10.347  11.002  29.130  0.00  0.00    +0.017 A 
ATOM     10  C5  UNL     1       9.400  11.599  28.280  0.00  0.00    +0.060 A 
ATOM     11  C17 UNL     1       9.041  12.952  28.527  0.00  0.00    +0.051 A 
ATOM     12  C18 UNL     1       8.041  13.697  27.692  0.00  0.00    +0.066 C 
ATOM     13  N5  UNL     1       9.618  13.619  29.565  0.00  0.00    -0.256 NA
ENDBRANCH   1  10
BRANCH   3  14
ATOM     14  C8  UNL     1       8.525   9.477  23.907  0.00  0.00    +0.024 A 
ATOM     15  C9  UNL     1       8.739  10.443  22.909  0.00  0.00    +0.012 A 
ATOM     16  C10 UNL     1       8.823  10.064  21.568  0.00  0.00    +0.003 A 
ATOM     17  C11 UNL     1       8.690   8.723  21.206  0.00  0.00    +0.023 A 
ATOM     18  C12 UNL     1       8.461   7.741  22.185  0.00  0.00    +0.038 A 
ATOM     19  C16 UNL     1       8.392   8.127  23.536  0.00  0.00    +0.035 A 
BRANCH  18  20
ATOM     20  N2  UNL     1       8.333   6.356  21.804  0.00  0.00    -0.254 N 
ATOM     21  C13 UNL     1       9.330   5.316  22.052  0.00  0.00    +0.134 C 
ATOM     22  C14 UNL     1       8.672   3.983  21.615  0.00  0.00    +0.125 C 
ATOM     23  N3  UNL     1       7.373   4.341  21.068  0.00  0.00    -0.297 N 
ATOM     24  C15 UNL     1       7.216   5.735  21.194  0.00  0.00    +0.307 C 
ATOM     25  O1  UNL     1       6.214   6.356  20.750  0.00  0.00    -0.252 OA
ATOM     26  H13 UNL     1       6.678   3.682  20.652  0.00  0.00    +0.150 HD
ENDBRANCH  18  20
ENDBRANCH   3  14
TORSDOF 3
ENDMDL
MODEL 4
REMARK VINA RESULT:    -6.466      2.005      2.564
REMARK INTER + INTRA:          -8.154
REMARK INTER:                  -7.575
REMARK INTRA:                  -0.578
REMARK UNBOUND:                -0.553
REMARK  Name = /home/qwerty/github/datacon2025hack/step_04_hit_selection/docking/ligands/lig_777.pdb
REMARK  5 active torsions:
REMARK  status: ('A' for Active; 'I' for Inactive)
REMARK    1  A    between atoms: C1_1  and  C2_2
REMARK    2  A    between atoms: C5_5  and  C6_6
REMARK    3  A    between atoms: C7_8  and  C8_9
REMARK    4  A    between atoms: C12_13  and  N2_14
REMARK    5  A    between atoms: C17_23  and  C18_24
REMARK                            x       y       z     vdW  Elec       q    Type
REMARK                         _______ _______ _______ _____ _____    ______ ____
ROOT
ATOM      1  C6  UNL     1      19.697   1.665  26.021  0.00  0.00    +0.260 A 
ATOM      2  N1  UNL     1      19.345   0.776  25.071  0.00  0.00    -0.187 NA
ATOM      3  C7  UNL     1      18.249   1.354  24.539  0.00  0.00    +0.202 A 
ATOM      4  N4  UNL     1      17.953   2.526  25.133  0.00  0.00    -0.056 NA
ATOM      5  O2  UNL     1      18.867   2.683  26.040  0.00  0.00    -0.332 OA
ENDROOT
BRANCH   1  10
ATOM      6  C1  UNL     1      24.142   1.060  29.663  0.00  0.00    +0.065 C 
ATOM      7  C2  UNL     1      22.999   1.199  28.709  0.00  0.00    +0.039 A 
ATOM      8  C3  UNL     1      21.836   0.448  28.882  0.00  0.00    +0.024 A 
ATOM      9  C4  UNL     1      20.775   0.614  27.993  0.00  0.00    +0.017 A 
ATOM     10  C5  UNL     1      20.862   1.534  26.934  0.00  0.00    +0.060 A 
ATOM     11  C17 UNL     1      22.061   2.286  26.800  0.00  0.00    +0.051 A 
ATOM     12  C18 UNL     1      22.274   3.299  25.713  0.00  0.00    +0.066 C 
ATOM     13  N5  UNL     1      23.075   2.093  27.690  0.00  0.00    -0.256 NA
ENDBRANCH   1  10
BRANCH   3  14
ATOM     14  C8  UNL     1      17.464   0.766  23.433  0.00  0.00    +0.024 A 
ATOM     15  C9  UNL     1      17.628  -0.583  23.081  0.00  0.00    +0.012 A 
ATOM     16  C10 UNL     1      16.876  -1.138  22.044  0.00  0.00    +0.003 A 
ATOM     17  C11 UNL     1      15.959  -0.353  21.342  0.00  0.00    +0.023 A 
ATOM     18  C12 UNL     1      15.789   1.003  21.666  0.00  0.00    +0.038 A 
ATOM     19  C16 UNL     1      16.538   1.552  22.722  0.00  0.00    +0.035 A 
BRANCH  18  20
ATOM     20  N2  UNL     1      14.833   1.805  20.942  0.00  0.00    -0.254 N 
ATOM     21  C13 UNL     1      13.383   1.764  21.127  0.00  0.00    +0.134 C 
ATOM     22  C14 UNL     1      12.811   2.910  20.255  0.00  0.00    +0.125 C 
ATOM     23  N3  UNL     1      13.951   3.488  19.560  0.00  0.00    -0.297 N 
ATOM     24  C15 UNL     1      15.110   2.813  19.987  0.00  0.00    +0.307 C 
ATOM     25  O1  UNL     1      16.254   3.047  19.514  0.00  0.00    -0.252 OA
ATOM     26  H13 UNL     1      13.916   4.267  18.866  0.00  0.00    +0.150 HD
ENDBRANCH  18  20
ENDBRANCH   3  14
TORSDOF 3
ENDMDL
MODEL 5
REMARK VINA RESULT:    -6.369     13.620     16.689
REMARK INTER + INTRA:          -8.039
REMARK INTER:                  -7.705
REMARK INTRA:                  -0.334
REMARK UNBOUND:                -0.553
REMARK  Name = /home/qwerty/github/datacon2025hack/step_04_hit_selection/docking/ligands/lig_777.pdb
REMARK  5 active torsions:
REMARK  status: ('A' for Active; 'I' for Inactive)
REMARK    1  A    between atoms: C1_1  and  C2_2
REMARK    2  A    between atoms: C5_5  and  C6_6
REMARK    3  A    between atoms: C7_8  and  C8_9
REMARK    4  A    between atoms: C12_13  and  N2_14
REMARK    5  A    between atoms: C17_23  and  C18_24
REMARK                            x       y       z     vdW  Elec       q    Type
REMARK                         _______ _______ _______ _____ _____    ______ ____
ROOT
ATOM      1  C6  UNL     1      14.845  11.576  36.995  0.00  0.00    +0.260 A 
ATOM      2  N1  UNL     1      15.141  10.289  36.724  0.00  0.00    -0.187 NA
ATOM      3  C7  UNL     1      16.382  10.172  37.240  0.00  0.00    +0.202 A 
ATOM      4  N4  UNL     1      16.814  11.324  37.791  0.00  0.00    -0.056 NA
ATOM      5  O2  UNL     1      15.839  12.163  37.620  0.00  0.00    -0.332 OA
ENDROOT
BRANCH   1  10
ATOM      6  C1  UNL     1       9.818  14.104  35.683  0.00  0.00    +0.065 C 
ATOM      7  C2  UNL     1      11.118  13.460  36.043  0.00  0.00    +0.039 A 
ATOM      8  C3  UNL     1      11.141  12.248  36.735  0.00  0.00    +0.024 A 
ATOM      9  C4  UNL     1      12.366  11.655  37.036  0.00  0.00    +0.017 A 
ATOM     10  C5  UNL     1      13.573  12.259  36.644  0.00  0.00    +0.060 A 
ATOM     11  C17 UNL     1      13.504  13.487  35.932  0.00  0.00    +0.051 A 
ATOM     12  C18 UNL     1      14.721  14.227  35.458  0.00  0.00    +0.066 C 
ATOM     13  N5  UNL     1      12.287  14.034  35.657  0.00  0.00    -0.256 NA
ENDBRANCH   1  10
BRANCH   3  14
ATOM     14  C8  UNL     1      17.174   8.925  37.202  0.00  0.00    +0.024 A 
ATOM     15  C9  UNL     1      16.599   7.704  37.589  0.00  0.00    +0.012 A 
ATOM     16  C10 UNL     1      17.347   6.526  37.540  0.00  0.00    +0.003 A 
ATOM     17  C11 UNL     1      18.676   6.553  37.113  0.00  0.00    +0.023 A 
ATOM     18  C12 UNL     1      19.277   7.766  36.736  0.00  0.00    +0.038 A 
ATOM     19  C16 UNL     1      18.514   8.947  36.772  0.00  0.00    +0.035 A 
BRANCH  18  20
ATOM     20  N2  UNL     1      20.648   7.785  36.287  0.00  0.00    -0.254 N 
ATOM     21  C13 UNL     1      21.093   8.168  34.948  0.00  0.00    +0.134 C 
ATOM     22  C14 UNL     1      22.641   8.188  35.005  0.00  0.00    +0.125 C 
ATOM     23  N3  UNL     1      22.996   7.739  36.342  0.00  0.00    -0.297 N 
ATOM     24  C15 UNL     1      21.804   7.512  37.056  0.00  0.00    +0.307 C 
ATOM     25  O1  UNL     1      21.784   7.053  38.230  0.00  0.00    -0.252 OA
ATOM     26  H13 UNL     1      23.965   7.607  36.709  0.00  0.00    +0.150 HD
ENDBRANCH  18  20
ENDBRANCH   3  14
TORSDOF 3
ENDMDL
MODEL 6
REMARK VINA RESULT:    -6.182      6.302     12.436
REMARK INTER + INTRA:          -7.820
REMARK INTER:                  -7.253
REMARK INTRA:                  -0.567
REMARK UNBOUND:                -0.553
REMARK  Name = /home/qwerty/github/datacon2025hack/step_04_hit_selection/docking/ligands/lig_777.pdb
REMARK  5 active torsions:
REMARK  status: ('A' for Active; 'I' for Inactive)
REMARK    1  A    between atoms: C1_1  and  C2_2
REMARK    2  A    between atoms: C5_5  and  C6_6
REMARK    3  A    between atoms: C7_8  and  C8_9
REMARK    4  A    between atoms: C12_13  and  N2_14
REMARK    5  A    between atoms: C17_23  and  C18_24
REMARK                            x       y       z     vdW  Elec       q    Type
REMARK                         _______ _______ _______ _____ _____    ______ ____
ROOT
ATOM      1  C6  UNL     1      21.125   4.199  31.024  0.00  0.00    +0.260 A 
ATOM      2  N1  UNL     1      21.887   4.963  31.831  0.00  0.00    -0.187 NA
ATOM      3  C7  UNL     1      21.165   4.975  32.970  0.00  0.00    +0.202 A 
ATOM      4  N4  UNL     1      20.028   4.259  32.859  0.00  0.00    -0.056 NA
ATOM      5  O2  UNL     1      20.041   3.798  31.646  0.00  0.00    -0.332 OA
ENDROOT
BRANCH   1  10
ATOM      6  C1  UNL     1      22.329   2.963  25.510  0.00  0.00    +0.065 C 
ATOM      7  C2  UNL     1      22.039   3.291  26.939  0.00  0.00    +0.039 A 
ATOM      8  C3  UNL     1      21.616   4.570  27.301  0.00  0.00    +0.024 A 
ATOM      9  C4  UNL     1      21.327   4.844  28.637  0.00  0.00    +0.017 A 
ATOM     10  C5  UNL     1      21.449   3.845  29.618  0.00  0.00    +0.060 A 
ATOM     11  C17 UNL     1      21.872   2.552  29.204  0.00  0.00    +0.051 A 
ATOM     12  C18 UNL     1      22.037   1.403  30.156  0.00  0.00    +0.066 C 
ATOM     13  N5  UNL     1      22.145   2.326  27.889  0.00  0.00    -0.256 NA
ENDBRANCH   1  10
BRANCH   3  14
ATOM     14  C8  UNL     1      21.573   5.691  34.197  0.00  0.00    +0.024 A 
ATOM     15  C9  UNL     1      22.852   5.497  34.743  0.00  0.00    +0.012 A 
ATOM     16  C10 UNL     1      23.239   6.185  35.894  0.00  0.00    +0.003 A 
ATOM     17  C11 UNL     1      22.355   7.068  36.517  0.00  0.00    +0.023 A 
ATOM     18  C12 UNL     1      21.064   7.267  35.998  0.00  0.00    +0.038 A 
ATOM     19  C16 UNL     1      20.686   6.582  34.828  0.00  0.00    +0.035 A 
BRANCH  18  20
ATOM     20  N2  UNL     1      20.159   8.187  36.642  0.00  0.00    -0.254 N 
ATOM     21  C13 UNL     1      19.081   7.811  37.555  0.00  0.00    +0.134 C 
ATOM     22  C14 UNL     1      18.507   9.140  38.105  0.00  0.00    +0.125 C 
ATOM     23  N3  UNL     1      19.230  10.200  37.419  0.00  0.00    -0.297 N 
ATOM     24  C15 UNL     1      20.182   9.600  36.572  0.00  0.00    +0.307 C 
ATOM     25  O1  UNL     1      20.922  10.261  35.796  0.00  0.00    -0.252 OA
ATOM     26  H13 UNL     1      19.071  11.226  37.533  0.00  0.00    +0.150 HD
ENDBRANCH  18  20
ENDBRANCH   3  14
TORSDOF 3
ENDMDL
MODEL 7
REMARK VINA RESULT:    -6.098     12.412     15.784
REMARK INTER + INTRA:          -7.722
REMARK INTER:                  -7.177
REMARK INTRA:                  -0.545
REMARK UNBOUND:                -0.553
REMARK  Name = /home/qwerty/github/datacon2025hack/step_04_hit_selection/docking/ligands/lig_777.pdb
REMARK  5 active torsions:
REMARK  status: ('A' for Active; 'I' for Inactive)
REMARK    1  A    between atoms: C1_1  and  C2_2
REMARK    2  A    between atoms: C5_5  and  C6_6
REMARK    3  A    between atoms: C7_8  and  C8_9
REMARK    4  A    between atoms: C12_13  and  N2_14
REMARK    5  A    between atoms: C17_23  and  C18_24
REMARK                            x       y       z     vdW  Elec       q    Type
REMARK                         _______ _______ _______ _____ _____    ______ ____
ROOT
ATOM      1  C6  UNL     1       8.460   9.320  25.415  0.00  0.00    +0.260 A 
ATOM      2  N1  UNL     1       9.395  10.244  25.713  0.00  0.00    -0.187 NA
ATOM      3  C7  UNL     1       8.932  10.748  26.875  0.00  0.00    +0.202 A 
ATOM      4  N4  UNL     1       7.780  10.163  27.259  0.00  0.00    -0.056 NA
ATOM      5  O2  UNL     1       7.523   9.290  26.335  0.00  0.00    -0.332 OA
ENDROOT
BRANCH   1  10
ATOM      6  C1  UNL     1       8.544   5.791  20.841  0.00  0.00    +0.065 C 
ATOM      7  C2  UNL     1       8.500   6.699  22.029  0.00  0.00    +0.039 A 
ATOM      8  C3  UNL     1       8.736   6.200  23.310  0.00  0.00    +0.024 A 
ATOM      9  C4  UNL     1       8.716   7.072  24.398  0.00  0.00    +0.017 A 
ATOM     10  C5  UNL     1       8.468   8.443  24.216  0.00  0.00    +0.060 A 
ATOM     11  C17 UNL     1       8.243   8.910  22.892  0.00  0.00    +0.051 A 
ATOM     12  C18 UNL     1       7.971  10.351  22.569  0.00  0.00    +0.066 C 
ATOM     13  N5  UNL     1       8.272   8.026  21.856  0.00  0.00    -0.256 NA
ENDBRANCH   1  10
BRANCH   3  14
ATOM     14  C8  UNL     1       9.610  11.818  27.637  0.00  0.00    +0.024 A 
ATOM     15  C9  UNL     1       8.917  12.538  28.624  0.00  0.00    +0.012 A 
ATOM     16  C10 UNL     1       9.564  13.540  29.349  0.00  0.00    +0.003 A 
ATOM     17  C11 UNL     1      10.904  13.838  29.096  0.00  0.00    +0.023 A 
ATOM     18  C12 UNL     1      11.613  13.142  28.104  0.00  0.00    +0.038 A 
ATOM     19  C16 UNL     1      10.960  12.123  27.386  0.00  0.00    +0.035 A 
BRANCH  18  20
ATOM     20  N2  UNL     1      13.000  13.450  27.853  0.00  0.00    -0.254 N 
ATOM     21  C13 UNL     1      14.140  12.776  28.473  0.00  0.00    +0.134 C 
ATOM     22  C14 UNL     1      15.400  13.339  27.769  0.00  0.00    +0.125 C 
ATOM     23  N3  UNL     1      14.920  14.357  26.848  0.00  0.00    -0.297 N 
ATOM     24  C15 UNL     1      13.514  14.392  26.931  0.00  0.00    +0.307 C 
ATOM     25  O1  UNL     1      12.810  15.220  26.295  0.00  0.00    -0.252 OA
ATOM     26  H13 UNL     1      15.512  14.959  26.233  0.00  0.00    +0.150 HD
ENDBRANCH  18  20
ENDBRANCH   3  14
TORSDOF 3
ENDMDL
MODEL 8
REMARK VINA RESULT:    -6.087      4.292      7.518
REMARK INTER + INTRA:          -7.708
REMARK INTER:                  -7.172
REMARK INTRA:                  -0.536
REMARK UNBOUND:                -0.553
REMARK  Name = /home/qwerty/github/datacon2025hack/step_04_hit_selection/docking/ligands/lig_777.pdb
REMARK  5 active torsions:
REMARK  status: ('A' for Active; 'I' for Inactive)
REMARK    1  A    between atoms: C1_1  and  C2_2
REMARK    2  A    between atoms: C5_5  and  C6_6
REMARK    3  A    between atoms: C7_8  and  C8_9
REMARK    4  A    between atoms: C12_13  and  N2_14
REMARK    5  A    between atoms: C17_23  and  C18_24
REMARK                            x       y       z     vdW  Elec       q    Type
REMARK                         _______ _______ _______ _____ _____    ______ ____
ROOT
ATOM      1  C6  UNL     1      21.075   5.570  32.406  0.00  0.00    +0.260 A 
ATOM      2  N1  UNL     1      21.094   4.261  32.086  0.00  0.00    -0.187 NA
ATOM      3  C7  UNL     1      21.465   4.294  30.790  0.00  0.00    +0.202 A 
ATOM      4  N4  UNL     1      21.659   5.553  30.349  0.00  0.00    -0.056 NA
ATOM      5  O2  UNL     1      21.409   6.309  31.373  0.00  0.00    -0.332 OA
ENDROOT
BRANCH   1  10
ATOM      6  C1  UNL     1      19.580   7.762  37.539  0.00  0.00    +0.065 C 
ATOM      7  C2  UNL     1      19.960   7.174  36.217  0.00  0.00    +0.039 A 
ATOM      8  C3  UNL     1      19.006   7.014  35.212  0.00  0.00    +0.024 A 
ATOM      9  C4  UNL     1      19.391   6.488  33.980  0.00  0.00    +0.017 A 
ATOM     10  C5  UNL     1      20.728   6.125  33.739  0.00  0.00    +0.060 A 
ATOM     11  C17 UNL     1      21.669   6.314  34.788  0.00  0.00    +0.051 A 
ATOM     12  C18 UNL     1      23.123   5.968  34.653  0.00  0.00    +0.066 C 
ATOM     13  N5  UNL     1      21.252   6.832  35.977  0.00  0.00    -0.256 NA
ENDBRANCH   1  10
BRANCH   3  14
ATOM     14  C8  UNL     1      21.637   3.089  29.952  0.00  0.00    +0.024 A 
ATOM     15  C9  UNL     1      22.030   1.871  30.528  0.00  0.00    +0.012 A 
ATOM     16  C10 UNL     1      22.180   0.731  29.736  0.00  0.00    +0.003 A 
ATOM     17  C11 UNL     1      21.945   0.795  28.361  0.00  0.00    +0.023 A 
ATOM     18  C12 UNL     1      21.566   2.006  27.759  0.00  0.00    +0.038 A 
ATOM     19  C16 UNL     1      21.402   3.147  28.566  0.00  0.00    +0.035 A 
BRANCH  18  20
ATOM     20  N2  UNL     1      21.317   2.063  26.340  0.00  0.00    -0.254 N 
ATOM     21  C13 UNL     1      20.253   1.345  25.639  0.00  0.00    +0.134 C 
ATOM     22  C14 UNL     1      20.291   1.852  24.175  0.00  0.00    +0.125 C 
ATOM     23  N3  UNL     1      21.420   2.765  24.100  0.00  0.00    -0.297 N 
ATOM     24  C15 UNL     1      21.993   2.858  25.383  0.00  0.00    +0.307 C 
ATOM     25  O1  UNL     1      23.032   3.528  25.624  0.00  0.00    -0.252 OA
ATOM     26  H13 UNL     1      21.750   3.265  23.244  0.00  0.00    +0.150 HD
ENDBRANCH  18  20
ENDBRANCH   3  14
TORSDOF 3
ENDMDL
MODEL 9
REMARK VINA RESULT:    -5.997     14.012     17.454
REMARK INTER + INTRA:          -7.602
REMARK INTER:                  -7.042
REMARK INTRA:                  -0.560
REMARK UNBOUND:                -0.553
REMARK  Name = /home/qwerty/github/datacon2025hack/step_04_hit_selection/docking/ligands/lig_777.pdb
REMARK  5 active torsions:
REMARK  status: ('A' for Active; 'I' for Inactive)
REMARK    1  A    between atoms: C1_1  and  C2_2
REMARK    2  A    between atoms: C5_5  and  C6_6
REMARK    3  A    between atoms: C7_8  and  C8_9
REMARK    4  A    between atoms: C12_13  and  N2_14
REMARK    5  A    between atoms: C17_23  and  C18_24
REMARK                            x       y       z     vdW  Elec       q    Type
REMARK                         _______ _______ _______ _____ _____    ______ ____
ROOT
ATOM      1  C6  UNL     1      10.374  12.464  30.168  0.00  0.00    +0.260 A 
ATOM      2  N1  UNL     1      10.943  11.819  31.206  0.00  0.00    -0.187 NA
ATOM      3  C7  UNL     1      11.327  12.843  31.996  0.00  0.00    +0.202 A 
ATOM      4  N4  UNL     1      11.010  14.041  31.465  0.00  0.00    -0.056 NA
ATOM      5  O2  UNL     1      10.425  13.765  30.340  0.00  0.00    -0.332 OA
ENDROOT
BRANCH   1  10
ATOM      6  C1  UNL     1       7.895   9.870  25.639  0.00  0.00    +0.065 C 
ATOM      7  C2  UNL     1       8.524  10.560  26.807  0.00  0.00    +0.039 A 
ATOM      8  C3  UNL     1       7.896  10.560  28.053  0.00  0.00    +0.024 A 
ATOM      9  C4  UNL     1       8.515  11.189  29.132  0.00  0.00    +0.017 A 
ATOM     10  C5  UNL     1       9.766  11.812  28.979  0.00  0.00    +0.060 A 
ATOM     11  C17 UNL     1      10.376  11.779  27.695  0.00  0.00    +0.051 A 
ATOM     12  C18 UNL     1      11.709  12.406  27.408  0.00  0.00    +0.066 C 
ATOM     13  N5  UNL     1       9.737  11.155  26.667  0.00  0.00    -0.256 NA
ENDBRANCH   1  10
BRANCH   3  14
ATOM     14  C8  UNL     1      12.016  12.670  33.291  0.00  0.00    +0.024 A 
ATOM     15  C9  UNL     1      11.341  12.109  34.388  0.00  0.00    +0.012 A 
ATOM     16  C10 UNL     1      11.999  11.936  35.607  0.00  0.00    +0.003 A 
ATOM     17  C11 UNL     1      13.333  12.323  35.748  0.00  0.00    +0.023 A 
ATOM     18  C12 UNL     1      14.024  12.900  34.669  0.00  0.00    +0.038 A 
ATOM     19  C16 UNL     1      13.360  13.059  33.439  0.00  0.00    +0.035 A 
BRANCH  18  20
ATOM     20  N2  UNL     1      15.404  13.290  34.820  0.00  0.00    -0.254 N 
ATOM     21  C13 UNL     1      16.554  12.540  34.318  0.00  0.00    +0.134 C 
ATOM     22  C14 UNL     1      17.792  13.435  34.577  0.00  0.00    +0.125 C 
ATOM     23  N3  UNL     1      17.295  14.606  35.283  0.00  0.00    -0.297 N 
ATOM     24  C15 UNL     1      15.899  14.480  35.407  0.00  0.00    +0.307 C 
ATOM     25  O1  UNL     1      15.187  15.312  36.031  0.00  0.00    -0.252 OA
ATOM     26  H13 UNL     1      17.873  15.401  35.637  0.00  0.00    +0.150 HD
ENDBRANCH  18  20
ENDBRANCH   3  14
TORSDOF 3
ENDMDL
