REMARK  Name = /home/qwerty/github/datacon2025hack/step_04_hit_selection/docking/ligands/lig_630.pdb
REMARK  6 active torsions:
REMARK  status: ('A' for Active; 'I' for Inactive)
REMARK    1  A    between atoms: C1_1  and  C2_2
REMARK    2  A    between atoms: C2_2  and  C3_3
REMARK    3  A    between atoms: C2_2  and  C14_20
REMARK    4  A    between atoms: C6_8  and  N2_9
REMARK    5  A    between atoms: N2_9  and  C7_10
REMARK    6  A    between atoms: C8_11  and  C9_13
REMARK                            x       y       z     vdW  Elec       q    Type
REMARK                         _______ _______ _______ _____ _____    ______ ____
ROOT
ATOM      1  C3  UNL     1       2.096  -0.500   0.540  0.00  0.00    +0.223 C 
ATOM      2  O1  UNL     1       2.851  -1.115   1.344  0.00  0.00    -0.275 OA
ATOM      3  N1  UNL     1       0.866  -1.122   0.120  0.00  0.00    -0.299 N 
ATOM      4  C4  UNL     1       0.485  -2.457   0.550  0.00  0.00    +0.109 C 
ATOM      5  C5  UNL     1      -0.844  -2.762  -0.131  0.00  0.00    +0.043 C 
ATOM      6  C6  UNL     1      -1.328  -1.446  -0.756  0.00  0.00    +0.095 C 
ATOM      7  C13 UNL     1      -0.130  -0.491  -0.730  0.00  0.00    +0.130 C 
ENDROOT
BRANCH   6   8
ATOM      8  N2  UNL     1      -2.488  -0.898  -0.022  0.00  0.00    -0.295 N 
ATOM      9  C7  UNL     1      -2.351  -0.419   1.362  0.00  0.00    +0.132 C 
ATOM     10  C8  UNL     1      -3.810  -1.083  -0.571  0.00  0.00    +0.265 C 
ATOM     11  O2  UNL     1      -4.054  -2.113  -1.257  0.00  0.00    -0.268 OA
BRANCH  10  12
ATOM     12  C9  UNL     1      -4.886  -0.088  -0.357  0.00  0.00    +0.129 A 
ATOM     13  C10 UNL     1      -6.229  -0.419  -0.590  0.00  0.00    +0.053 A 
ATOM     14  C11 UNL     1      -7.203   0.559  -0.395  0.00  0.00    +0.115 A 
ATOM     15  N3  UNL     1      -6.843   1.806   0.006  0.00  0.00    -0.244 NA
ATOM     16  C12 UNL     1      -5.539   2.117   0.221  0.00  0.00    +0.221 A 
ATOM     17  N4  UNL     1      -4.576   1.177   0.036  0.00  0.00    -0.231 NA
ENDBRANCH  10  12
ENDBRANCH   6   8
BRANCH   1  19
ATOM     18  C1  UNL     1       2.071   1.924   1.159  0.00  0.00    +0.022 C 
ATOM     19  C2  UNL     1       2.475   0.897   0.095  0.00  0.00    +0.102 C 
BRANCH  19  20
ATOM     20  C14 UNL     1       3.952   0.983  -0.255  0.00  0.00    -0.036 A 
ATOM     21  C15 UNL     1       4.948   0.980   0.743  0.00  0.00    +0.004 A 
ATOM     22  C16 UNL     1       6.301   1.038   0.395  0.00  0.00    +0.000 A 
ATOM     23  C17 UNL     1       6.677   1.091  -0.949  0.00  0.00    +0.000 A 
ATOM     24  C18 UNL     1       5.702   1.080  -1.948  0.00  0.00    +0.000 A 
ATOM     25  C19 UNL     1       4.347   1.022  -1.606  0.00  0.00    +0.004 A 
ENDBRANCH  19  20
ENDBRANCH   1  19
TORSDOF 4
