REMARK  Name = /home/qwerty/github/datacon2025hack/step_04_hit_selection/docking/ligands/lig_384.pdb
REMARK  9 active torsions:
REMARK  status: ('A' for Active; 'I' for Inactive)
REMARK    1  A    between atoms: C1_1  and  C2_2
REMARK    2  A    between atoms: C2_2  and  C3_3
REMARK    3  A    between atoms: C2_2  and  C4_4
REMARK    4  A    between atoms: C2_2  and  C5_5
REMARK    5  A    between atoms: N1_7  and  C6_8
REMARK    6  A    between atoms: C9_11  and  S1_12
REMARK    7  A    between atoms: S1_12  and  N2_15
REMARK    8  A    between atoms: N2_15  and  C10_16
REMARK    9  A    between atoms: C14_20  and  C15_21
REMARK                            x       y       z     vdW  Elec       q    Type
REMARK                         _______ _______ _______ _____ _____    ______ ____
ROOT
ATOM      1  N2  UNL     1       0.323  -2.161  -3.417  0.00  0.00    -0.216 N 
ATOM      2  H13 UNL     1       0.602  -1.687  -4.305  0.00  0.00    +0.174 HD
ENDROOT
BRANCH   1   3
ATOM      3  C10 UNL     1       1.014  -1.829  -2.202  0.00  0.00    +0.049 A 
ATOM      4  C11 UNL     1       0.931  -2.648  -1.063  0.00  0.00    +0.024 A 
ATOM      5  C12 UNL     1       1.598  -2.292   0.111  0.00  0.00    +0.003 A 
ATOM      6  C13 UNL     1       2.361  -1.124   0.159  0.00  0.00    +0.012 A 
ATOM      7  C14 UNL     1       2.479  -0.311  -0.977  0.00  0.00    +0.021 A 
ATOM      8  C22 UNL     1       1.794  -0.663  -2.151  0.00  0.00    +0.036 A 
BRANCH   7   9
ATOM      9  C15 UNL     1       3.253   0.946  -0.932  0.00  0.00    +0.164 A 
ATOM     10  N3  UNL     1       2.783   2.107  -1.431  0.00  0.00    -0.129 NA
ATOM     11  N4  UNL     1       3.704   3.030  -1.206  0.00  0.00    -0.134 NA
ATOM     12  C16 UNL     1       4.725   2.424  -0.567  0.00  0.00    +0.134 A 
ATOM     13  N5  UNL     1       4.489   1.100  -0.405  0.00  0.00    -0.311 N 
ATOM     14  C17 UNL     1       5.342   0.070   0.207  0.00  0.00    +0.125 C 
ATOM     15  C18 UNL     1       6.828   0.307  -0.087  0.00  0.00    +0.022 C 
ATOM     16  C19 UNL     1       7.473   1.349   0.844  0.00  0.00    +0.002 C 
ATOM     17  C20 UNL     1       6.620   2.604   1.089  0.00  0.00    +0.008 C 
ATOM     18  C21 UNL     1       5.986   3.155  -0.193  0.00  0.00    +0.076 C 
ENDBRANCH   7   9
ENDBRANCH   1   3
BRANCH   1  19
ATOM     19  S1  UNL     1      -1.160  -3.060  -3.434  0.00  0.00    +0.072 S 
ATOM     20  O2  UNL     1      -0.869  -4.517  -3.202  0.00  0.00    -0.150 OA
ATOM     21  O3  UNL     1      -1.822  -2.909  -4.774  0.00  0.00    -0.150 OA
BRANCH  19  25
ATOM     22  C6  UNL     1      -3.841  -1.324  -0.160  0.00  0.00    +0.034 A 
ATOM     23  C7  UNL     1      -3.508  -0.562  -1.297  0.00  0.00    +0.025 A 
ATOM     24  C8  UNL     1      -2.705  -1.107  -2.302  0.00  0.00    +0.030 A 
ATOM     25  C9  UNL     1      -2.236  -2.421  -2.195  0.00  0.00    +0.109 A 
ATOM     26  C23 UNL     1      -2.594  -3.197  -1.084  0.00  0.00    +0.030 A 
ATOM     27  C24 UNL     1      -3.396  -2.652  -0.077  0.00  0.00    +0.025 A 
BRANCH  22  30
ATOM     28  C5  UNL     1      -4.733   0.611   1.223  0.00  0.00    +0.223 C 
ATOM     29  O1  UNL     1      -3.769   1.368   0.917  0.00  0.00    -0.275 OA
ATOM     30  N1  UNL     1      -4.667  -0.788   0.889  0.00  0.00    -0.285 N 
ATOM     31  H10 UNL     1      -5.187  -1.464   1.490  0.00  0.00    +0.155 HD
BRANCH  28  33
ATOM     32  C1  UNL     1      -5.976   2.698   1.905  0.00  0.00    +0.020 C 
ATOM     33  C2  UNL     1      -5.899   1.160   2.036  0.00  0.00    +0.039 C 
ATOM     34  C3  UNL     1      -5.697   0.791   3.517  0.00  0.00    +0.020 C 
ATOM     35  C4  UNL     1      -7.229   0.565   1.528  0.00  0.00    +0.020 C 
ENDBRANCH  28  33
ENDBRANCH  22  30
ENDBRANCH  19  25
ENDBRANCH   1  19
TORSDOF 6
