MODEL 1
REMARK VINA RESULT:    -7.171      0.000      0.000
REMARK INTER + INTRA:          -9.398
REMARK INTER:                  -8.428
REMARK INTRA:                  -0.970
REMARK UNBOUND:                -0.970
REMARK  Name = /home/qwerty/github/datacon2025hack/step_04_hit_selection/docking/ligands/lig_563.pdb
REMARK  5 active torsions:
REMARK  status: ('A' for Active; 'I' for Inactive)
REMARK    1  A    between atoms: C1_1  and  N1_2
REMARK    2  A    between atoms: N1_2  and  C2_3
REMARK    3  A    between atoms: C3_4  and  C4_6
REMARK    4  A    between atoms: C7_9  and  C8_10
REMARK    5  A    between atoms: C11_13  and  C12_14
REMARK                            x       y       z     vdW  Elec       q    Type
REMARK                         _______ _______ _______ _____ _____    ______ ____
ROOT
ATOM      1  C8  UNL     1      23.652  15.349  23.815  0.00  0.00    +0.072 A 
ATOM      2  C9  UNL     1      22.958  14.753  22.733  0.00  0.00    +0.039 A 
ATOM      3  C10 UNL     1      23.480  14.937  21.453  0.00  0.00    +0.011 A 
ATOM      4  C11 UNL     1      23.072  14.471  20.215  0.00  0.00    +0.010 A 
ATOM      5  C18 UNL     1      24.045  14.903  19.316  0.00  0.00    +0.092 A 
ATOM      6  N2  UNL     1      24.997  15.617  19.956  0.00  0.00    -0.359 N 
ATOM      7  C19 UNL     1      24.642  15.627  21.251  0.00  0.00    +0.065 A 
ATOM      8  C20 UNL     1      25.328  16.196  22.316  0.00  0.00    +0.137 A 
ATOM      9  N3  UNL     1      24.813  16.043  23.570  0.00  0.00    -0.253 NA
ATOM     10  H14 UNL     1      25.844  16.054  19.529  0.00  0.00    +0.165 HD
ENDROOT
BRANCH   4  11
ATOM     11  C12 UNL     1      21.883  13.655  19.890  0.00  0.00    +0.019 A 
ATOM     12  C13 UNL     1      22.048  12.323  19.479  0.00  0.00    +0.014 A 
ATOM     13  C14 UNL     1      20.935  11.536  19.169  0.00  0.00    +0.039 A 
ATOM     14  C15 UNL     1      19.649  12.077  19.254  0.00  0.00    +0.126 A 
ATOM     15  F1  UNL     1      18.571  11.314  18.950  0.00  0.00    -0.205 F 
ATOM     16  C16 UNL     1      19.477  13.408  19.641  0.00  0.00    +0.077 A 
ATOM     17  C17 UNL     1      20.586  14.201  19.954  0.00  0.00    +0.134 A 
ATOM     18  F2  UNL     1      20.394  15.507  20.266  0.00  0.00    -0.205 F 
ENDBRANCH   4  11
BRANCH   1  22
ATOM     19  C4  UNL     1      22.262  14.931  27.872  0.00  0.00    +0.037 A 
ATOM     20  C5  UNL     1      22.895  13.863  27.220  0.00  0.00    +0.014 A 
ATOM     21  C6  UNL     1      23.341  14.003  25.902  0.00  0.00    +0.011 A 
ATOM     22  C7  UNL     1      23.168  15.216  25.212  0.00  0.00    +0.000 A 
ATOM     23  C21 UNL     1      22.562  16.295  25.883  0.00  0.00    +0.011 A 
ATOM     24  C22 UNL     1      22.116  16.154  27.200  0.00  0.00    +0.014 A 
BRANCH  19  28
ATOM     25  C1  UNL     1      20.023  15.191  30.981  0.00  0.00    +0.132 C 
ATOM     26  N1  UNL     1      20.409  14.801  29.623  0.00  0.00    -0.304 N 
ATOM     27  C2  UNL     1      19.401  14.286  28.689  0.00  0.00    +0.132 C 
ATOM     28  C3  UNL     1      21.808  14.780  29.271  0.00  0.00    +0.246 C 
ATOM     29  O1  UNL     1      22.674  14.620  30.175  0.00  0.00    -0.270 OA
ENDBRANCH  19  28
ENDBRANCH   1  22
TORSDOF 3
ENDMDL
MODEL 2
REMARK VINA RESULT:    -6.958     10.655     13.536
REMARK INTER + INTRA:          -9.148
REMARK INTER:                  -8.531
REMARK INTRA:                  -0.617
REMARK UNBOUND:                -0.970
REMARK  Name = /home/qwerty/github/datacon2025hack/step_04_hit_selection/docking/ligands/lig_563.pdb
REMARK  5 active torsions:
REMARK  status: ('A' for Active; 'I' for Inactive)
REMARK    1  A    between atoms: C1_1  and  N1_2
REMARK    2  A    between atoms: N1_2  and  C2_3
REMARK    3  A    between atoms: C3_4  and  C4_6
REMARK    4  A    between atoms: C7_9  and  C8_10
REMARK    5  A    between atoms: C11_13  and  C12_14
REMARK                            x       y       z     vdW  Elec       q    Type
REMARK                         _______ _______ _______ _____ _____    ______ ____
ROOT
ATOM      1  C8  UNL     1      20.432   8.973  36.414  0.00  0.00    +0.072 A 
ATOM      2  C9  UNL     1      21.344   8.928  35.331  0.00  0.00    +0.039 A 
ATOM      3  C10 UNL     1      22.340   7.953  35.368  0.00  0.00    +0.011 A 
ATOM      4  C11 UNL     1      23.345   7.626  34.473  0.00  0.00    +0.010 A 
ATOM      5  C18 UNL     1      23.968   6.500  35.007  0.00  0.00    +0.092 A 
ATOM      6  N2  UNL     1      23.395   6.156  36.183  0.00  0.00    -0.359 N 
ATOM      7  C19 UNL     1      22.410   7.045  36.387  0.00  0.00    +0.065 A 
ATOM      8  C20 UNL     1      21.503   7.082  37.439  0.00  0.00    +0.137 A 
ATOM      9  N3  UNL     1      20.540   8.048  37.424  0.00  0.00    -0.253 NA
ATOM     10  H14 UNL     1      23.658   5.351  36.795  0.00  0.00    +0.165 HD
ENDROOT
BRANCH   4  11
ATOM     11  C12 UNL     1      23.684   8.288  33.196  0.00  0.00    +0.019 A 
ATOM     12  C13 UNL     1      24.897   8.987  33.078  0.00  0.00    +0.014 A 
ATOM     13  C14 UNL     1      25.235   9.618  31.877  0.00  0.00    +0.039 A 
ATOM     14  C15 UNL     1      24.360   9.566  30.789  0.00  0.00    +0.126 A 
ATOM     15  F1  UNL     1      24.687  10.181  29.626  0.00  0.00    -0.205 F 
ATOM     16  C16 UNL     1      23.142   8.892  30.904  0.00  0.00    +0.077 A 
ATOM     17  C17 UNL     1      22.798   8.257  32.102  0.00  0.00    +0.134 A 
ATOM     18  F2  UNL     1      21.583   7.662  32.207  0.00  0.00    -0.205 F 
ENDBRANCH   4  11
BRANCH   1  22
ATOM     19  C4  UNL     1      17.250  11.874  36.576  0.00  0.00    +0.037 A 
ATOM     20  C5  UNL     1      16.979  10.507  36.732  0.00  0.00    +0.014 A 
ATOM     21  C6  UNL     1      18.015   9.570  36.675  0.00  0.00    +0.011 A 
ATOM     22  C7  UNL     1      19.343   9.982  36.466  0.00  0.00    +0.000 A 
ATOM     23  C21 UNL     1      19.613  11.358  36.344  0.00  0.00    +0.011 A 
ATOM     24  C22 UNL     1      18.577  12.294  36.401  0.00  0.00    +0.014 A 
BRANCH  19  28
ATOM     25  C1  UNL     1      15.388  15.222  36.305  0.00  0.00    +0.132 C 
ATOM     26  N1  UNL     1      16.142  14.054  35.843  0.00  0.00    -0.304 N 
ATOM     27  C2  UNL     1      16.741  14.046  34.504  0.00  0.00    +0.132 C 
ATOM     28  C3  UNL     1      16.151  12.861  36.655  0.00  0.00    +0.246 C 
ATOM     29  O1  UNL     1      15.195  12.642  37.448  0.00  0.00    -0.270 OA
ENDBRANCH  19  28
ENDBRANCH   1  22
TORSDOF 3
ENDMDL
MODEL 3
REMARK VINA RESULT:    -6.934     11.088     13.689
REMARK INTER + INTRA:          -9.119
REMARK INTER:                  -8.212
REMARK INTRA:                  -0.908
REMARK UNBOUND:                -0.970
REMARK  Name = /home/qwerty/github/datacon2025hack/step_04_hit_selection/docking/ligands/lig_563.pdb
REMARK  5 active torsions:
REMARK  status: ('A' for Active; 'I' for Inactive)
REMARK    1  A    between atoms: C1_1  and  N1_2
REMARK    2  A    between atoms: N1_2  and  C2_3
REMARK    3  A    between atoms: C3_4  and  C4_6
REMARK    4  A    between atoms: C7_9  and  C8_10
REMARK    5  A    between atoms: C11_13  and  C12_14
REMARK                            x       y       z     vdW  Elec       q    Type
REMARK                         _______ _______ _______ _____ _____    ______ ____
ROOT
ATOM      1  C8  UNL     1      21.785   4.385  32.542  0.00  0.00    +0.072 A 
ATOM      2  C9  UNL     1      21.411   3.527  31.480  0.00  0.00    +0.039 A 
ATOM      3  C10 UNL     1      20.933   2.260  31.812  0.00  0.00    +0.011 A 
ATOM      4  C11 UNL     1      20.462   1.216  31.033  0.00  0.00    +0.010 A 
ATOM      5  C18 UNL     1      20.032   0.243  31.933  0.00  0.00    +0.092 A 
ATOM      6  N2  UNL     1      20.242   0.649  33.205  0.00  0.00    -0.359 N 
ATOM      7  C19 UNL     1      20.787   1.874  33.115  0.00  0.00    +0.065 A 
ATOM      8  C20 UNL     1      21.140   2.725  34.155  0.00  0.00    +0.137 A 
ATOM      9  N3  UNL     1      21.632   3.957  33.839  0.00  0.00    -0.253 NA
ATOM     10  H14 UNL     1      20.011   0.122  34.077  0.00  0.00    +0.165 HD
ENDROOT
BRANCH   4  11
ATOM     11  C12 UNL     1      20.385   1.138  29.559  0.00  0.00    +0.019 A 
ATOM     12  C13 UNL     1      19.167   1.407  28.914  0.00  0.00    +0.014 A 
ATOM     13  C14 UNL     1      19.075   1.338  27.520  0.00  0.00    +0.039 A 
ATOM     14  C15 UNL     1      20.195   0.989  26.761  0.00  0.00    +0.126 A 
ATOM     15  F1  UNL     1      20.104   0.920  25.411  0.00  0.00    -0.205 F 
ATOM     16  C16 UNL     1      21.405   0.699  27.396  0.00  0.00    +0.077 A 
ATOM     17  C17 UNL     1      21.504   0.767  28.790  0.00  0.00    +0.134 A 
ATOM     18  F2  UNL     1      22.674   0.419  29.384  0.00  0.00    -0.205 F 
ENDBRANCH   4  11
BRANCH   1  22
ATOM     19  C4  UNL     1      23.312   8.338  31.763  0.00  0.00    +0.037 A 
ATOM     20  C5  UNL     1      22.933   7.497  30.707  0.00  0.00    +0.014 A 
ATOM     21  C6  UNL     1      22.442   6.214  30.965  0.00  0.00    +0.011 A 
ATOM     22  C7  UNL     1      22.314   5.749  32.285  0.00  0.00    +0.000 A 
ATOM     23  C21 UNL     1      22.664   6.609  33.343  0.00  0.00    +0.011 A 
ATOM     24  C22 UNL     1      23.156   7.892  33.083  0.00  0.00    +0.014 A 
BRANCH  19  28
ATOM     25  C1  UNL     1      23.740  11.731  30.016  0.00  0.00    +0.132 C 
ATOM     26  N1  UNL     1      23.043  10.653  30.722  0.00  0.00    -0.304 N 
ATOM     27  C2  UNL     1      21.577  10.640  30.785  0.00  0.00    +0.132 C 
ATOM     28  C3  UNL     1      23.815   9.700  31.482  0.00  0.00    +0.246 C 
ATOM     29  O1  UNL     1      24.946  10.033  31.930  0.00  0.00    -0.270 OA
ENDBRANCH  19  28
ENDBRANCH   1  22
TORSDOF 3
ENDMDL
MODEL 4
REMARK VINA RESULT:    -6.916     13.511     16.701
REMARK INTER + INTRA:          -9.098
REMARK INTER:                  -8.173
REMARK INTRA:                  -0.926
REMARK UNBOUND:                -0.970
REMARK  Name = /home/qwerty/github/datacon2025hack/step_04_hit_selection/docking/ligands/lig_563.pdb
REMARK  5 active torsions:
REMARK  status: ('A' for Active; 'I' for Inactive)
REMARK    1  A    between atoms: C1_1  and  N1_2
REMARK    2  A    between atoms: N1_2  and  C2_3
REMARK    3  A    between atoms: C3_4  and  C4_6
REMARK    4  A    between atoms: C7_9  and  C8_10
REMARK    5  A    between atoms: C11_13  and  C12_14
REMARK                            x       y       z     vdW  Elec       q    Type
REMARK                         _______ _______ _______ _____ _____    ______ ____
ROOT
ATOM      1  C8  UNL     1      10.369  12.133  29.818  0.00  0.00    +0.072 A 
ATOM      2  C9  UNL     1      10.594  12.368  31.196  0.00  0.00    +0.039 A 
ATOM      3  C10 UNL     1      11.371  13.472  31.544  0.00  0.00    +0.011 A 
ATOM      4  C11 UNL     1      11.744  13.989  32.773  0.00  0.00    +0.010 A 
ATOM      5  C18 UNL     1      12.440  15.161  32.490  0.00  0.00    +0.092 A 
ATOM      6  N2  UNL     1      12.516  15.355  31.154  0.00  0.00    -0.359 N 
ATOM      7  C19 UNL     1      11.862  14.324  30.595  0.00  0.00    +0.065 A 
ATOM      8  C20 UNL     1      11.626  14.099  29.244  0.00  0.00    +0.137 A 
ATOM      9  N3  UNL     1      10.887  13.008  28.892  0.00  0.00    -0.253 NA
ATOM     10  H14 UNL     1      12.975  16.154  30.663  0.00  0.00    +0.165 HD
ENDROOT
BRANCH   4  11
ATOM     11  C12 UNL     1      11.447  13.453  34.119  0.00  0.00    +0.019 A 
ATOM     12  C13 UNL     1      12.139  12.323  34.584  0.00  0.00    +0.014 A 
ATOM     13  C14 UNL     1      11.873  11.804  35.854  0.00  0.00    +0.039 A 
ATOM     14  C15 UNL     1      10.905  12.400  36.665  0.00  0.00    +0.126 A 
ATOM     15  F1  UNL     1      10.645  11.894  37.895  0.00  0.00    -0.205 F 
ATOM     16  C16 UNL     1      10.196  13.512  36.203  0.00  0.00    +0.077 A 
ATOM     17  C17 UNL     1      10.459  14.038  34.933  0.00  0.00    +0.134 A 
ATOM     18  F2  UNL     1       9.712  15.079  34.485  0.00  0.00    -0.205 F 
ENDBRANCH   4  11
BRANCH   1  22
ATOM     19  C4  UNL     1       8.056   8.760  28.462  0.00  0.00    +0.037 A 
ATOM     20  C5  UNL     1       9.456   8.693  28.514  0.00  0.00    +0.014 A 
ATOM     21  C6  UNL     1      10.201   9.791  28.951  0.00  0.00    +0.011 A 
ATOM     22  C7  UNL     1       9.562  10.978  29.351  0.00  0.00    +0.000 A 
ATOM     23  C21 UNL     1       8.155  11.028  29.329  0.00  0.00    +0.011 A 
ATOM     24  C22 UNL     1       7.411   9.930  28.891  0.00  0.00    +0.014 A 
BRANCH  19  28
ATOM     25  C1  UNL     1       6.738   5.157  28.301  0.00  0.00    +0.132 C 
ATOM     26  N1  UNL     1       7.011   6.471  28.889  0.00  0.00    -0.304 N 
ATOM     27  C2  UNL     1       6.861   6.678  30.334  0.00  0.00    +0.132 C 
ATOM     28  C3  UNL     1       7.273   7.588  28.014  0.00  0.00    +0.246 C 
ATOM     29  O1  UNL     1       6.819   7.576  26.838  0.00  0.00    -0.270 OA
ENDBRANCH  19  28
ENDBRANCH   1  22
TORSDOF 3
ENDMDL
MODEL 5
REMARK VINA RESULT:    -6.832      9.237     13.978
REMARK INTER + INTRA:          -9.000
REMARK INTER:                  -8.135
REMARK INTRA:                  -0.865
REMARK UNBOUND:                -0.970
REMARK  Name = /home/qwerty/github/datacon2025hack/step_04_hit_selection/docking/ligands/lig_563.pdb
REMARK  5 active torsions:
REMARK  status: ('A' for Active; 'I' for Inactive)
REMARK    1  A    between atoms: C1_1  and  N1_2
REMARK    2  A    between atoms: N1_2  and  C2_3
REMARK    3  A    between atoms: C3_4  and  C4_6
REMARK    4  A    between atoms: C7_9  and  C8_10
REMARK    5  A    between atoms: C11_13  and  C12_14
REMARK                            x       y       z     vdW  Elec       q    Type
REMARK                         _______ _______ _______ _____ _____    ______ ____
ROOT
ATOM      1  C8  UNL     1      19.200  10.825  35.641  0.00  0.00    +0.072 A 
ATOM      2  C9  UNL     1      20.081   9.741  35.408  0.00  0.00    +0.039 A 
ATOM      3  C10 UNL     1      20.172   8.761  36.396  0.00  0.00    +0.011 A 
ATOM      4  C11 UNL     1      20.897   7.583  36.464  0.00  0.00    +0.010 A 
ATOM      5  C18 UNL     1      20.505   6.972  37.653  0.00  0.00    +0.092 A 
ATOM      6  N2  UNL     1      19.600   7.738  38.302  0.00  0.00    -0.359 N 
ATOM      7  C19 UNL     1      19.408   8.818  37.527  0.00  0.00    +0.065 A 
ATOM      8  C20 UNL     1      18.532   9.875  37.744  0.00  0.00    +0.137 A 
ATOM      9  N3  UNL     1      18.454  10.851  36.795  0.00  0.00    -0.253 NA
ATOM     10  H14 UNL     1      19.135   7.522  39.213  0.00  0.00    +0.165 HD
ENDROOT
BRANCH   4  11
ATOM     11  C12 UNL     1      21.860   7.043  35.481  0.00  0.00    +0.019 A 
ATOM     12  C13 UNL     1      21.408   6.649  34.211  0.00  0.00    +0.014 A 
ATOM     13  C14 UNL     1      22.304   6.137  33.269  0.00  0.00    +0.039 A 
ATOM     14  C15 UNL     1      23.657   6.003  33.591  0.00  0.00    +0.126 A 
ATOM     15  F1  UNL     1      24.525   5.503  32.677  0.00  0.00    -0.205 F 
ATOM     16  C16 UNL     1      24.113   6.372  34.859  0.00  0.00    +0.077 A 
ATOM     17  C17 UNL     1      23.221   6.887  35.806  0.00  0.00    +0.134 A 
ATOM     18  F2  UNL     1      23.679   7.178  37.050  0.00  0.00    -0.205 F 
ENDBRANCH   4  11
BRANCH   1  22
ATOM     19  C4  UNL     1      18.764  13.986  32.745  0.00  0.00    +0.037 A 
ATOM     20  C5  UNL     1      19.593  12.886  32.483  0.00  0.00    +0.014 A 
ATOM     21  C6  UNL     1      19.733  11.865  33.427  0.00  0.00    +0.011 A 
ATOM     22  C7  UNL     1      19.043  11.921  34.651  0.00  0.00    +0.000 A 
ATOM     23  C21 UNL     1      18.187  13.011  34.895  0.00  0.00    +0.011 A 
ATOM     24  C22 UNL     1      18.047  14.032  33.950  0.00  0.00    +0.014 A 
BRANCH  19  28
ATOM     25  C1  UNL     1      18.084  15.672  29.362  0.00  0.00    +0.132 C 
ATOM     26  N1  UNL     1      17.798  14.870  30.554  0.00  0.00    -0.304 N 
ATOM     27  C2  UNL     1      16.607  14.012  30.597  0.00  0.00    +0.132 C 
ATOM     28  C3  UNL     1      18.608  15.054  31.734  0.00  0.00    +0.246 C 
ATOM     29  O1  UNL     1      19.194  16.155  31.919  0.00  0.00    -0.270 OA
ENDBRANCH  19  28
ENDBRANCH   1  22
TORSDOF 3
ENDMDL
MODEL 6
REMARK VINA RESULT:    -6.818     12.992     15.796
REMARK INTER + INTRA:          -8.983
REMARK INTER:                  -8.034
REMARK INTRA:                  -0.949
REMARK UNBOUND:                -0.970
REMARK  Name = /home/qwerty/github/datacon2025hack/step_04_hit_selection/docking/ligands/lig_563.pdb
REMARK  5 active torsions:
REMARK  status: ('A' for Active; 'I' for Inactive)
REMARK    1  A    between atoms: C1_1  and  N1_2
REMARK    2  A    between atoms: N1_2  and  C2_3
REMARK    3  A    between atoms: C3_4  and  C4_6
REMARK    4  A    between atoms: C7_9  and  C8_10
REMARK    5  A    between atoms: C11_13  and  C12_14
REMARK                            x       y       z     vdW  Elec       q    Type
REMARK                         _______ _______ _______ _____ _____    ______ ____
ROOT
ATOM      1  C8  UNL     1      22.347   5.229  33.306  0.00  0.00    +0.072 A 
ATOM      2  C9  UNL     1      21.379   5.674  34.238  0.00  0.00    +0.039 A 
ATOM      3  C10 UNL     1      21.821   6.460  35.302  0.00  0.00    +0.011 A 
ATOM      4  C11 UNL     1      21.143   7.069  36.344  0.00  0.00    +0.010 A 
ATOM      5  C18 UNL     1      22.105   7.802  37.036  0.00  0.00    +0.092 A 
ATOM      6  N2  UNL     1      23.322   7.641  36.469  0.00  0.00    -0.359 N 
ATOM      7  C19 UNL     1      23.133   6.826  35.418  0.00  0.00    +0.065 A 
ATOM      8  C20 UNL     1      24.077   6.401  34.492  0.00  0.00    +0.137 A 
ATOM      9  N3  UNL     1      23.658   5.611  33.461  0.00  0.00    -0.253 NA
ATOM     10  H14 UNL     1      24.219   8.077  36.778  0.00  0.00    +0.165 HD
ENDROOT
BRANCH   4  11
ATOM     11  C12 UNL     1      19.701   7.007  36.658  0.00  0.00    +0.019 A 
ATOM     12  C13 UNL     1      19.230   6.046  37.568  0.00  0.00    +0.014 A 
ATOM     13  C14 UNL     1      17.869   5.973  37.878  0.00  0.00    +0.039 A 
ATOM     14  C15 UNL     1      16.965   6.850  37.273  0.00  0.00    +0.126 A 
ATOM     15  F1  UNL     1      15.645   6.775  37.572  0.00  0.00    -0.205 F 
ATOM     16  C16 UNL     1      17.421   7.795  36.350  0.00  0.00    +0.077 A 
ATOM     17  C17 UNL     1      18.782   7.874  36.037  0.00  0.00    +0.134 A 
ATOM     18  F2  UNL     1      19.189   8.759  35.091  0.00  0.00    -0.205 F 
ENDBRANCH   4  11
BRANCH   1  22
ATOM     19  C4  UNL     1      21.268   2.738  29.959  0.00  0.00    +0.037 A 
ATOM     20  C5  UNL     1      21.896   2.188  31.087  0.00  0.00    +0.014 A 
ATOM     21  C6  UNL     1      22.247   3.001  32.168  0.00  0.00    +0.011 A 
ATOM     22  C7  UNL     1      21.972   4.380  32.146  0.00  0.00    +0.000 A 
ATOM     23  C21 UNL     1      21.311   4.920  31.027  0.00  0.00    +0.011 A 
ATOM     24  C22 UNL     1      20.961   4.106  29.946  0.00  0.00    +0.014 A 
BRANCH  19  28
ATOM     25  C1  UNL     1      20.666   1.583  26.347  0.00  0.00    +0.132 C 
ATOM     26  N1  UNL     1      21.428   2.059  27.504  0.00  0.00    -0.304 N 
ATOM     27  C2  UNL     1      22.790   2.575  27.328  0.00  0.00    +0.132 C 
ATOM     28  C3  UNL     1      20.884   1.868  28.827  0.00  0.00    +0.246 C 
ATOM     29  O1  UNL     1      20.067   0.929  29.033  0.00  0.00    -0.270 OA
ENDBRANCH  19  28
ENDBRANCH   1  22
TORSDOF 3
ENDMDL
MODEL 7
REMARK VINA RESULT:    -6.797      2.812      3.427
REMARK INTER + INTRA:          -8.959
REMARK INTER:                  -7.967
REMARK INTRA:                  -0.992
REMARK UNBOUND:                -0.970
REMARK  Name = /home/qwerty/github/datacon2025hack/step_04_hit_selection/docking/ligands/lig_563.pdb
REMARK  5 active torsions:
REMARK  status: ('A' for Active; 'I' for Inactive)
REMARK    1  A    between atoms: C1_1  and  N1_2
REMARK    2  A    between atoms: N1_2  and  C2_3
REMARK    3  A    between atoms: C3_4  and  C4_6
REMARK    4  A    between atoms: C7_9  and  C8_10
REMARK    5  A    between atoms: C11_13  and  C12_14
REMARK                            x       y       z     vdW  Elec       q    Type
REMARK                         _______ _______ _______ _____ _____    ______ ____
ROOT
ATOM      1  C8  UNL     1      22.872  14.239  22.963  0.00  0.00    +0.072 A 
ATOM      2  C9  UNL     1      23.200  13.040  22.286  0.00  0.00    +0.039 A 
ATOM      3  C10 UNL     1      23.326  13.097  20.898  0.00  0.00    +0.011 A 
ATOM      4  C11 UNL     1      23.663  12.135  19.961  0.00  0.00    +0.010 A 
ATOM      5  C18 UNL     1      23.724  12.806  18.742  0.00  0.00    +0.092 A 
ATOM      6  N2  UNL     1      23.421  14.114  18.907  0.00  0.00    -0.359 N 
ATOM      7  C19 UNL     1      23.184  14.275  20.219  0.00  0.00    +0.065 A 
ATOM      8  C20 UNL     1      22.879  15.453  20.890  0.00  0.00    +0.137 A 
ATOM      9  N3  UNL     1      22.728  15.402  22.244  0.00  0.00    -0.253 NA
ATOM     10  H14 UNL     1      23.395  14.848  18.165  0.00  0.00    +0.165 HD
ENDROOT
BRANCH   4  11
ATOM     11  C12 UNL     1      23.941  10.700  20.182  0.00  0.00    +0.019 A 
ATOM     12  C13 UNL     1      25.256  10.222  20.061  0.00  0.00    +0.014 A 
ATOM     13  C14 UNL     1      25.539   8.869  20.268  0.00  0.00    +0.039 A 
ATOM     14  C15 UNL     1      24.509   7.980  20.585  0.00  0.00    +0.126 A 
ATOM     15  F1  UNL     1      24.783   6.667  20.782  0.00  0.00    -0.205 F 
ATOM     16  C16 UNL     1      23.194   8.442  20.687  0.00  0.00    +0.077 A 
ATOM     17  C17 UNL     1      22.905   9.795  20.483  0.00  0.00    +0.134 A 
ATOM     18  F2  UNL     1      21.612  10.206  20.526  0.00  0.00    -0.205 F 
ENDBRANCH   4  11
BRANCH   1  22
ATOM     19  C4  UNL     1      22.373  14.312  27.243  0.00  0.00    +0.037 A 
ATOM     20  C5  UNL     1      21.647  13.407  26.454  0.00  0.00    +0.014 A 
ATOM     21  C6  UNL     1      21.811  13.390  25.066  0.00  0.00    +0.011 A 
ATOM     22  C7  UNL     1      22.707  14.274  24.439  0.00  0.00    +0.000 A 
ATOM     23  C21 UNL     1      23.457  15.157  25.239  0.00  0.00    +0.011 A 
ATOM     24  C22 UNL     1      23.292  15.174  26.627  0.00  0.00    +0.014 A 
BRANCH  19  28
ATOM     25  C1  UNL     1      21.785  15.630  30.802  0.00  0.00    +0.132 C 
ATOM     26  N1  UNL     1      21.482  15.356  29.395  0.00  0.00    -0.304 N 
ATOM     27  C2  UNL     1      20.350  16.024  28.742  0.00  0.00    +0.132 C 
ATOM     28  C3  UNL     1      22.207  14.312  28.712  0.00  0.00    +0.246 C 
ATOM     29  O1  UNL     1      22.707  13.365  29.379  0.00  0.00    -0.270 OA
ENDBRANCH  19  28
ENDBRANCH   1  22
TORSDOF 3
ENDMDL
MODEL 8
REMARK VINA RESULT:    -6.781      4.443      7.986
REMARK INTER + INTRA:          -8.940
REMARK INTER:                  -8.016
REMARK INTRA:                  -0.924
REMARK UNBOUND:                -0.970
REMARK  Name = /home/qwerty/github/datacon2025hack/step_04_hit_selection/docking/ligands/lig_563.pdb
REMARK  5 active torsions:
REMARK  status: ('A' for Active; 'I' for Inactive)
REMARK    1  A    between atoms: C1_1  and  N1_2
REMARK    2  A    between atoms: N1_2  and  C2_3
REMARK    3  A    between atoms: C3_4  and  C4_6
REMARK    4  A    between atoms: C7_9  and  C8_10
REMARK    5  A    between atoms: C11_13  and  C12_14
REMARK                            x       y       z     vdW  Elec       q    Type
REMARK                         _______ _______ _______ _____ _____    ______ ____
ROOT
ATOM      1  C8  UNL     1      20.929  13.420  19.604  0.00  0.00    +0.072 A 
ATOM      2  C9  UNL     1      21.478  13.913  20.813  0.00  0.00    +0.039 A 
ATOM      3  C10 UNL     1      22.178  15.118  20.758  0.00  0.00    +0.011 A 
ATOM      4  C11 UNL     1      22.794  15.873  21.742  0.00  0.00    +0.010 A 
ATOM      5  C18 UNL     1      23.242  17.026  21.101  0.00  0.00    +0.092 A 
ATOM      6  N2  UNL     1      22.940  16.983  19.784  0.00  0.00    -0.359 N 
ATOM      7  C19 UNL     1      22.294  15.822  19.592  0.00  0.00    +0.065 A 
ATOM      8  C20 UNL     1      21.740  15.342  18.412  0.00  0.00    +0.137 A 
ATOM      9  N3  UNL     1      21.074  14.152  18.450  0.00  0.00    -0.253 NA
ATOM     10  H14 UNL     1      23.152  17.715  19.069  0.00  0.00    +0.165 HD
ENDROOT
BRANCH   4  11
ATOM     11  C12 UNL     1      22.930  15.565  23.181  0.00  0.00    +0.019 A 
ATOM     12  C13 UNL     1      22.337  16.413  24.130  0.00  0.00    +0.014 A 
ATOM     13  C14 UNL     1      22.454  16.137  25.496  0.00  0.00    +0.039 A 
ATOM     14  C15 UNL     1      23.175  15.019  25.925  0.00  0.00    +0.126 A 
ATOM     15  F1  UNL     1      23.291  14.754  27.249  0.00  0.00    -0.205 F 
ATOM     16  C16 UNL     1      23.787  14.182  24.988  0.00  0.00    +0.077 A 
ATOM     17  C17 UNL     1      23.672  14.452  23.620  0.00  0.00    +0.134 A 
ATOM     18  F2  UNL     1      24.328  13.659  22.736  0.00  0.00    -0.205 F 
ENDBRANCH   4  11
BRANCH   1  22
ATOM     19  C4  UNL     1      18.772   9.692  19.479  0.00  0.00    +0.037 A 
ATOM     20  C5  UNL     1      20.163   9.720  19.298  0.00  0.00    +0.014 A 
ATOM     21  C6  UNL     1      20.857  10.932  19.336  0.00  0.00    +0.011 A 
ATOM     22  C7  UNL     1      20.175  12.141  19.562  0.00  0.00    +0.000 A 
ATOM     23  C21 UNL     1      18.784  12.103  19.776  0.00  0.00    +0.011 A 
ATOM     24  C22 UNL     1      18.091  10.891  19.738  0.00  0.00    +0.014 A 
BRANCH  19  28
ATOM     25  C1  UNL     1      17.893   6.038  20.268  0.00  0.00    +0.132 C 
ATOM     26  N1  UNL     1      18.146   7.455  20.538  0.00  0.00    -0.304 N 
ATOM     27  C2  UNL     1      18.337   7.920  21.917  0.00  0.00    +0.132 C 
ATOM     28  C3  UNL     1      18.047   8.403  19.455  0.00  0.00    +0.246 C 
ATOM     29  O1  UNL     1      17.318   8.136  18.460  0.00  0.00    -0.270 OA
ENDBRANCH  19  28
ENDBRANCH   1  22
TORSDOF 3
ENDMDL
MODEL 9
REMARK VINA RESULT:    -6.636      1.707      2.122
REMARK INTER + INTRA:          -8.769
REMARK INTER:                  -7.757
REMARK INTRA:                  -1.013
REMARK UNBOUND:                -0.970
REMARK  Name = /home/qwerty/github/datacon2025hack/step_04_hit_selection/docking/ligands/lig_563.pdb
REMARK  5 active torsions:
REMARK  status: ('A' for Active; 'I' for Inactive)
REMARK    1  A    between atoms: C1_1  and  N1_2
REMARK    2  A    between atoms: N1_2  and  C2_3
REMARK    3  A    between atoms: C3_4  and  C4_6
REMARK    4  A    between atoms: C7_9  and  C8_10
REMARK    5  A    between atoms: C11_13  and  C12_14
REMARK                            x       y       z     vdW  Elec       q    Type
REMARK                         _______ _______ _______ _____ _____    ______ ____
ROOT
ATOM      1  C8  UNL     1      22.379  15.379  22.880  0.00  0.00    +0.072 A 
ATOM      2  C9  UNL     1      21.731  14.500  21.979  0.00  0.00    +0.039 A 
ATOM      3  C10 UNL     1      21.806  14.801  20.619  0.00  0.00    +0.011 A 
ATOM      4  C11 UNL     1      21.323  14.144  19.500  0.00  0.00    +0.010 A 
ATOM      5  C18 UNL     1      21.794  14.870  18.409  0.00  0.00    +0.092 A 
ATOM      6  N2  UNL     1      22.516  15.935  18.825  0.00  0.00    -0.359 N 
ATOM      7  C19 UNL     1      22.516  15.878  20.167  0.00  0.00    +0.065 A 
ATOM      8  C20 UNL     1      23.163  16.729  21.054  0.00  0.00    +0.137 A 
ATOM      9  N3  UNL     1      23.075  16.457  22.388  0.00  0.00    -0.253 NA
ATOM     10  H14 UNL     1      22.990  16.644  18.222  0.00  0.00    +0.165 HD
ENDROOT
BRANCH   4  11
ATOM     11  C12 UNL     1      20.509  12.911  19.443  0.00  0.00    +0.019 A 
ATOM     12  C13 UNL     1      19.120  12.988  19.631  0.00  0.00    +0.014 A 
ATOM     13  C14 UNL     1      18.335  11.832  19.580  0.00  0.00    +0.039 A 
ATOM     14  C15 UNL     1      18.932  10.590  19.351  0.00  0.00    +0.126 A 
ATOM     15  F1  UNL     1      18.170   9.470  19.304  0.00  0.00    -0.205 F 
ATOM     16  C16 UNL     1      20.316  10.501  19.184  0.00  0.00    +0.077 A 
ATOM     17  C17 UNL     1      21.107  11.654  19.233  0.00  0.00    +0.134 A 
ATOM     18  F2  UNL     1      22.455  11.531  19.130  0.00  0.00    -0.205 F 
ENDBRANCH   4  11
BRANCH   1  22
ATOM     19  C4  UNL     1      22.268  14.671  27.130  0.00  0.00    +0.037 A 
ATOM     20  C5  UNL     1      21.651  13.780  26.240  0.00  0.00    +0.014 A 
ATOM     21  C6  UNL     1      21.687  14.016  24.863  0.00  0.00    +0.011 A 
ATOM     22  C7  UNL     1      22.346  15.146  24.347  0.00  0.00    +0.000 A 
ATOM     23  C21 UNL     1      22.992  16.019  25.242  0.00  0.00    +0.011 A 
ATOM     24  C22 UNL     1      22.955  15.782  26.619  0.00  0.00    +0.014 A 
BRANCH  19  28
ATOM     25  C1  UNL     1      21.801  15.272  30.893  0.00  0.00    +0.132 C 
ATOM     26  N1  UNL     1      21.419  15.180  29.482  0.00  0.00    -0.304 N 
ATOM     27  C2  UNL     1      20.138  15.732  29.028  0.00  0.00    +0.132 C 
ATOM     28  C3  UNL     1      22.240  14.405  28.584  0.00  0.00    +0.246 C 
ATOM     29  O1  UNL     1      22.949  13.468  29.042  0.00  0.00    -0.270 OA
ENDBRANCH  19  28
ENDBRANCH   1  22
TORSDOF 3
ENDMDL
