REMARK  Name = /home/qwerty/github/datacon2025hack/step_04_hit_selection/docking/ligands/lig_273.pdb
REMARK  8 active torsions:
REMARK  status: ('A' for Active; 'I' for Inactive)
REMARK    1  A    between atoms: C1_1  and  C2_2
REMARK    2  A    between atoms: C2_2  and  O1_3
REMARK    3  A    between atoms: C2_2  and  C3_4
REMARK    4  A    between atoms: C3_4  and  N1_5
REMARK    5  A    between atoms: N1_5  and  C4_6
REMARK    6  A    between atoms: N2_9  and  C6_10
REMARK    7  A    between atoms: C10_14  and  C11_15
REMARK    8  A    between atoms: C13_18  and  C14_19
REMARK                            x       y       z     vdW  Elec       q    Type
REMARK                         _______ _______ _______ _____ _____    ______ ____
ROOT
ATOM      1  C6  UNL     1       1.325   1.814  -1.125  0.00  0.00    +0.035 A 
ATOM      2  C7  UNL     1       1.886   3.081  -1.355  0.00  0.00    +0.023 A 
ATOM      3  C8  UNL     1       1.099   4.229  -1.247  0.00  0.00    +0.002 A 
ATOM      4  C9  UNL     1      -0.258   4.126  -0.931  0.00  0.00    +0.011 A 
ATOM      5  C10 UNL     1      -0.853   2.865  -0.742  0.00  0.00    +0.019 A 
ATOM      6  C22 UNL     1      -0.045   1.715  -0.840  0.00  0.00    +0.035 A 
ENDROOT
BRANCH   5   7
ATOM      7  C11 UNL     1      -2.296   2.726  -0.408  0.00  0.00    +0.142 A 
ATOM      8  N3  UNL     1      -2.717   1.597   0.242  0.00  0.00    -0.226 NA
ATOM      9  C12 UNL     1      -4.023   1.442   0.570  0.00  0.00    +0.113 A 
ATOM     10  C13 UNL     1      -4.601   0.317   1.210  0.00  0.00    +0.106 A 
ATOM     11  N4  UNL     1      -5.955   0.392   1.364  0.00  0.00    -0.207 NA
ATOM     12  S1  UNL     1      -6.421   1.859   0.718  0.00  0.00    +0.019 S 
ATOM     13  C20 UNL     1      -4.932   2.412   0.230  0.00  0.00    +0.122 A 
ATOM     14  C21 UNL     1      -4.535   3.555  -0.444  0.00  0.00    +0.268 A 
ATOM     15  O3  UNL     1      -5.372   4.438  -0.773  0.00  0.00    -0.267 OA
ATOM     16  N5  UNL     1      -3.212   3.694  -0.754  0.00  0.00    -0.306 N 
ATOM     17  H20 UNL     1      -2.920   4.539  -1.294  0.00  0.00    +0.170 HD
BRANCH  10  18
ATOM     18  C14 UNL     1      -3.846  -0.882   1.647  0.00  0.00    +0.003 A 
ATOM     19  C15 UNL     1      -4.463  -2.146   1.604  0.00  0.00    +0.010 A 
ATOM     20  C16 UNL     1      -3.766  -3.289   2.009  0.00  0.00    +0.001 A 
ATOM     21  C17 UNL     1      -2.452  -3.183   2.469  0.00  0.00    +0.000 A 
ATOM     22  C18 UNL     1      -1.835  -1.931   2.534  0.00  0.00    +0.001 A 
ATOM     23  C19 UNL     1      -2.527  -0.785   2.131  0.00  0.00    +0.010 A 
ENDBRANCH  10  18
ENDBRANCH   5   7
BRANCH   1  28
ATOM     24  N1  UNL     1       4.315  -0.608  -1.202  0.00  0.00    -0.286 N 
ATOM     25  C4  UNL     1       5.731  -0.612  -0.818  0.00  0.00    +0.133 C 
ATOM     26  C5  UNL     1       3.499   0.531  -0.841  0.00  0.00    +0.306 C 
ATOM     27  O2  UNL     1       4.007   1.460  -0.154  0.00  0.00    -0.252 OA
ATOM     28  N2  UNL     1       2.112   0.613  -1.224  0.00  0.00    -0.269 N 
ATOM     29  H11 UNL     1       1.602  -0.262  -1.471  0.00  0.00    +0.156 HD
BRANCH  24  30
ATOM     30  C3  UNL     1       3.769  -1.757  -1.942  0.00  0.00    +0.140 C 
BRANCH  30  32
ATOM     31  C1  UNL     1       2.380  -3.870  -1.747  0.00  0.00    +0.039 C 
ATOM     32  C2  UNL     1       3.080  -2.745  -0.979  0.00  0.00    +0.129 C 
BRANCH  32  33
ATOM     33  O1  UNL     1       4.005  -3.279  -0.062  0.00  0.00    -0.391 OA
ATOM     34  H5  UNL     1       4.688  -3.782  -0.581  0.00  0.00    +0.210 HD
ENDBRANCH  32  33
ENDBRANCH  30  32
ENDBRANCH  24  30
ENDBRANCH   1  28
TORSDOF 6
