REMARK  Name = /home/qwerty/github/datacon2025hack/step_04_hit_selection/docking/ligands/lig_347.pdb
REMARK  8 active torsions:
REMARK  status: ('A' for Active; 'I' for Inactive)
REMARK    1  A    between atoms: C1_1  and  C2_2
REMARK    2  A    between atoms: C4_4  and  C5_5
REMARK    3  A    between atoms: C6_6  and  C7_7
REMARK    4  A    between atoms: C9_11  and  C10_12
REMARK    5  A    between atoms: C10_12  and  N2_13
REMARK    6  A    between atoms: C11_14  and  C12_16
REMARK    7  A    between atoms: C14_20  and  C15_21
REMARK    8  A    between atoms: C17_23  and  C18_24
REMARK                            x       y       z     vdW  Elec       q    Type
REMARK                         _______ _______ _______ _____ _____    ______ ____
ROOT
ATOM      1  C7  UNL     1      -2.924   0.393  -1.085  0.00  0.00    +0.263 C 
ATOM      2  O1  UNL     1      -3.180   0.735  -2.270  0.00  0.00    -0.268 OA
ATOM      3  N1  UNL     1      -1.563   0.396  -0.621  0.00  0.00    -0.293 N 
ATOM      4  C8  UNL     1      -0.554   1.290  -1.163  0.00  0.00    +0.113 C 
ATOM      5  C9  UNL     1       0.772   0.826  -0.554  0.00  0.00    +0.025 C 
ATOM      6  C16 UNL     1       0.383  -0.021   0.664  0.00  0.00    +0.028 C 
ATOM      7  C17 UNL     1      -1.027  -0.535   0.366  0.00  0.00    +0.074 C 
ATOM      8  C18 UNL     1      -1.003  -1.957  -0.203  0.00  0.00    +0.028 C 
ENDROOT
BRANCH   1  14
ATOM      9  C1  UNL     1      -7.009  -1.948   0.444  0.00  0.00    +0.063 C 
ATOM     10  C2  UNL     1      -5.839  -1.019   0.437  0.00  0.00    +0.014 A 
ATOM     11  C3  UNL     1      -5.432  -0.238   1.502  0.00  0.00    +0.026 A 
ATOM     12  C4  UNL     1      -4.287   0.412   1.081  0.00  0.00    -0.020 A 
ATOM     13  C5  UNL     1      -3.533   1.432   1.877  0.00  0.00    +0.046 C 
ATOM     14  C6  UNL     1      -4.032  -0.027  -0.211  0.00  0.00    +0.105 A 
ATOM     15  N5  UNL     1      -4.989  -0.890  -0.600  0.00  0.00    -0.354 N 
ATOM     16  H25 UNL     1      -5.050  -1.381  -1.520  0.00  0.00    +0.166 HD
ENDBRANCH   1  14
BRANCH   5  17
ATOM     17  C10 UNL     1       1.698   2.002  -0.196  0.00  0.00    +0.109 C 
BRANCH  17  18
ATOM     18  N2  UNL     1       2.952   1.520   0.381  0.00  0.00    -0.310 N 
ATOM     19  C11 UNL     1       3.975   0.895  -0.409  0.00  0.00    +0.264 C 
ATOM     20  O2  UNL     1       3.839   0.806  -1.659  0.00  0.00    -0.268 OA
ATOM     21  H13 UNL     1       3.114   1.675   1.401  0.00  0.00    +0.149 HD
BRANCH  19  22
ATOM     22  C12 UNL     1       5.188   0.359   0.238  0.00  0.00    +0.150 A 
ATOM     23  N3  UNL     1       5.410   0.413   1.567  0.00  0.00    -0.169 NA
ATOM     24  N4  UNL     1       6.580  -0.156   1.808  0.00  0.00    -0.284 N 
ATOM     25  C13 UNL     1       7.126  -0.582   0.655  0.00  0.00    +0.109 A 
ATOM     26  C14 UNL     1       6.263  -0.270  -0.375  0.00  0.00    -0.001 A 
ATOM     27  C15 UNL     1       6.467  -0.563  -1.827  0.00  0.00    +0.048 C 
ATOM     28  H14 UNL     1       7.001  -0.253   2.758  0.00  0.00    +0.188 HD
ENDBRANCH  19  22
ENDBRANCH  17  18
ENDBRANCH   5  17
TORSDOF 4
