REMARK  Name = /home/qwerty/github/datacon2025hack/step_04_hit_selection/docking/ligands/lig_256.pdb
REMARK  9 active torsions:
REMARK  status: ('A' for Active; 'I' for Inactive)
REMARK    1  A    between atoms: C1_1  and  C2_2
REMARK    2  A    between atoms: C4_4  and  C5_5
REMARK    3  A    between atoms: C8_10  and  C9_11
REMARK    4  A    between atoms: C9_11  and  N2_12
REMARK    5  A    between atoms: N2_12  and  C10_13
REMARK    6  A    between atoms: N2_12  and  C11_14
REMARK    7  A    between atoms: C11_14  and  C12_15
REMARK    8  A    between atoms: C14_18  and  C15_19
REMARK    9  A    between atoms: C17_22  and  C18_23
REMARK                            x       y       z     vdW  Elec       q    Type
REMARK                         _______ _______ _______ _____ _____    ______ ____
ROOT
ATOM      1  C5  UNL     1      -3.503  -0.982  -0.796  0.00  0.00    +0.250 C 
ATOM      2  O1  UNL     1      -3.783  -2.069  -1.370  0.00  0.00    -0.270 OA
ATOM      3  N1  UNL     1      -2.132  -0.565  -0.690  0.00  0.00    -0.297 N 
ATOM      4  C6  UNL     1      -1.619   0.241   0.405  0.00  0.00    +0.108 C 
ATOM      5  C7  UNL     1      -0.104   0.090   0.347  0.00  0.00    +0.025 C 
ATOM      6  C8  UNL     1       0.208  -0.417  -1.067  0.00  0.00    +0.022 C 
ATOM      7  C16 UNL     1      -1.075  -1.124  -1.514  0.00  0.00    +0.113 C 
ENDROOT
BRANCH   1  11
ATOM      8  C1  UNL     1      -7.658   0.396   1.674  0.00  0.00    +0.086 C 
ATOM      9  C2  UNL     1      -6.414   0.421   0.852  0.00  0.00    +0.103 A 
ATOM     10  C3  UNL     1      -5.616  -0.671   0.569  0.00  0.00    +0.057 A 
ATOM     11  C4  UNL     1      -4.594  -0.182  -0.219  0.00  0.00    +0.078 A 
ATOM     12  C17 UNL     1      -4.857   1.169  -0.400  0.00  0.00    +0.114 A 
ATOM     13  C18 UNL     1      -4.088   2.141  -1.237  0.00  0.00    +0.087 C 
ATOM     14  O2  UNL     1      -5.944   1.496   0.261  0.00  0.00    -0.464 OA
ENDBRANCH   1  11
BRANCH   6  15
ATOM     15  C9  UNL     1       1.436  -1.365  -1.154  0.00  0.00    +0.089 C 
BRANCH  15  16
ATOM     16  N2  UNL     1       2.758  -0.717  -0.980  0.00  0.00    -0.299 NA
ATOM     17  C10 UNL     1       2.998   0.388  -1.924  0.00  0.00    +0.105 C 
BRANCH  16  18
ATOM     18  C11 UNL     1       3.064  -0.344   0.414  0.00  0.00    +0.147 C 
BRANCH  18  19
ATOM     19  C12 UNL     1       4.543  -0.366   0.635  0.00  0.00    +0.092 A 
ATOM     20  N3  UNL     1       5.275  -1.502   0.653  0.00  0.00    -0.251 NA
ATOM     21  C13 UNL     1       6.597  -1.250   0.841  0.00  0.00    +0.122 A 
ATOM     22  C14 UNL     1       6.921   0.097   0.953  0.00  0.00    +0.006 A 
ATOM     23  C15 UNL     1       8.277   0.652   1.235  0.00  0.00    +0.053 C 
ATOM     24  S1  UNL     1       5.505   0.999   0.845  0.00  0.00    -0.076 S 
ENDBRANCH  18  19
ENDBRANCH  16  18
ENDBRANCH  15  16
ENDBRANCH   6  15
TORSDOF 5
