REMARK  Name = /home/qwerty/github/datacon2025hack/step_04_hit_selection/docking/ligands/lig_295.pdb
REMARK  6 active torsions:
REMARK  status: ('A' for Active; 'I' for Inactive)
REMARK    1  A    between atoms: C1_1  and  O1_2
REMARK    2  A    between atoms: O1_2  and  C2_3
REMARK    3  A    between atoms: C4_5  and  C5_6
REMARK    4  A    between atoms: C9_12  and  N3_13
REMARK    5  A    between atoms: C10_14  and  C11_16
REMARK    6  A    between atoms: C15_22  and  O3_23
REMARK                            x       y       z     vdW  Elec       q    Type
REMARK                         _______ _______ _______ _____ _____    ______ ____
ROOT
ATOM      1  C2  UNL     1       4.704   0.192   1.273  0.00  0.00    +0.219 A 
ATOM      2  C3  UNL     1       5.375  -0.875   0.678  0.00  0.00    +0.090 A 
ATOM      3  C4  UNL     1       4.683  -1.676  -0.235  0.00  0.00    +0.047 A 
ATOM      4  C5  UNL     1       5.364  -2.830  -0.898  0.00  0.00    +0.066 C 
ATOM      5  N1  UNL     1       3.384  -1.399  -0.520  0.00  0.00    -0.219 NA
ATOM      6  C6  UNL     1       2.733  -0.355   0.063  0.00  0.00    +0.221 A 
ATOM      7  N2  UNL     1       1.349  -0.082  -0.256  0.00  0.00    -0.297 N 
ATOM      8  C7  UNL     1       0.714   1.162   0.211  0.00  0.00    +0.110 C 
ATOM      9  C8  UNL     1      -0.758   0.924   0.554  0.00  0.00    +0.044 C 
ATOM     10  C9  UNL     1      -1.493   0.253  -0.615  0.00  0.00    +0.105 C 
ATOM     11  C15 UNL     1      -0.803  -1.073  -0.981  0.00  0.00    +0.152 C 
ATOM     12  C16 UNL     1       0.675  -0.832  -1.329  0.00  0.00    +0.141 C 
ATOM     13  N6  UNL     1       3.402   0.428   0.954  0.00  0.00    -0.179 NA
ENDROOT
BRANCH  10  14
ATOM     14  N3  UNL     1      -2.889   0.008  -0.242  0.00  0.00    -0.306 N 
ATOM     15  C10 UNL     1      -3.927   0.973  -0.482  0.00  0.00    +0.246 C 
ATOM     16  O2  UNL     1      -3.625   2.118  -0.918  0.00  0.00    -0.270 OA
ATOM     17  H13 UNL     1      -3.095  -0.809   0.376  0.00  0.00    +0.149 HD
BRANCH  15  18
ATOM     18  C11 UNL     1      -5.348   0.652  -0.210  0.00  0.00    +0.058 A 
ATOM     19  C12 UNL     1      -6.283   1.679  -0.015  0.00  0.00    +0.036 A 
ATOM     20  C13 UNL     1      -7.616   1.358   0.234  0.00  0.00    +0.135 A 
ATOM     21  N4  UNL     1      -7.995   0.056   0.275  0.00  0.00    -0.158 NA
ATOM     22  N5  UNL     1      -7.117  -0.929   0.079  0.00  0.00    -0.157 NA
ATOM     23  C14 UNL     1      -5.805  -0.674  -0.164  0.00  0.00    +0.148 A 
ENDBRANCH  15  18
ENDBRANCH  10  14
BRANCH   1  25
ATOM     24  C1  UNL     1       4.756   2.111   2.835  0.00  0.00    +0.279 C 
ATOM     25  O1  UNL     1       5.376   1.005   2.189  0.00  0.00    -0.480 OA
ENDBRANCH   1  25
BRANCH  11  26
ATOM     26  O3  UNL     1      -1.461  -1.650  -2.080  0.00  0.00    -0.388 OA
ATOM     27  H18 UNL     1      -1.184  -2.604  -2.111  0.00  0.00    +0.210 HD
ENDBRANCH  11  26
TORSDOF 4
