MODEL 1
REMARK VINA RESULT:    -6.355      0.000      0.000
REMARK INTER + INTRA:          -8.164
REMARK INTER:                  -7.470
REMARK INTRA:                  -0.694
REMARK UNBOUND:                -0.694
REMARK  Name = /home/qwerty/github/datacon2025hack/step_04_hit_selection/docking/ligands/lig_627.pdb
REMARK  5 active torsions:
REMARK  status: ('A' for Active; 'I' for Inactive)
REMARK    1  A    between atoms: C1_1  and  C2_2
REMARK    2  A    between atoms: C7_7  and  C8_8
REMARK    3  A    between atoms: C9_9  and  N1_10
REMARK    4  A    between atoms: N1_10  and  C10_11
REMARK    5  A    between atoms: N2_14  and  C13_15
REMARK                            x       y       z     vdW  Elec       q    Type
REMARK                         _______ _______ _______ _____ _____    ______ ____
ROOT
ATOM      1  N1  UNL     1      21.196   6.130  31.451  0.00  0.00    -0.306 NA
ATOM      2  H10 UNL     1      21.477   6.702  30.621  0.00  0.00    +0.123 HD
ENDROOT
BRANCH   1  11
ATOM      3  C1  UNL     1      19.794   9.356  36.895  0.00  0.00    +0.044 C 
ATOM      4  C2  UNL     1      20.394   8.549  35.774  0.00  0.00    -0.046 A 
ATOM      5  C3  UNL     1      20.916   9.213  34.652  0.00  0.00    +0.018 A 
ATOM      6  C4  UNL     1      21.460   8.490  33.587  0.00  0.00    +0.013 A 
ATOM      7  C5  UNL     1      21.546   7.091  33.651  0.00  0.00    -0.017 A 
ATOM      8  C6  UNL     1      21.000   6.421  34.756  0.00  0.00    +0.010 A 
ATOM      9  C7  UNL     1      20.414   7.134  35.815  0.00  0.00    -0.047 A 
ATOM     10  C8  UNL     1      19.852   6.378  36.991  0.00  0.00    +0.044 C 
ATOM     11  C9  UNL     1      22.194   6.310  32.525  0.00  0.00    +0.086 C 
ATOM     12  C19 UNL     1      23.513   6.962  31.991  0.00  0.00    +0.034 C 
ATOM     13  C20 UNL     1      23.703   8.456  32.314  0.00  0.00    +0.076 C 
ATOM     14  S1  UNL     1      22.132   9.362  32.172  0.00  0.00    -0.125 S 
ENDBRANCH   1  11
BRANCH   1  15
ATOM     15  C10 UNL     1      21.010   4.713  31.073  0.00  0.00    +0.057 C 
ATOM     16  C11 UNL     1      21.872   3.799  31.967  0.00  0.00    +0.037 C 
ATOM     17  C12 UNL     1      21.732   2.333  31.551  0.00  0.00    +0.108 C 
ATOM     18  N2  UNL     1      22.007   2.177  30.116  0.00  0.00    -0.314 N 
ATOM     19  C17 UNL     1      21.292   3.051  29.176  0.00  0.00    +0.108 C 
ATOM     20  C18 UNL     1      21.422   4.518  29.602  0.00  0.00    +0.037 C 
BRANCH  18  21
ATOM     21  C13 UNL     1      22.718   1.011  29.654  0.00  0.00    +0.144 A 
ATOM     22  C14 UNL     1      22.041  -0.149  29.246  0.00  0.00    +0.047 A 
ATOM     23  C15 UNL     1      22.773  -1.250  28.810  0.00  0.00    +0.025 A 
ATOM     24  C16 UNL     1      24.164  -1.178  28.792  0.00  0.00    +0.135 A 
ATOM     25  N3  UNL     1      24.780  -0.040  29.203  0.00  0.00    -0.156 NA
ATOM     26  N4  UNL     1      24.079   1.017  29.621  0.00  0.00    -0.134 NA
ENDBRANCH  18  21
ENDBRANCH   1  15
TORSDOF 3
ENDMDL
MODEL 2
REMARK VINA RESULT:    -6.284      7.161     10.156
REMARK INTER + INTRA:          -8.080
REMARK INTER:                  -7.448
REMARK INTRA:                  -0.632
REMARK UNBOUND:                -0.694
REMARK  Name = /home/qwerty/github/datacon2025hack/step_04_hit_selection/docking/ligands/lig_627.pdb
REMARK  5 active torsions:
REMARK  status: ('A' for Active; 'I' for Inactive)
REMARK    1  A    between atoms: C1_1  and  C2_2
REMARK    2  A    between atoms: C7_7  and  C8_8
REMARK    3  A    between atoms: C9_9  and  N1_10
REMARK    4  A    between atoms: N1_10  and  C10_11
REMARK    5  A    between atoms: N2_14  and  C13_15
REMARK                            x       y       z     vdW  Elec       q    Type
REMARK                         _______ _______ _______ _____ _____    ______ ____
ROOT
ATOM      1  N1  UNL     1      22.157   6.196  23.870  0.00  0.00    -0.306 NA
ATOM      2  H10 UNL     1      21.554   7.035  24.039  0.00  0.00    +0.123 HD
ENDROOT
BRANCH   1  11
ATOM      3  C1  UNL     1      23.348  10.808  19.474  0.00  0.00    +0.044 C 
ATOM      4  C2  UNL     1      23.075   9.544  20.246  0.00  0.00    -0.046 A 
ATOM      5  C3  UNL     1      21.765   9.267  20.670  0.00  0.00    +0.018 A 
ATOM      6  C4  UNL     1      21.483   8.114  21.405  0.00  0.00    +0.013 A 
ATOM      7  C5  UNL     1      22.498   7.184  21.680  0.00  0.00    -0.017 A 
ATOM      8  C6  UNL     1      23.814   7.469  21.286  0.00  0.00    +0.010 A 
ATOM      9  C7  UNL     1      24.116   8.646  20.580  0.00  0.00    -0.047 A 
ATOM     10  C8  UNL     1      25.539   8.908  20.161  0.00  0.00    +0.044 C 
ATOM     11  C9  UNL     1      22.183   5.900  22.423  0.00  0.00    +0.086 C 
ATOM     12  C19 UNL     1      20.860   5.213  21.945  0.00  0.00    +0.034 C 
ATOM     13  C20 UNL     1      19.869   6.115  21.187  0.00  0.00    +0.076 C 
ATOM     14  S1  UNL     1      19.801   7.777  21.923  0.00  0.00    -0.125 S 
ENDBRANCH   1  11
BRANCH   1  15
ATOM     15  C10 UNL     1      21.699   5.048  24.681  0.00  0.00    +0.057 C 
ATOM     16  C11 UNL     1      20.886   5.537  25.896  0.00  0.00    +0.037 C 
ATOM     17  C12 UNL     1      20.451   4.362  26.776  0.00  0.00    +0.108 C 
ATOM     18  N2  UNL     1      21.611   3.535  27.140  0.00  0.00    -0.314 N 
ATOM     19  C17 UNL     1      22.497   3.075  26.061  0.00  0.00    +0.108 C 
ATOM     20  C18 UNL     1      22.920   4.251  25.174  0.00  0.00    +0.037 C 
BRANCH  18  21
ATOM     21  C13 UNL     1      21.685   2.962  28.460  0.00  0.00    +0.144 A 
ATOM     22  C14 UNL     1      22.217   1.681  28.676  0.00  0.00    +0.047 A 
ATOM     23  C15 UNL     1      22.265   1.170  29.971  0.00  0.00    +0.025 A 
ATOM     24  C16 UNL     1      21.779   1.941  31.024  0.00  0.00    +0.135 A 
ATOM     25  N3  UNL     1      21.265   3.172  30.770  0.00  0.00    -0.156 NA
ATOM     26  N4  UNL     1      21.218   3.663  29.530  0.00  0.00    -0.134 NA
ENDBRANCH  18  21
ENDBRANCH   1  15
TORSDOF 3
ENDMDL
MODEL 3
REMARK VINA RESULT:    -6.257     13.280     15.160
REMARK INTER + INTRA:          -8.048
REMARK INTER:                  -7.426
REMARK INTRA:                  -0.622
REMARK UNBOUND:                -0.694
REMARK  Name = /home/qwerty/github/datacon2025hack/step_04_hit_selection/docking/ligands/lig_627.pdb
REMARK  5 active torsions:
REMARK  status: ('A' for Active; 'I' for Inactive)
REMARK    1  A    between atoms: C1_1  and  C2_2
REMARK    2  A    between atoms: C7_7  and  C8_8
REMARK    3  A    between atoms: C9_9  and  N1_10
REMARK    4  A    between atoms: N1_10  and  C10_11
REMARK    5  A    between atoms: N2_14  and  C13_15
REMARK                            x       y       z     vdW  Elec       q    Type
REMARK                         _______ _______ _______ _____ _____    ______ ____
ROOT
ATOM      1  N1  UNL     1      11.488   4.831  21.460  0.00  0.00    -0.306 NA
ATOM      2  H10 UNL     1      11.196   4.987  22.454  0.00  0.00    +0.123 HD
ENDROOT
BRANCH   1  11
ATOM      3  C1  UNL     1       8.886  10.759  21.771  0.00  0.00    +0.044 C 
ATOM      4  C2  UNL     1       9.300   9.347  21.450  0.00  0.00    -0.046 A 
ATOM      5  C3  UNL     1       8.787   8.289  22.218  0.00  0.00    +0.018 A 
ATOM      6  C4  UNL     1       9.169   6.971  21.958  0.00  0.00    +0.013 A 
ATOM      7  C5  UNL     1      10.026   6.680  20.885  0.00  0.00    -0.017 A 
ATOM      8  C6  UNL     1      10.565   7.735  20.134  0.00  0.00    +0.010 A 
ATOM      9  C7  UNL     1      10.220   9.068  20.411  0.00  0.00    -0.047 A 
ATOM     10  C8  UNL     1      10.809  10.172  19.572  0.00  0.00    +0.044 C 
ATOM     11  C9  UNL     1      10.391   5.245  20.562  0.00  0.00    +0.086 C 
ATOM     12  C19 UNL     1       9.176   4.261  20.635  0.00  0.00    +0.034 C 
ATOM     13  C20 UNL     1       7.961   4.750  21.446  0.00  0.00    +0.076 C 
ATOM     14  S1  UNL     1       8.489   5.637  22.944  0.00  0.00    -0.125 S 
ENDBRANCH   1  11
BRANCH   1  15
ATOM     15  C10 UNL     1      11.902   3.428  21.249  0.00  0.00    +0.057 C 
ATOM     16  C11 UNL     1      11.934   2.668  22.590  0.00  0.00    +0.037 C 
ATOM     17  C12 UNL     1      12.415   1.227  22.394  0.00  0.00    +0.108 C 
ATOM     18  N2  UNL     1      13.698   1.206  21.678  0.00  0.00    -0.314 N 
ATOM     19  C17 UNL     1      13.800   1.962  20.421  0.00  0.00    +0.108 C 
ATOM     20  C18 UNL     1      13.306   3.399  20.616  0.00  0.00    +0.037 C 
BRANCH  18  21
ATOM     21  C13 UNL     1      14.700   0.239  22.049  0.00  0.00    +0.144 A 
ATOM     22  C14 UNL     1      15.845   0.028  21.263  0.00  0.00    +0.047 A 
ATOM     23  C15 UNL     1      16.783  -0.920  21.663  0.00  0.00    +0.025 A 
ATOM     24  C16 UNL     1      16.563  -1.642  22.833  0.00  0.00    +0.135 A 
ATOM     25  N3  UNL     1      15.439  -1.414  23.559  0.00  0.00    -0.156 NA
ATOM     26  N4  UNL     1      14.538  -0.505  23.178  0.00  0.00    -0.134 NA
ENDBRANCH  18  21
ENDBRANCH   1  15
TORSDOF 3
ENDMDL
MODEL 4
REMARK VINA RESULT:    -6.238      2.904      7.974
REMARK INTER + INTRA:          -8.026
REMARK INTER:                  -7.383
REMARK INTRA:                  -0.643
REMARK UNBOUND:                -0.694
REMARK  Name = /home/qwerty/github/datacon2025hack/step_04_hit_selection/docking/ligands/lig_627.pdb
REMARK  5 active torsions:
REMARK  status: ('A' for Active; 'I' for Inactive)
REMARK    1  A    between atoms: C1_1  and  C2_2
REMARK    2  A    between atoms: C7_7  and  C8_8
REMARK    3  A    between atoms: C9_9  and  N1_10
REMARK    4  A    between atoms: N1_10  and  C10_11
REMARK    5  A    between atoms: N2_14  and  C13_15
REMARK                            x       y       z     vdW  Elec       q    Type
REMARK                         _______ _______ _______ _____ _____    ______ ____
ROOT
ATOM      1  N1  UNL     1      21.807   5.918  29.573  0.00  0.00    -0.306 NA
ATOM      2  H10 UNL     1      22.088   6.558  28.793  0.00  0.00    +0.123 HD
ENDROOT
BRANCH   1  11
ATOM      3  C1  UNL     1      22.240  -0.484  28.656  0.00  0.00    +0.044 C 
ATOM      4  C2  UNL     1      21.832   0.958  28.811  0.00  0.00    -0.046 A 
ATOM      5  C3  UNL     1      22.081   1.858  27.762  0.00  0.00    +0.018 A 
ATOM      6  C4  UNL     1      21.735   3.206  27.885  0.00  0.00    +0.013 A 
ATOM      7  C5  UNL     1      21.077   3.666  29.037  0.00  0.00    -0.017 A 
ATOM      8  C6  UNL     1      20.853   2.778  30.099  0.00  0.00    +0.010 A 
ATOM      9  C7  UNL     1      21.234   1.429  30.003  0.00  0.00    -0.047 A 
ATOM     10  C8  UNL     1      20.962   0.503  31.160  0.00  0.00    +0.044 C 
ATOM     11  C9  UNL     1      20.643   5.115  29.145  0.00  0.00    +0.086 C 
ATOM     12  C19 UNL     1      20.001   5.673  27.832  0.00  0.00    +0.034 C 
ATOM     13  C20 UNL     1      20.320   4.893  26.542  0.00  0.00    +0.076 C 
ATOM     14  S1  UNL     1      22.051   4.333  26.527  0.00  0.00    -0.125 S 
ENDBRANCH   1  11
BRANCH   1  15
ATOM     15  C10 UNL     1      21.552   6.681  30.813  0.00  0.00    +0.057 C 
ATOM     16  C11 UNL     1      22.879   7.005  31.528  0.00  0.00    +0.037 C 
ATOM     17  C12 UNL     1      22.626   7.748  32.843  0.00  0.00    +0.108 C 
ATOM     18  N2  UNL     1      21.675   7.003  33.680  0.00  0.00    -0.314 N 
ATOM     19  C17 UNL     1      20.405   6.580  33.074  0.00  0.00    +0.108 C 
ATOM     20  C18 UNL     1      20.659   5.848  31.751  0.00  0.00    +0.037 C 
BRANCH  18  21
ATOM     21  C13 UNL     1      21.867   6.967  35.109  0.00  0.00    +0.144 A 
ATOM     22  C14 UNL     1      23.118   6.676  35.675  0.00  0.00    +0.047 A 
ATOM     23  C15 UNL     1      23.251   6.651  37.061  0.00  0.00    +0.025 A 
ATOM     24  C16 UNL     1      22.138   6.912  37.856  0.00  0.00    +0.135 A 
ATOM     25  N3  UNL     1      20.944   7.181  37.267  0.00  0.00    -0.156 NA
ATOM     26  N4  UNL     1      20.814   7.205  35.939  0.00  0.00    -0.134 NA
ENDBRANCH  18  21
ENDBRANCH   1  15
TORSDOF 3
ENDMDL
MODEL 5
REMARK VINA RESULT:    -6.158      4.381      6.653
REMARK INTER + INTRA:          -7.932
REMARK INTER:                  -7.271
REMARK INTRA:                  -0.660
REMARK UNBOUND:                -0.694
REMARK  Name = /home/qwerty/github/datacon2025hack/step_04_hit_selection/docking/ligands/lig_627.pdb
REMARK  5 active torsions:
REMARK  status: ('A' for Active; 'I' for Inactive)
REMARK    1  A    between atoms: C1_1  and  C2_2
REMARK    2  A    between atoms: C7_7  and  C8_8
REMARK    3  A    between atoms: C9_9  and  N1_10
REMARK    4  A    between atoms: N1_10  and  C10_11
REMARK    5  A    between atoms: N2_14  and  C13_15
REMARK                            x       y       z     vdW  Elec       q    Type
REMARK                         _______ _______ _______ _____ _____    ______ ____
ROOT
ATOM      1  N1  UNL     1      21.299   1.151  29.006  0.00  0.00    -0.306 NA
ATOM      2  H10 UNL     1      21.041   0.150  29.172  0.00  0.00    +0.123 HD
ENDROOT
BRANCH   1  11
ATOM      3  C1  UNL     1      22.331   5.121  34.024  0.00  0.00    +0.044 C 
ATOM      4  C2  UNL     1      21.808   4.337  32.849  0.00  0.00    -0.046 A 
ATOM      5  C3  UNL     1      21.360   3.020  33.047  0.00  0.00    +0.018 A 
ATOM      6  C4  UNL     1      20.890   2.261  31.973  0.00  0.00    +0.013 A 
ATOM      7  C5  UNL     1      20.802   2.824  30.691  0.00  0.00    -0.017 A 
ATOM      8  C6  UNL     1      21.276   4.128  30.482  0.00  0.00    +0.010 A 
ATOM      9  C7  UNL     1      21.789   4.888  31.546  0.00  0.00    -0.047 A 
ATOM     10  C8  UNL     1      22.273   6.290  31.284  0.00  0.00    +0.044 C 
ATOM     11  C9  UNL     1      20.232   2.023  29.537  0.00  0.00    +0.086 C 
ATOM     12  C19 UNL     1      18.950   1.209  29.917  0.00  0.00    +0.034 C 
ATOM     13  C20 UNL     1      18.736   0.953  31.421  0.00  0.00    +0.076 C 
ATOM     14  S1  UNL     1      20.311   0.587  32.254  0.00  0.00    -0.125 S 
ENDBRANCH   1  11
BRANCH   1  15
ATOM     15  C10 UNL     1      21.574   1.390  27.573  0.00  0.00    +0.057 C 
ATOM     16  C11 UNL     1      22.361   2.703  27.387  0.00  0.00    +0.037 C 
ATOM     17  C12 UNL     1      22.604   2.992  25.903  0.00  0.00    +0.108 C 
ATOM     18  N2  UNL     1      21.338   2.956  25.158  0.00  0.00    -0.314 N 
ATOM     19  C17 UNL     1      20.473   1.779  25.320  0.00  0.00    +0.108 C 
ATOM     20  C18 UNL     1      20.242   1.484  26.806  0.00  0.00    +0.037 C 
BRANCH  18  21
ATOM     21  C13 UNL     1      21.118   3.900  24.090  0.00  0.00    +0.144 A 
ATOM     22  C14 UNL     1      20.216   3.634  23.048  0.00  0.00    +0.047 A 
ATOM     23  C15 UNL     1      20.040   4.577  22.039  0.00  0.00    +0.025 A 
ATOM     24  C16 UNL     1      20.768   5.763  22.083  0.00  0.00    +0.135 A 
ATOM     25  N3  UNL     1      21.637   5.977  23.104  0.00  0.00    -0.156 NA
ATOM     26  N4  UNL     1      21.807   5.075  24.073  0.00  0.00    -0.134 NA
ENDBRANCH  18  21
ENDBRANCH   1  15
TORSDOF 3
ENDMDL
MODEL 6
REMARK VINA RESULT:    -6.051     13.576     15.713
REMARK INTER + INTRA:          -7.806
REMARK INTER:                  -6.983
REMARK INTRA:                  -0.823
REMARK UNBOUND:                -0.694
REMARK  Name = /home/qwerty/github/datacon2025hack/step_04_hit_selection/docking/ligands/lig_627.pdb
REMARK  5 active torsions:
REMARK  status: ('A' for Active; 'I' for Inactive)
REMARK    1  A    between atoms: C1_1  and  C2_2
REMARK    2  A    between atoms: C7_7  and  C8_8
REMARK    3  A    between atoms: C9_9  and  N1_10
REMARK    4  A    between atoms: N1_10  and  C10_11
REMARK    5  A    between atoms: N2_14  and  C13_15
REMARK                            x       y       z     vdW  Elec       q    Type
REMARK                         _______ _______ _______ _____ _____    ______ ____
ROOT
ATOM      1  N1  UNL     1      11.671   5.284  22.000  0.00  0.00    -0.306 NA
ATOM      2  H10 UNL     1      11.300   4.472  22.546  0.00  0.00    +0.123 HD
ENDROOT
BRANCH   1  11
ATOM      3  C1  UNL     1       8.404  10.826  21.215  0.00  0.00    +0.044 C 
ATOM      4  C2  UNL     1       9.049   9.470  21.112  0.00  0.00    -0.046 A 
ATOM      5  C3  UNL     1       8.481   8.384  21.798  0.00  0.00    +0.018 A 
ATOM      6  C4  UNL     1       9.069   7.118  21.738  0.00  0.00    +0.013 A 
ATOM      7  C5  UNL     1      10.204   6.901  20.942  0.00  0.00    -0.017 A 
ATOM      8  C6  UNL     1      10.793   7.988  20.278  0.00  0.00    +0.010 A 
ATOM      9  C7  UNL     1      10.234   9.274  20.363  0.00  0.00    -0.047 A 
ATOM     10  C8  UNL     1      10.888  10.412  19.623  0.00  0.00    +0.044 C 
ATOM     11  C9  UNL     1      10.806   5.515  20.825  0.00  0.00    +0.086 C 
ATOM     12  C19 UNL     1       9.737   4.383  20.658  0.00  0.00    +0.034 C 
ATOM     13  C20 UNL     1       8.305   4.740  21.097  0.00  0.00    +0.076 C 
ATOM     14  S1  UNL     1       8.317   5.746  22.613  0.00  0.00    -0.125 S 
ENDBRANCH   1  11
BRANCH   1  15
ATOM     15  C10 UNL     1      13.087   5.067  21.634  0.00  0.00    +0.057 C 
ATOM     16  C11 UNL     1      13.983   6.138  22.287  0.00  0.00    +0.037 C 
ATOM     17  C12 UNL     1      15.446   5.958  21.872  0.00  0.00    +0.108 C 
ATOM     18  N2  UNL     1      15.563   5.909  20.408  0.00  0.00    -0.314 N 
ATOM     19  C17 UNL     1      14.699   4.972  19.677  0.00  0.00    +0.108 C 
ATOM     20  C18 UNL     1      13.237   5.144  20.103  0.00  0.00    +0.037 C 
BRANCH  18  21
ATOM     21  C13 UNL     1      16.691   6.538  19.767  0.00  0.00    +0.144 A 
ATOM     22  C14 UNL     1      17.612   5.797  19.010  0.00  0.00    +0.047 A 
ATOM     23  C15 UNL     1      18.687   6.450  18.411  0.00  0.00    +0.025 A 
ATOM     24  C16 UNL     1      18.827   7.825  18.582  0.00  0.00    +0.135 A 
ATOM     25  N3  UNL     1      17.918   8.502  19.329  0.00  0.00    -0.156 NA
ATOM     26  N4  UNL     1      16.887   7.878  19.903  0.00  0.00    -0.134 NA
ENDBRANCH  18  21
ENDBRANCH   1  15
TORSDOF 3
ENDMDL
MODEL 7
REMARK VINA RESULT:    -5.998     11.924     15.403
REMARK INTER + INTRA:          -7.745
REMARK INTER:                  -6.976
REMARK INTRA:                  -0.769
REMARK UNBOUND:                -0.694
REMARK  Name = /home/qwerty/github/datacon2025hack/step_04_hit_selection/docking/ligands/lig_627.pdb
REMARK  5 active torsions:
REMARK  status: ('A' for Active; 'I' for Inactive)
REMARK    1  A    between atoms: C1_1  and  C2_2
REMARK    2  A    between atoms: C7_7  and  C8_8
REMARK    3  A    between atoms: C9_9  and  N1_10
REMARK    4  A    between atoms: N1_10  and  C10_11
REMARK    5  A    between atoms: N2_14  and  C13_15
REMARK                            x       y       z     vdW  Elec       q    Type
REMARK                         _______ _______ _______ _____ _____    ______ ____
ROOT
ATOM      1  N1  UNL     1      11.699   0.292  24.268  0.00  0.00    -0.306 NA
ATOM      2  H10 UNL     1      11.194   0.156  25.174  0.00  0.00    +0.123 HD
ENDROOT
BRANCH   1  11
ATOM      3  C1  UNL     1      17.271  -3.012  24.038  0.00  0.00    +0.044 C 
ATOM      4  C2  UNL     1      16.164  -1.995  24.136  0.00  0.00    -0.046 A 
ATOM      5  C3  UNL     1      15.434  -1.887  25.331  0.00  0.00    +0.018 A 
ATOM      6  C4  UNL     1      14.388  -0.968  25.445  0.00  0.00    +0.013 A 
ATOM      7  C5  UNL     1      14.091  -0.097  24.385  0.00  0.00    -0.017 A 
ATOM      8  C6  UNL     1      14.797  -0.221  23.179  0.00  0.00    +0.010 A 
ATOM      9  C7  UNL     1      15.825  -1.168  23.039  0.00  0.00    -0.047 A 
ATOM     10  C8  UNL     1      16.570  -1.259  21.733  0.00  0.00    +0.044 C 
ATOM     11  C9  UNL     1      12.999   0.944  24.530  0.00  0.00    +0.086 C 
ATOM     12  C19 UNL     1      13.015   1.676  25.914  0.00  0.00    +0.034 C 
ATOM     13  C20 UNL     1      13.767   0.955  27.048  0.00  0.00    +0.076 C 
ATOM     14  S1  UNL     1      13.480  -0.840  26.986  0.00  0.00    -0.125 S 
ENDBRANCH   1  11
BRANCH   1  15
ATOM     15  C10 UNL     1      10.864   1.046  23.309  0.00  0.00    +0.057 C 
ATOM     16  C11 UNL     1      11.748   1.911  22.388  0.00  0.00    +0.037 C 
ATOM     17  C12 UNL     1      10.893   2.740  21.426  0.00  0.00    +0.108 C 
ATOM     18  N2  UNL     1       9.886   3.512  22.167  0.00  0.00    -0.314 N 
ATOM     19  C17 UNL     1       9.036   2.796  23.128  0.00  0.00    +0.108 C 
ATOM     20  C18 UNL     1       9.893   1.957  24.082  0.00  0.00    +0.037 C 
BRANCH  18  21
ATOM     21  C13 UNL     1       9.559   4.848  21.735  0.00  0.00    +0.144 A 
ATOM     22  C14 UNL     1      10.224   5.456  20.658  0.00  0.00    +0.047 A 
ATOM     23  C15 UNL     1       9.873   6.749  20.280  0.00  0.00    +0.025 A 
ATOM     24  C16 UNL     1       8.871   7.414  20.982  0.00  0.00    +0.135 A 
ATOM     25  N3  UNL     1       8.259   6.793  22.023  0.00  0.00    -0.156 NA
ATOM     26  N4  UNL     1       8.594   5.553  22.387  0.00  0.00    -0.134 NA
ENDBRANCH  18  21
ENDBRANCH   1  15
TORSDOF 3
ENDMDL
MODEL 8
REMARK VINA RESULT:    -5.959     11.793     15.335
REMARK INTER + INTRA:          -7.698
REMARK INTER:                  -6.800
REMARK INTRA:                  -0.898
REMARK UNBOUND:                -0.694
REMARK  Name = /home/qwerty/github/datacon2025hack/step_04_hit_selection/docking/ligands/lig_627.pdb
REMARK  5 active torsions:
REMARK  status: ('A' for Active; 'I' for Inactive)
REMARK    1  A    between atoms: C1_1  and  C2_2
REMARK    2  A    between atoms: C7_7  and  C8_8
REMARK    3  A    between atoms: C9_9  and  N1_10
REMARK    4  A    between atoms: N1_10  and  C10_11
REMARK    5  A    between atoms: N2_14  and  C13_15
REMARK                            x       y       z     vdW  Elec       q    Type
REMARK                         _______ _______ _______ _____ _____    ______ ____
ROOT
ATOM      1  N1  UNL     1      12.759  -0.094  24.727  0.00  0.00    -0.306 NA
ATOM      2  H10 UNL     1      12.654  -0.601  25.637  0.00  0.00    +0.123 HD
ENDROOT
BRANCH   1  11
ATOM      3  C1  UNL     1      16.945  -1.052  19.872  0.00  0.00    +0.044 C 
ATOM      4  C2  UNL     1      16.185  -0.618  21.098  0.00  0.00    -0.046 A 
ATOM      5  C3  UNL     1      16.201  -1.436  22.240  0.00  0.00    +0.018 A 
ATOM      6  C4  UNL     1      15.489  -1.071  23.385  0.00  0.00    +0.013 A 
ATOM      7  C5  UNL     1      14.795   0.149  23.430  0.00  0.00    -0.017 A 
ATOM      8  C6  UNL     1      14.752   0.955  22.283  0.00  0.00    +0.010 A 
ATOM      9  C7  UNL     1      15.431   0.579  21.112  0.00  0.00    -0.047 A 
ATOM     10  C8  UNL     1      15.372   1.479  19.905  0.00  0.00    +0.044 C 
ATOM     11  C9  UNL     1      14.076   0.576  24.694  0.00  0.00    +0.086 C 
ATOM     12  C19 UNL     1      14.897   0.311  26.000  0.00  0.00    +0.034 C 
ATOM     13  C20 UNL     1      16.032  -0.723  25.882  0.00  0.00    +0.076 C 
ATOM     14  S1  UNL     1      15.536  -2.125  24.834  0.00  0.00    -0.125 S 
ENDBRANCH   1  11
BRANCH   1  15
ATOM     15  C10 UNL     1      11.635   0.842  24.515  0.00  0.00    +0.057 C 
ATOM     16  C11 UNL     1      11.048   0.666  23.100  0.00  0.00    +0.037 C 
ATOM     17  C12 UNL     1       9.917   1.668  22.846  0.00  0.00    +0.108 C 
ATOM     18  N2  UNL     1      10.371   3.037  23.127  0.00  0.00    -0.314 N 
ATOM     19  C17 UNL     1      11.014   3.300  24.422  0.00  0.00    +0.108 C 
ATOM     20  C18 UNL     1      12.136   2.288  24.681  0.00  0.00    +0.037 C 
BRANCH  18  21
ATOM     21  C13 UNL     1       9.922   4.118  22.285  0.00  0.00    +0.144 A 
ATOM     22  C14 UNL     1       8.785   4.877  22.607  0.00  0.00    +0.047 A 
ATOM     23  C15 UNL     1       8.392   5.909  21.760  0.00  0.00    +0.025 A 
ATOM     24  C16 UNL     1       9.132   6.164  20.609  0.00  0.00    +0.135 A 
ATOM     25  N3  UNL     1      10.220   5.402  20.331  0.00  0.00    -0.156 NA
ATOM     26  N4  UNL     1      10.600   4.411  21.141  0.00  0.00    -0.134 NA
ENDBRANCH  18  21
ENDBRANCH   1  15
TORSDOF 3
ENDMDL
MODEL 9
REMARK VINA RESULT:    -5.953      5.622      8.908
REMARK INTER + INTRA:          -7.691
REMARK INTER:                  -7.095
REMARK INTRA:                  -0.596
REMARK UNBOUND:                -0.694
REMARK  Name = /home/qwerty/github/datacon2025hack/step_04_hit_selection/docking/ligands/lig_627.pdb
REMARK  5 active torsions:
REMARK  status: ('A' for Active; 'I' for Inactive)
REMARK    1  A    between atoms: C1_1  and  C2_2
REMARK    2  A    between atoms: C7_7  and  C8_8
REMARK    3  A    between atoms: C9_9  and  N1_10
REMARK    4  A    between atoms: N1_10  and  C10_11
REMARK    5  A    between atoms: N2_14  and  C13_15
REMARK                            x       y       z     vdW  Elec       q    Type
REMARK                         _______ _______ _______ _____ _____    ______ ____
ROOT
ATOM      1  N1  UNL     1      16.887  10.205  36.317  0.00  0.00    -0.306 NA
ATOM      2  H10 UNL     1      16.586  10.141  35.316  0.00  0.00    +0.123 HD
ENDROOT
BRANCH   1  11
ATOM      3  C1  UNL     1      10.945  12.367  34.893  0.00  0.00    +0.044 C 
ATOM      4  C2  UNL     1      12.330  12.107  35.426  0.00  0.00    -0.046 A 
ATOM      5  C3  UNL     1      13.444  12.492  34.662  0.00  0.00    +0.018 A 
ATOM      6  C4  UNL     1      14.740  12.245  35.120  0.00  0.00    +0.013 A 
ATOM      7  C5  UNL     1      14.947  11.661  36.379  0.00  0.00    -0.017 A 
ATOM      8  C6  UNL     1      13.839  11.247  37.133  0.00  0.00    +0.010 A 
ATOM      9  C7  UNL     1      12.531  11.454  36.665  0.00  0.00    -0.047 A 
ATOM     10  C8  UNL     1      11.366  11.009  37.511  0.00  0.00    +0.044 C 
ATOM     11  C9  UNL     1      16.353  11.451  36.905  0.00  0.00    +0.086 C 
ATOM     12  C19 UNL     1      17.303  12.669  36.652  0.00  0.00    +0.034 C 
ATOM     13  C20 UNL     1      16.861  13.648  35.548  0.00  0.00    +0.076 C 
ATOM     14  S1  UNL     1      16.145  12.759  34.132  0.00  0.00    -0.125 S 
ENDBRANCH   1  11
BRANCH   1  15
ATOM     15  C10 UNL     1      18.358  10.104  36.429  0.00  0.00    +0.057 C 
ATOM     16  C11 UNL     1      19.010  10.154  35.033  0.00  0.00    +0.037 C 
ATOM     17  C12 UNL     1      20.529   9.994  35.130  0.00  0.00    +0.108 C 
ATOM     18  N2  UNL     1      20.872   8.786  35.894  0.00  0.00    -0.314 N 
ATOM     19  C17 UNL     1      20.247   8.602  37.212  0.00  0.00    +0.108 C 
ATOM     20  C18 UNL     1      18.727   8.775  37.115  0.00  0.00    +0.037 C 
BRANCH  18  21
ATOM     21  C13 UNL     1      22.000   7.987  35.487  0.00  0.00    +0.144 A 
ATOM     22  C14 UNL     1      22.519   6.974  36.310  0.00  0.00    +0.047 A 
ATOM     23  C15 UNL     1      23.612   6.231  35.872  0.00  0.00    +0.025 A 
ATOM     24  C16 UNL     1      24.170   6.512  34.628  0.00  0.00    +0.135 A 
ATOM     25  N3  UNL     1      23.644   7.506  33.867  0.00  0.00    -0.156 NA
ATOM     26  N4  UNL     1      22.596   8.220  34.285  0.00  0.00    -0.134 NA
ENDBRANCH  18  21
ENDBRANCH   1  15
TORSDOF 3
ENDMDL
