REMARK  Name = /home/qwerty/github/datacon2025hack/step_04_hit_selection/docking/ligands/lig_728.pdb
REMARK  8 active torsions:
REMARK  status: ('A' for Active; 'I' for Inactive)
REMARK    1  A    between atoms: C1_1  and  O1_2
REMARK    2  A    between atoms: O1_2  and  C2_3
REMARK    3  A    between atoms: C4_5  and  N1_6
REMARK    4  A    between atoms: N2_9  and  C6_10
REMARK    5  A    between atoms: C8_12  and  C9_13
REMARK    6  A    between atoms: C17_24  and  N4_25
REMARK    7  A    between atoms: N5_28  and  C19_29
REMARK    8  A    between atoms: C24_35  and  C25_36
REMARK                            x       y       z     vdW  Elec       q    Type
REMARK                         _______ _______ _______ _____ _____    ______ ____
ROOT
ATOM      1  C2  UNL     1      -2.286  -0.859   1.938  0.00  0.00    +0.143 A 
ATOM      2  C3  UNL     1      -1.036  -1.323   2.396  0.00  0.00    +0.071 A 
ATOM      3  C4  UNL     1       0.075  -1.351   1.542  0.00  0.00    +0.038 A 
ATOM      4  C15 UNL     1      -0.074  -0.940   0.209  0.00  0.00    +0.025 A 
ATOM      5  C16 UNL     1      -1.308  -0.481  -0.254  0.00  0.00    +0.029 A 
ATOM      6  C17 UNL     1      -2.423  -0.445   0.600  0.00  0.00    +0.077 A 
ENDROOT
BRANCH   3   7
ATOM      7  N1  UNL     1       1.331  -1.849   2.034  0.00  0.00    -0.269 N 
ATOM      8  C5  UNL     1       2.611  -1.331   1.641  0.00  0.00    +0.310 C 
ATOM      9  O2  UNL     1       2.685  -0.255   0.987  0.00  0.00    -0.252 OA
ATOM     10  N2  UNL     1       3.801  -2.046   2.003  0.00  0.00    -0.238 N 
ATOM     11  H5  UNL     1       1.313  -2.568   2.793  0.00  0.00    +0.156 HD
ATOM     12  H6  UNL     1       3.698  -3.025   2.352  0.00  0.00    +0.159 HD
BRANCH  10  13
ATOM     13  C6  UNL     1       5.134  -1.529   1.878  0.00  0.00    +0.226 A 
ATOM     14  C7  UNL     1       5.512  -0.208   1.740  0.00  0.00    +0.097 A 
ATOM     15  C8  UNL     1       6.896  -0.275   1.693  0.00  0.00    +0.115 A 
ATOM     16  N3  UNL     1       7.283  -1.564   1.800  0.00  0.00    -0.076 NA
ATOM     17  O3  UNL     1       6.205  -2.283   1.913  0.00  0.00    -0.339 OA
BRANCH  15  18
ATOM     18  C9  UNL     1       7.842   0.860   1.563  0.00  0.00    +0.004 A 
ATOM     19  C10 UNL     1       7.388   2.194   1.545  0.00  0.00    +0.011 A 
ATOM     20  C11 UNL     1       8.297   3.250   1.427  0.00  0.00    +0.016 A 
ATOM     21  C12 UNL     1       9.667   2.991   1.327  0.00  0.00    +0.018 A 
ATOM     22 BR1  UNL     1      10.905   4.436   1.170  0.00  0.00    -0.050 Br
ATOM     23  C13 UNL     1      10.128   1.672   1.341  0.00  0.00    +0.016 A 
ATOM     24  C14 UNL     1       9.224   0.612   1.458  0.00  0.00    +0.011 A 
ENDBRANCH  15  18
ENDBRANCH  10  13
ENDBRANCH   3   7
BRANCH   6  25
ATOM     25  N4  UNL     1      -3.689   0.057   0.134  0.00  0.00    -0.266 N 
ATOM     26  C18 UNL     1      -4.213  -0.195  -1.178  0.00  0.00    +0.308 C 
ATOM     27  O4  UNL     1      -3.679  -1.066  -1.919  0.00  0.00    -0.252 OA
ATOM     28  N5  UNL     1      -5.394   0.497  -1.614  0.00  0.00    -0.269 N 
ATOM     29  H14 UNL     1      -4.294   0.578   0.808  0.00  0.00    +0.156 HD
ATOM     30  H15 UNL     1      -5.931   1.036  -0.899  0.00  0.00    +0.156 HD
BRANCH  28  31
ATOM     31  C19 UNL     1      -5.904   0.433  -2.958  0.00  0.00    +0.040 A 
ATOM     32  C20 UNL     1      -5.021   0.479  -4.053  0.00  0.00    +0.062 A 
ATOM     33  C21 UNL     1      -5.510   0.455  -5.361  0.00  0.00    +0.125 A 
ATOM     34  F1  UNL     1      -4.648   0.501  -6.407  0.00  0.00    -0.205 F 
ATOM     35  C22 UNL     1      -6.884   0.398  -5.593  0.00  0.00    +0.039 A 
ATOM     36  C23 UNL     1      -7.775   0.367  -4.518  0.00  0.00    +0.008 A 
ATOM     37  C24 UNL     1      -7.298   0.381  -3.196  0.00  0.00    -0.029 A 
ATOM     38  C25 UNL     1      -8.280   0.349  -2.056  0.00  0.00    +0.045 C 
ENDBRANCH  28  31
ENDBRANCH   6  25
BRANCH   1  40
ATOM     39  C1  UNL     1      -3.415  -1.199   4.148  0.00  0.00    +0.277 C 
ATOM     40  O1  UNL     1      -3.410  -0.809   2.779  0.00  0.00    -0.493 OA
ENDBRANCH   1  40
TORSDOF 6
