REMARK  Name = /home/qwerty/github/datacon2025hack/step_04_hit_selection/docking/ligands/lig_169.pdb
REMARK  2 active torsions:
REMARK  status: ('A' for Active; 'I' for Inactive)
REMARK    1  A    between atoms: C1_1  and  C2_2
REMARK    2  A    between atoms: C10_10  and  C11_11
REMARK                            x       y       z     vdW  Elec       q    Type
REMARK                         _______ _______ _______ _____ _____    ______ ____
ROOT
ATOM      1  C11 UNL     1       0.949  -2.888   0.693  0.00  0.00    +0.256 C 
ATOM      2  O1  UNL     1       0.895  -4.059   0.228  0.00  0.00    -0.272 OA
ATOM      3  N1  UNL     1      -0.146  -1.991   0.457  0.00  0.00    -0.298 N 
ATOM      4  C12 UNL     1      -0.806  -1.307   1.578  0.00  0.00    +0.111 C 
ATOM      5  C13 UNL     1      -2.268  -1.001   1.235  0.00  0.00    +0.059 C 
ATOM      6  C14 UNL     1      -2.435  -0.183  -0.085  0.00  0.00    +0.103 C 
ATOM      7  C15 UNL     1      -1.236  -0.401  -1.054  0.00  0.00    +0.059 C 
ATOM      8  C16 UNL     1      -0.630  -1.798  -0.913  0.00  0.00    +0.111 C 
ATOM      9  O2  UNL     1      -3.606  -0.630  -0.779  0.00  0.00    -0.368 OA
ATOM     10  C17 UNL     1      -4.818  -0.182  -0.183  0.00  0.00    +0.165 C 
ATOM     11  C18 UNL     1      -4.972   1.340  -0.317  0.00  0.00    +0.064 C 
ATOM     12  C19 UNL     1      -3.727   1.998   0.175  0.00  0.00    -0.032 A 
ATOM     13  C20 UNL     1      -3.624   3.333   0.583  0.00  0.00    +0.011 A 
ATOM     14  C21 UNL     1      -2.344   3.677   1.003  0.00  0.00    +0.046 A 
ATOM     15  S1  UNL     1      -1.352   2.323   0.857  0.00  0.00    -0.098 S 
ATOM     16  C22 UNL     1      -2.537   1.300   0.232  0.00  0.00    +0.025 A 
ENDROOT
BRANCH   1  26
ATOM     17  C1  UNL     1       3.756   2.714  -2.284  0.00  0.00    +0.044 C 
ATOM     18  C2  UNL     1       3.374   1.727  -1.221  0.00  0.00    -0.050 A 
ATOM     19  C3  UNL     1       2.654   2.151  -0.094  0.00  0.00    +0.007 A 
ATOM     20  C4  UNL     1       2.266   1.230   0.881  0.00  0.00    +0.046 A 
ATOM     21  C5  UNL     1       2.569  -0.125   0.728  0.00  0.00    +0.125 A 
ATOM     22  C6  UNL     1       3.297  -0.563  -0.395  0.00  0.00    -0.005 A 
ATOM     23  C7  UNL     1       3.679   0.365  -1.375  0.00  0.00    +0.010 A 
ATOM     24  C8  UNL     1       3.607  -2.028  -0.578  0.00  0.00    +0.043 C 
ATOM     25  C9  UNL     1       3.472  -2.818   0.734  0.00  0.00    +0.059 C 
ATOM     26  C10 UNL     1       2.171  -2.452   1.472  0.00  0.00    +0.259 C 
ATOM     27  O3  UNL     1       2.147  -1.042   1.698  0.00  0.00    -0.479 OA
ENDBRANCH   1  26
TORSDOF 1
