REMARK  Name = /home/qwerty/github/datacon2025hack/step_04_hit_selection/docking/ligands/lig_132.pdb
REMARK  6 active torsions:
REMARK  status: ('A' for Active; 'I' for Inactive)
REMARK    1  A    between atoms: C1_1  and  C2_2
REMARK    2  A    between atoms: C5_5  and  C6_6
REMARK    3  A    between atoms: N1_8  and  C7_9
REMARK    4  A    between atoms: C9_11  and  C10_12
REMARK    5  A    between atoms: C13_18  and  N2_19
REMARK    6  A    between atoms: C19_25  and  O2_26
REMARK                            x       y       z     vdW  Elec       q    Type
REMARK                         _______ _______ _______ _____ _____    ______ ____
ROOT
ATOM      1  C7  UNL     1      -0.631   1.324  -0.439  0.00  0.00    +0.055 A 
ATOM      2  C8  UNL     1      -0.452   2.696  -0.689  0.00  0.00    +0.037 A 
ATOM      3  C9  UNL     1      -1.556   3.546  -0.869  0.00  0.00    +0.057 A 
ATOM      4  C11 UNL     1      -2.847   2.998  -0.855  0.00  0.00    +0.014 A 
ATOM      5  C12 UNL     1      -3.035   1.636  -0.619  0.00  0.00    +0.025 A 
ATOM      6  C13 UNL     1      -1.937   0.791  -0.405  0.00  0.00    +0.051 A 
ENDROOT
BRANCH   6   7
ATOM      7  N2  UNL     1      -2.159  -0.602  -0.124  0.00  0.00    -0.328 N 
ATOM      8  C14 UNL     1      -1.709  -1.193   1.141  0.00  0.00    +0.105 C 
ATOM      9  C15 UNL     1      -2.904  -1.805   1.878  0.00  0.00    +0.019 C 
ATOM     10  C16 UNL     1      -3.680  -2.762   0.963  0.00  0.00    +0.003 C 
ATOM     11  C17 UNL     1      -4.122  -2.058  -0.327  0.00  0.00    +0.019 C 
ATOM     12  C18 UNL     1      -2.919  -1.446  -1.052  0.00  0.00    +0.105 C 
ENDBRANCH   6   7
BRANCH   1  15
ATOM     13  C6  UNL     1       1.688   0.814   0.432  0.00  0.00    +0.253 C 
ATOM     14  O1  UNL     1       1.655   1.796   1.223  0.00  0.00    -0.270 OA
ATOM     15  N1  UNL     1       0.509   0.457  -0.309  0.00  0.00    -0.280 N 
ATOM     16  H6  UNL     1       0.434  -0.516  -0.681  0.00  0.00    +0.155 HD
BRANCH  13  21
ATOM     17  C1  UNL     1       6.558  -2.242  -0.088  0.00  0.00    +0.066 C 
ATOM     18  C2  UNL     1       5.286  -1.465   0.037  0.00  0.00    +0.042 A 
ATOM     19  C3  UNL     1       4.379  -1.418  -1.025  0.00  0.00    +0.024 A 
ATOM     20  C4  UNL     1       3.204  -0.677  -0.892  0.00  0.00    +0.020 A 
ATOM     21  C5  UNL     1       2.933   0.018   0.299  0.00  0.00    +0.098 A 
ATOM     22  C19 UNL     1       3.880  -0.052   1.343  0.00  0.00    +0.225 A 
ATOM     23  N3  UNL     1       5.017  -0.783   1.182  0.00  0.00    -0.218 NA
BRANCH  22  24
ATOM     24  O2  UNL     1       3.662   0.609   2.549  0.00  0.00    -0.492 OA
ATOM     25  H20 UNL     1       4.339   0.557   3.301  0.00  0.00    +0.294 HD
ENDBRANCH  22  24
ENDBRANCH  13  21
ENDBRANCH   1  15
BRANCH   3  26
ATOM     26  C10 UNL     1      -1.349   5.007  -1.182  0.00  0.00    +0.417 C 
ATOM     27  F1  UNL     1      -2.429   5.758  -0.752  0.00  0.00    -0.166 F 
ATOM     28  F2  UNL     1      -0.212   5.484  -0.552  0.00  0.00    -0.166 F 
ATOM     29  F3  UNL     1      -1.206   5.163  -2.548  0.00  0.00    -0.166 F 
ENDBRANCH   3  26
TORSDOF 5
