MODEL 1
REMARK VINA RESULT:    -7.721      0.000      0.000
REMARK INTER + INTRA:          -8.590
REMARK INTER:                  -8.624
REMARK INTRA:                   0.034
REMARK UNBOUND:                 0.034
REMARK  Name = /home/qwerty/github/datacon2025hack/step_04_hit_selection/docking/ligands/lig_240.pdb
REMARK  2 active torsions:
REMARK  status: ('A' for Active; 'I' for Inactive)
REMARK    1  A    between atoms: N1_3  and  C2_4
REMARK    2  A    between atoms: N2_13  and  C9_14
REMARK                            x       y       z     vdW  Elec       q    Type
REMARK                         _______ _______ _______ _____ _____    ______ ____
ROOT
ATOM      1  C9  UNL     1      21.229   8.435  36.959  0.00  0.00    +0.035 A 
ATOM      2  C10 UNL     1      21.834   7.383  37.683  0.00  0.00    +0.025 A 
ATOM      3  C11 UNL     1      22.736   6.508  37.059  0.00  0.00    +0.025 A 
ATOM      4  C12 UNL     1      23.007   6.691  35.707  0.00  0.00    +0.038 A 
ATOM      5  C13 UNL     1      22.408   7.697  34.976  0.00  0.00    -0.009 A 
ATOM      6  C14 UNL     1      21.509   8.580  35.582  0.00  0.00    +0.029 A 
ATOM      7  C15 UNL     1      22.866   7.661  33.537  0.00  0.00    +0.078 C 
ATOM      8  C16 UNL     1      23.617   8.954  33.161  0.00  0.00    +0.049 C 
ATOM      9  C17 UNL     1      23.987   8.989  31.658  0.00  0.00    +0.161 C 
ATOM     10  O4  UNL     1      23.334   7.990  30.888  0.00  0.00    -0.380 OA
ATOM     11  C18 UNL     1      21.951   7.977  31.172  0.00  0.00    +0.161 C 
ATOM     12  C19 UNL     1      21.686   7.388  32.569  0.00  0.00    +0.049 C 
ATOM     13  C20 UNL     1      23.811   6.477  33.616  0.00  0.00    +0.228 C 
ATOM     14  O5  UNL     1      24.467   6.018  32.643  0.00  0.00    -0.274 OA
ATOM     15  N3  UNL     1      23.883   5.909  34.918  0.00  0.00    -0.284 N 
ATOM     16  H19 UNL     1      24.453   5.089  35.224  0.00  0.00    +0.155 HD
ENDROOT
BRANCH   1  20
ATOM     17  O1  UNL     1      18.776   9.492  35.857  0.00  0.00    -0.252 OA
ATOM     18  C1  UNL     1      19.039   9.716  37.070  0.00  0.00    +0.308 C 
ATOM     19  N1  UNL     1      18.085  10.386  37.906  0.00  0.00    -0.269 N 
ATOM     20  N2  UNL     1      20.296   9.302  37.626  0.00  0.00    -0.269 N 
ATOM     21  H1  UNL     1      18.218  10.317  38.941  0.00  0.00    +0.156 HD
ATOM     22  H7  UNL     1      20.587   9.732  38.533  0.00  0.00    +0.156 HD
BRANCH  19  23
ATOM     23  C2  UNL     1      16.898  11.036  37.421  0.00  0.00    +0.038 A 
ATOM     24  C3  UNL     1      15.716  10.273  37.236  0.00  0.00    +0.027 A 
ATOM     25  C4  UNL     1      14.532  10.881  36.785  0.00  0.00    +0.051 A 
ATOM     26  C5  UNL     1      14.557  12.251  36.544  0.00  0.00    +0.166 A 
ATOM     27  C6  UNL     1      15.675  12.994  36.735  0.00  0.00    +0.168 A 
ATOM     28  C7  UNL     1      16.869  12.431  37.179  0.00  0.00    +0.073 A 
ATOM     29  O2  UNL     1      15.407  14.315  36.433  0.00  0.00    -0.453 OA
ATOM     30  C8  UNL     1      14.036  14.406  36.021  0.00  0.00    +0.466 C 
ATOM     31  O3  UNL     1      13.531  13.066  36.107  0.00  0.00    -0.453 OA
ENDBRANCH  19  23
ENDBRANCH   1  20
TORSDOF 2
ENDMDL
MODEL 2
REMARK VINA RESULT:    -7.530     13.544     15.586
REMARK INTER + INTRA:          -8.377
REMARK INTER:                  -8.002
REMARK INTRA:                  -0.374
REMARK UNBOUND:                 0.034
REMARK  Name = /home/qwerty/github/datacon2025hack/step_04_hit_selection/docking/ligands/lig_240.pdb
REMARK  2 active torsions:
REMARK  status: ('A' for Active; 'I' for Inactive)
REMARK    1  A    between atoms: N1_3  and  C2_4
REMARK    2  A    between atoms: N2_13  and  C9_14
REMARK                            x       y       z     vdW  Elec       q    Type
REMARK                         _______ _______ _______ _____ _____    ______ ____
ROOT
ATOM      1  C9  UNL     1       8.140   9.421  23.717  0.00  0.00    +0.035 A 
ATOM      2  C10 UNL     1       8.143  10.194  22.534  0.00  0.00    +0.025 A 
ATOM      3  C11 UNL     1       8.548   9.636  21.312  0.00  0.00    +0.025 A 
ATOM      4  C12 UNL     1       8.964   8.307  21.298  0.00  0.00    +0.038 A 
ATOM      5  C13 UNL     1       8.994   7.543  22.446  0.00  0.00    -0.009 A 
ATOM      6  C14 UNL     1       8.590   8.082  23.672  0.00  0.00    +0.029 A 
ATOM      7  C15 UNL     1       9.498   6.150  22.152  0.00  0.00    +0.078 C 
ATOM      8  C16 UNL     1       8.417   5.093  22.456  0.00  0.00    +0.049 C 
ATOM      9  C17 UNL     1       8.954   3.653  22.278  0.00  0.00    +0.161 C 
ATOM     10  O4  UNL     1      10.366   3.583  22.152  0.00  0.00    -0.380 OA
ATOM     11  C18 UNL     1      10.988   4.341  23.169  0.00  0.00    +0.161 C 
ATOM     12  C19 UNL     1      10.816   5.848  22.910  0.00  0.00    +0.049 C 
ATOM     13  C20 UNL     1       9.728   6.290  20.660  0.00  0.00    +0.228 C 
ATOM     14  O5  UNL     1      10.168   5.374  19.915  0.00  0.00    -0.274 OA
ATOM     15  N3  UNL     1       9.406   7.584  20.166  0.00  0.00    -0.284 N 
ATOM     16  H19 UNL     1       9.485   7.928  19.183  0.00  0.00    +0.155 HD
ENDROOT
BRANCH   1  20
ATOM     17  O1  UNL     1       9.881  10.292  25.853  0.00  0.00    -0.252 OA
ATOM     18  C1  UNL     1       8.647  10.540  25.940  0.00  0.00    +0.308 C 
ATOM     19  N1  UNL     1       8.142  11.335  27.022  0.00  0.00    -0.269 N 
ATOM     20  N2  UNL     1       7.736  10.031  24.955  0.00  0.00    -0.269 N 
ATOM     21  H1  UNL     1       7.182  11.737  26.919  0.00  0.00    +0.156 HD
ATOM     22  H7  UNL     1       6.719  10.023  25.197  0.00  0.00    +0.156 HD
BRANCH  19  23
ATOM     23  C2  UNL     1       8.912  11.714  28.177  0.00  0.00    +0.038 A 
ATOM     24  C3  UNL     1       9.001  10.820  29.274  0.00  0.00    +0.027 A 
ATOM     25  C4  UNL     1       9.764  11.150  30.409  0.00  0.00    +0.051 A 
ATOM     26  C5  UNL     1      10.435  12.368  30.407  0.00  0.00    +0.166 A 
ATOM     27  C6  UNL     1      10.373  13.221  29.355  0.00  0.00    +0.168 A 
ATOM     28  C7  UNL     1       9.629  12.934  28.214  0.00  0.00    +0.073 A 
ATOM     29  O2  UNL     1      11.142  14.337  29.622  0.00  0.00    -0.453 OA
ATOM     30  C8  UNL     1      11.720  14.176  30.926  0.00  0.00    +0.466 C 
ATOM     31  O3  UNL     1      11.243  12.905  31.391  0.00  0.00    -0.453 OA
ENDBRANCH  19  23
ENDBRANCH   1  20
TORSDOF 2
ENDMDL
MODEL 3
REMARK VINA RESULT:    -7.470      2.497      9.724
REMARK INTER + INTRA:          -8.310
REMARK INTER:                  -7.919
REMARK INTRA:                  -0.391
REMARK UNBOUND:                 0.034
REMARK  Name = /home/qwerty/github/datacon2025hack/step_04_hit_selection/docking/ligands/lig_240.pdb
REMARK  2 active torsions:
REMARK  status: ('A' for Active; 'I' for Inactive)
REMARK    1  A    between atoms: N1_3  and  C2_4
REMARK    2  A    between atoms: N2_13  and  C9_14
REMARK                            x       y       z     vdW  Elec       q    Type
REMARK                         _______ _______ _______ _____ _____    ______ ____
ROOT
ATOM      1  C9  UNL     1      16.708  11.935  36.144  0.00  0.00    +0.035 A 
ATOM      2  C10 UNL     1      16.720  12.980  35.193  0.00  0.00    +0.025 A 
ATOM      3  C11 UNL     1      15.539  13.377  34.546  0.00  0.00    +0.025 A 
ATOM      4  C12 UNL     1      14.360  12.704  34.852  0.00  0.00    +0.038 A 
ATOM      5  C13 UNL     1      14.332  11.663  35.758  0.00  0.00    -0.009 A 
ATOM      6  C14 UNL     1      15.498  11.257  36.414  0.00  0.00    +0.029 A 
ATOM      7  C15 UNL     1      12.935  11.104  35.889  0.00  0.00    +0.078 C 
ATOM      8  C16 UNL     1      12.397  11.286  37.323  0.00  0.00    +0.049 C 
ATOM      9  C17 UNL     1      11.017  10.610  37.511  0.00  0.00    +0.161 C 
ATOM     10  O4  UNL     1      10.660   9.740  36.446  0.00  0.00    -0.380 OA
ATOM     11  C18 UNL     1      11.728   8.867  36.147  0.00  0.00    +0.161 C 
ATOM     12  C19 UNL     1      12.870   9.620  35.443  0.00  0.00    +0.049 C 
ATOM     13  C20 UNL     1      12.219  12.015  34.912  0.00  0.00    +0.228 C 
ATOM     14  O5  UNL     1      10.990  11.952  34.644  0.00  0.00    -0.274 OA
ATOM     15  N3  UNL     1      13.084  12.964  34.300  0.00  0.00    -0.284 N 
ATOM     16  H19 UNL     1      12.833  13.690  33.593  0.00  0.00    +0.155 HD
ENDROOT
BRANCH   1  20
ATOM     17  O1  UNL     1      18.353   9.667  35.438  0.00  0.00    -0.252 OA
ATOM     18  C1  UNL     1      18.773  10.467  36.318  0.00  0.00    +0.308 C 
ATOM     19  N1  UNL     1      20.087  10.310  36.871  0.00  0.00    -0.269 N 
ATOM     20  N2  UNL     1      17.940  11.543  36.774  0.00  0.00    -0.269 N 
ATOM     21  H1  UNL     1      20.494  11.125  37.385  0.00  0.00    +0.156 HD
ATOM     22  H7  UNL     1      18.202  12.009  37.672  0.00  0.00    +0.156 HD
BRANCH  19  23
ATOM     23  C2  UNL     1      20.923   9.159  36.661  0.00  0.00    +0.038 A 
ATOM     24  C3  UNL     1      20.811   8.051  37.539  0.00  0.00    +0.027 A 
ATOM     25  C4  UNL     1      21.597   6.901  37.348  0.00  0.00    +0.051 A 
ATOM     26  C5  UNL     1      22.470   6.884  36.265  0.00  0.00    +0.166 A 
ATOM     27  C6  UNL     1      22.571   7.931  35.407  0.00  0.00    +0.168 A 
ATOM     28  C7  UNL     1      21.812   9.088  35.561  0.00  0.00    +0.073 A 
ATOM     29  O2  UNL     1      23.498   7.633  34.427  0.00  0.00    -0.453 OA
ATOM     30  C8  UNL     1      24.014   6.320  34.688  0.00  0.00    +0.466 C 
ATOM     31  O3  UNL     1      23.331   5.879  35.869  0.00  0.00    -0.453 OA
ENDBRANCH  19  23
ENDBRANCH   1  20
TORSDOF 2
ENDMDL
MODEL 4
REMARK VINA RESULT:    -7.454     14.932     16.778
REMARK INTER + INTRA:          -8.292
REMARK INTER:                  -7.943
REMARK INTRA:                  -0.349
REMARK UNBOUND:                 0.034
REMARK  Name = /home/qwerty/github/datacon2025hack/step_04_hit_selection/docking/ligands/lig_240.pdb
REMARK  2 active torsions:
REMARK  status: ('A' for Active; 'I' for Inactive)
REMARK    1  A    between atoms: N1_3  and  C2_4
REMARK    2  A    between atoms: N2_13  and  C9_14
REMARK                            x       y       z     vdW  Elec       q    Type
REMARK                         _______ _______ _______ _____ _____    ______ ____
ROOT
ATOM      1  C9  UNL     1      13.652   1.235  21.099  0.00  0.00    +0.035 A 
ATOM      2  C10 UNL     1      14.754   1.204  20.214  0.00  0.00    +0.025 A 
ATOM      3  C11 UNL     1      15.990   0.681  20.625  0.00  0.00    +0.025 A 
ATOM      4  C12 UNL     1      16.108   0.209  21.929  0.00  0.00    +0.038 A 
ATOM      5  C13 UNL     1      15.051   0.253  22.815  0.00  0.00    -0.009 A 
ATOM      6  C14 UNL     1      13.811   0.768  22.423  0.00  0.00    +0.029 A 
ATOM      7  C15 UNL     1      15.454  -0.306  24.159  0.00  0.00    +0.078 C 
ATOM      8  C16 UNL     1      14.628  -1.562  24.507  0.00  0.00    +0.049 C 
ATOM      9  C17 UNL     1      14.940  -2.079  25.933  0.00  0.00    +0.161 C 
ATOM     10  O4  UNL     1      15.686  -1.162  26.720  0.00  0.00    -0.380 OA
ATOM     11  C18 UNL     1      15.109   0.125  26.654  0.00  0.00    +0.161 C 
ATOM     12  C19 UNL     1      15.356   0.764  25.276  0.00  0.00    +0.049 C 
ATOM     13  C20 UNL     1      16.894  -0.663  23.848  0.00  0.00    +0.228 C 
ATOM     14  O5  UNL     1      17.699  -1.174  24.671  0.00  0.00    -0.274 OA
ATOM     15  N3  UNL     1      17.270  -0.347  22.512  0.00  0.00    -0.284 N 
ATOM     16  H19 UNL     1      18.201  -0.490  22.063  0.00  0.00    +0.155 HD
ENDROOT
BRANCH   1  20
ATOM     17  O1  UNL     1      12.524   3.773  21.894  0.00  0.00    -0.252 OA
ATOM     18  C1  UNL     1      11.939   3.107  20.996  0.00  0.00    +0.308 C 
ATOM     19  N1  UNL     1      10.804   3.654  20.312  0.00  0.00    -0.269 N 
ATOM     20  N2  UNL     1      12.406   1.794  20.650  0.00  0.00    -0.269 N 
ATOM     21  H1  UNL     1      10.518   3.202  19.413  0.00  0.00    +0.156 HD
ATOM     22  H7  UNL     1      11.755   1.178  20.113  0.00  0.00    +0.156 HD
BRANCH  19  23
ATOM     23  C2  UNL     1      10.115   4.851  20.713  0.00  0.00    +0.038 A 
ATOM     24  C3  UNL     1       9.082   4.765  21.681  0.00  0.00    +0.027 A 
ATOM     25  C4  UNL     1       8.404   5.919  22.113  0.00  0.00    +0.051 A 
ATOM     26  C5  UNL     1       8.792   7.140  21.571  0.00  0.00    +0.166 A 
ATOM     27  C6  UNL     1       9.791   7.236  20.659  0.00  0.00    +0.168 A 
ATOM     28  C7  UNL     1      10.487   6.119  20.204  0.00  0.00    +0.073 A 
ATOM     29  O2  UNL     1       9.969   8.561  20.310  0.00  0.00    -0.453 OA
ATOM     30  C8  UNL     1       9.018   9.345  21.045  0.00  0.00    +0.466 C 
ATOM     31  O3  UNL     1       8.288   8.398  21.838  0.00  0.00    -0.453 OA
ENDBRANCH  19  23
ENDBRANCH   1  20
TORSDOF 2
ENDMDL
MODEL 5
REMARK VINA RESULT:    -7.450     11.079     14.857
REMARK INTER + INTRA:          -8.287
REMARK INTER:                  -7.950
REMARK INTRA:                  -0.337
REMARK UNBOUND:                 0.034
REMARK  Name = /home/qwerty/github/datacon2025hack/step_04_hit_selection/docking/ligands/lig_240.pdb
REMARK  2 active torsions:
REMARK  status: ('A' for Active; 'I' for Inactive)
REMARK    1  A    between atoms: N1_3  and  C2_4
REMARK    2  A    between atoms: N2_13  and  C9_14
REMARK                            x       y       z     vdW  Elec       q    Type
REMARK                         _______ _______ _______ _____ _____    ______ ____
ROOT
ATOM      1  C9  UNL     1      18.345  -0.055  24.087  0.00  0.00    +0.035 A 
ATOM      2  C10 UNL     1      17.728  -1.319  24.231  0.00  0.00    +0.025 A 
ATOM      3  C11 UNL     1      16.499  -1.592  23.611  0.00  0.00    +0.025 A 
ATOM      4  C12 UNL     1      15.895  -0.583  22.866  0.00  0.00    +0.038 A 
ATOM      5  C13 UNL     1      16.468   0.665  22.735  0.00  0.00    -0.009 A 
ATOM      6  C14 UNL     1      17.694   0.954  23.342  0.00  0.00    +0.029 A 
ATOM      7  C15 UNL     1      15.600   1.568  21.892  0.00  0.00    +0.078 C 
ATOM      8  C16 UNL     1      16.333   1.998  20.604  0.00  0.00    +0.049 C 
ATOM      9  C17 UNL     1      15.508   3.022  19.787  0.00  0.00    +0.161 C 
ATOM     10  O4  UNL     1      14.405   3.563  20.499  0.00  0.00    -0.380 OA
ATOM     11  C18 UNL     1      14.813   3.997  21.780  0.00  0.00    +0.161 C 
ATOM     12  C19 UNL     1      15.102   2.796  22.697  0.00  0.00    +0.049 C 
ATOM     13  C20 UNL     1      14.473   0.601  21.588  0.00  0.00    +0.228 C 
ATOM     14  O5  UNL     1      13.456   0.881  20.897  0.00  0.00    -0.274 OA
ATOM     15  N3  UNL     1      14.663  -0.679  22.178  0.00  0.00    -0.284 N 
ATOM     16  H19 UNL     1      14.028  -1.506  22.121  0.00  0.00    +0.155 HD
ENDROOT
BRANCH   1  20
ATOM     17  O1  UNL     1      18.692   1.018  26.747  0.00  0.00    -0.252 OA
ATOM     18  C1  UNL     1      19.712   0.634  26.113  0.00  0.00    +0.308 C 
ATOM     19  N1  UNL     1      21.000   0.629  26.746  0.00  0.00    -0.269 N 
ATOM     20  N2  UNL     1      19.595   0.196  24.751  0.00  0.00    -0.269 N 
ATOM     21  H1  UNL     1      21.757   0.065  26.295  0.00  0.00    +0.156 HD
ATOM     22  H7  UNL     1      20.471   0.145  24.183  0.00  0.00    +0.156 HD
BRANCH  19  23
ATOM     23  C2  UNL     1      21.280   1.241  28.017  0.00  0.00    +0.038 A 
ATOM     24  C3  UNL     1      21.739   0.434  29.089  0.00  0.00    +0.027 A 
ATOM     25  C4  UNL     1      22.044   1.005  30.337  0.00  0.00    +0.051 A 
ATOM     26  C5  UNL     1      21.896   2.380  30.475  0.00  0.00    +0.166 A 
ATOM     27  C6  UNL     1      21.477   3.165  29.451  0.00  0.00    +0.168 A 
ATOM     28  C7  UNL     1      21.163   2.640  28.200  0.00  0.00    +0.073 A 
ATOM     29  O2  UNL     1      21.437   4.482  29.867  0.00  0.00    -0.453 OA
ATOM     30  C8  UNL     1      21.853   4.526  31.239  0.00  0.00    +0.466 C 
ATOM     31  O3  UNL     1      22.137   3.164  31.588  0.00  0.00    -0.453 OA
ENDBRANCH  19  23
ENDBRANCH   1  20
TORSDOF 2
ENDMDL
MODEL 6
REMARK VINA RESULT:    -7.435     15.751     18.753
REMARK INTER + INTRA:          -8.271
REMARK INTER:                  -8.007
REMARK INTRA:                  -0.264
REMARK UNBOUND:                 0.034
REMARK  Name = /home/qwerty/github/datacon2025hack/step_04_hit_selection/docking/ligands/lig_240.pdb
REMARK  2 active torsions:
REMARK  status: ('A' for Active; 'I' for Inactive)
REMARK    1  A    between atoms: N1_3  and  C2_4
REMARK    2  A    between atoms: N2_13  and  C9_14
REMARK                            x       y       z     vdW  Elec       q    Type
REMARK                         _______ _______ _______ _____ _____    ______ ____
ROOT
ATOM      1  C9  UNL     1      10.231   4.689  20.840  0.00  0.00    +0.035 A 
ATOM      2  C10 UNL     1       8.923   4.593  21.365  0.00  0.00    +0.025 A 
ATOM      3  C11 UNL     1       8.237   5.738  21.798  0.00  0.00    +0.025 A 
ATOM      4  C12 UNL     1       8.883   6.968  21.714  0.00  0.00    +0.038 A 
ATOM      5  C13 UNL     1      10.170   7.080  21.229  0.00  0.00    -0.009 A 
ATOM      6  C14 UNL     1      10.867   5.950  20.789  0.00  0.00    +0.029 A 
ATOM      7  C15 UNL     1      10.633   8.517  21.261  0.00  0.00    +0.078 C 
ATOM      8  C16 UNL     1      10.925   9.038  19.839  0.00  0.00    +0.049 C 
ATOM      9  C17 UNL     1      11.518  10.468  19.860  0.00  0.00    +0.161 C 
ATOM     10  O4  UNL     1      11.929  10.895  21.151  0.00  0.00    -0.380 OA
ATOM     11  C18 UNL     1      12.720   9.901  21.768  0.00  0.00    +0.161 C 
ATOM     12  C19 UNL     1      11.856   8.702  22.195  0.00  0.00    +0.049 C 
ATOM     13  C20 UNL     1       9.385   9.157  21.837  0.00  0.00    +0.228 C 
ATOM     14  O5  UNL     1       9.257  10.388  22.075  0.00  0.00    -0.274 OA
ATOM     15  N3  UNL     1       8.350   8.219  22.103  0.00  0.00    -0.284 N 
ATOM     16  H19 UNL     1       7.405   8.410  22.504  0.00  0.00    +0.155 HD
ENDROOT
BRANCH   1  20
ATOM     17  O1  UNL     1      12.644   3.594  21.992  0.00  0.00    -0.252 OA
ATOM     18  C1  UNL     1      12.050   2.935  21.095  0.00  0.00    +0.308 C 
ATOM     19  N1  UNL     1      12.505   1.622  20.739  0.00  0.00    -0.269 N 
ATOM     20  N2  UNL     1      10.911   3.493  20.423  0.00  0.00    -0.269 N 
ATOM     21  H1  UNL     1      11.847   1.013  20.200  0.00  0.00    +0.156 HD
ATOM     22  H7  UNL     1      10.617   3.050  19.523  0.00  0.00    +0.156 HD
BRANCH  19  23
ATOM     23  C2  UNL     1      13.748   1.049  21.178  0.00  0.00    +0.038 A 
ATOM     24  C3  UNL     1      14.923   1.276  20.416  0.00  0.00    +0.027 A 
ATOM     25  C4  UNL     1      16.160   0.749  20.830  0.00  0.00    +0.051 A 
ATOM     26  C5  UNL     1      16.190   0.016  22.011  0.00  0.00    +0.166 A 
ATOM     27  C6  UNL     1      15.077  -0.191  22.757  0.00  0.00    +0.168 A 
ATOM     28  C7  UNL     1      13.833   0.312  22.383  0.00  0.00    +0.073 A 
ATOM     29  O2  UNL     1      15.404  -0.934  23.875  0.00  0.00    -0.453 OA
ATOM     30  C8  UNL     1      16.810  -1.214  23.825  0.00  0.00    +0.466 C 
ATOM     31  O3  UNL     1      17.273  -0.589  22.620  0.00  0.00    -0.453 OA
ENDBRANCH  19  23
ENDBRANCH   1  20
TORSDOF 2
ENDMDL
MODEL 7
REMARK VINA RESULT:    -7.412      6.842     10.714
REMARK INTER + INTRA:          -8.245
REMARK INTER:                  -7.900
REMARK INTRA:                  -0.345
REMARK UNBOUND:                 0.034
REMARK  Name = /home/qwerty/github/datacon2025hack/step_04_hit_selection/docking/ligands/lig_240.pdb
REMARK  2 active torsions:
REMARK  status: ('A' for Active; 'I' for Inactive)
REMARK    1  A    between atoms: N1_3  and  C2_4
REMARK    2  A    between atoms: N2_13  and  C9_14
REMARK                            x       y       z     vdW  Elec       q    Type
REMARK                         _______ _______ _______ _____ _____    ______ ____
ROOT
ATOM      1  C9  UNL     1      12.098  14.019  33.602  0.00  0.00    +0.035 A 
ATOM      2  C10 UNL     1      11.326  14.089  34.784  0.00  0.00    +0.025 A 
ATOM      3  C11 UNL     1      11.895  13.791  36.032  0.00  0.00    +0.025 A 
ATOM      4  C12 UNL     1      13.232  13.407  36.075  0.00  0.00    +0.038 A 
ATOM      5  C13 UNL     1      13.996  13.307  34.930  0.00  0.00    -0.009 A 
ATOM      6  C14 UNL     1      13.447  13.604  33.678  0.00  0.00    +0.029 A 
ATOM      7  C15 UNL     1      15.400  12.859  35.258  0.00  0.00    +0.078 C 
ATOM      8  C16 UNL     1      16.432  13.937  34.870  0.00  0.00    +0.049 C 
ATOM      9  C17 UNL     1      17.885  13.448  35.085  0.00  0.00    +0.161 C 
ATOM     10  O4  UNL     1      17.986  12.050  35.318  0.00  0.00    -0.380 OA
ATOM     11  C18 UNL     1      17.242  11.336  34.354  0.00  0.00    +0.161 C 
ATOM     12  C19 UNL     1      15.731  11.494  34.603  0.00  0.00    +0.049 C 
ATOM     13  C20 UNL     1      15.267  12.740  36.764  0.00  0.00    +0.228 C 
ATOM     14  O5  UNL     1      16.193  12.379  37.538  0.00  0.00    -0.274 OA
ATOM     15  N3  UNL     1      13.966  13.070  37.236  0.00  0.00    -0.284 N 
ATOM     16  H19 UNL     1      13.625  13.059  38.223  0.00  0.00    +0.155 HD
ENDROOT
BRANCH   1  20
ATOM     17  O1  UNL     1      11.400  12.114  31.545  0.00  0.00    -0.252 OA
ATOM     18  C1  UNL     1      11.057  13.318  31.394  0.00  0.00    +0.308 C 
ATOM     19  N1  UNL     1      10.243  13.706  30.279  0.00  0.00    -0.269 N 
ATOM     20  N2  UNL     1      11.478  14.314  32.339  0.00  0.00    -0.269 N 
ATOM     21  H1  UNL     1       9.765  14.635  30.329  0.00  0.00    +0.156 HD
ATOM     22  H7  UNL     1      11.410  15.315  32.047  0.00  0.00    +0.156 HD
BRANCH  19  23
ATOM     23  C2  UNL     1       9.944  12.854  29.159  0.00  0.00    +0.038 A 
ATOM     24  C3  UNL     1      10.840  12.812  28.061  0.00  0.00    +0.027 A 
ATOM     25  C4  UNL     1      10.589  11.973  26.961  0.00  0.00    +0.051 A 
ATOM     26  C5  UNL     1       9.447  11.180  26.997  0.00  0.00    +0.166 A 
ATOM     27  C6  UNL     1       8.593  11.198  28.050  0.00  0.00    +0.168 A 
ATOM     28  C7  UNL     1       8.803  12.015  29.158  0.00  0.00    +0.073 A 
ATOM     29  O2  UNL     1       7.562  10.308  27.822  0.00  0.00    -0.453 OA
ATOM     30  C8  UNL     1       7.780   9.696  26.543  0.00  0.00    +0.466 C 
ATOM     31  O3  UNL     1       8.994  10.281  26.051  0.00  0.00    -0.453 OA
ENDBRANCH  19  23
ENDBRANCH   1  20
TORSDOF 2
ENDMDL
MODEL 8
REMARK VINA RESULT:    -7.286     11.825     14.988
REMARK INTER + INTRA:          -8.104
REMARK INTER:                  -7.885
REMARK INTRA:                  -0.219
REMARK UNBOUND:                 0.034
REMARK  Name = /home/qwerty/github/datacon2025hack/step_04_hit_selection/docking/ligands/lig_240.pdb
REMARK  2 active torsions:
REMARK  status: ('A' for Active; 'I' for Inactive)
REMARK    1  A    between atoms: N1_3  and  C2_4
REMARK    2  A    between atoms: N2_13  and  C9_14
REMARK                            x       y       z     vdW  Elec       q    Type
REMARK                         _______ _______ _______ _____ _____    ______ ____
ROOT
ATOM      1  C9  UNL     1      23.143   7.264  21.199  0.00  0.00    +0.035 A 
ATOM      2  C10 UNL     1      24.549   7.328  21.067  0.00  0.00    +0.025 A 
ATOM      3  C11 UNL     1      25.181   8.523  20.690  0.00  0.00    +0.025 A 
ATOM      4  C12 UNL     1      24.389   9.638  20.433  0.00  0.00    +0.038 A 
ATOM      5  C13 UNL     1      23.013   9.589  20.532  0.00  0.00    -0.009 A 
ATOM      6  C14 UNL     1      22.366   8.408  20.909  0.00  0.00    +0.029 A 
ATOM      7  C15 UNL     1      22.402  10.926  20.187  0.00  0.00    +0.078 C 
ATOM      8  C16 UNL     1      21.650  11.521  21.394  0.00  0.00    +0.049 C 
ATOM      9  C17 UNL     1      20.914  12.832  21.026  0.00  0.00    +0.161 C 
ATOM     10  O4  UNL     1      20.842  13.071  19.628  0.00  0.00    -0.380 OA
ATOM     11  C18 UNL     1      20.393  11.913  18.955  0.00  0.00    +0.161 C 
ATOM     12  C19 UNL     1      21.487  10.831  18.939  0.00  0.00    +0.049 C 
ATOM     13  C20 UNL     1      23.673  11.701  19.893  0.00  0.00    +0.228 C 
ATOM     14  O5  UNL     1      23.708  12.910  19.540  0.00  0.00    -0.274 OA
ATOM     15  N3  UNL     1      24.850  10.917  20.043  0.00  0.00    -0.284 N 
ATOM     16  H19 UNL     1      25.838  11.218  19.893  0.00  0.00    +0.155 HD
ENDROOT
BRANCH   1  20
ATOM     17  O1  UNL     1      22.714   6.292  23.886  0.00  0.00    -0.252 OA
ATOM     18  C1  UNL     1      22.246   5.628  22.921  0.00  0.00    +0.308 C 
ATOM     19  N1  UNL     1      21.424   4.478  23.165  0.00  0.00    -0.269 N 
ATOM     20  N2  UNL     1      22.529   6.018  21.569  0.00  0.00    -0.269 N 
ATOM     21  H1  UNL     1      20.846   4.120  22.370  0.00  0.00    +0.156 HD
ATOM     22  H7  UNL     1      22.359   5.311  20.818  0.00  0.00    +0.156 HD
BRANCH  19  23
ATOM     23  C2  UNL     1      21.250   3.865  24.455  0.00  0.00    +0.038 A 
ATOM     24  C3  UNL     1      19.938   3.602  24.925  0.00  0.00    +0.027 A 
ATOM     25  C4  UNL     1      19.733   2.983  26.172  0.00  0.00    +0.051 A 
ATOM     26  C5  UNL     1      20.855   2.627  26.911  0.00  0.00    +0.166 A 
ATOM     27  C6  UNL     1      22.115   2.856  26.462  0.00  0.00    +0.168 A 
ATOM     28  C7  UNL     1      22.362   3.467  25.236  0.00  0.00    +0.073 A 
ATOM     29  O2  UNL     1      23.026   2.390  27.390  0.00  0.00    -0.453 OA
ATOM     30  C8  UNL     1      22.293   1.838  28.493  0.00  0.00    +0.466 C 
ATOM     31  O3  UNL     1      20.911   2.010  28.146  0.00  0.00    -0.453 OA
ENDBRANCH  19  23
ENDBRANCH   1  20
TORSDOF 2
ENDMDL
MODEL 9
REMARK VINA RESULT:    -7.234      4.691      9.933
REMARK INTER + INTRA:          -8.046
REMARK INTER:                  -7.912
REMARK INTRA:                  -0.135
REMARK UNBOUND:                 0.034
REMARK  Name = /home/qwerty/github/datacon2025hack/step_04_hit_selection/docking/ligands/lig_240.pdb
REMARK  2 active torsions:
REMARK  status: ('A' for Active; 'I' for Inactive)
REMARK    1  A    between atoms: N1_3  and  C2_4
REMARK    2  A    between atoms: N2_13  and  C9_14
REMARK                            x       y       z     vdW  Elec       q    Type
REMARK                         _______ _______ _______ _____ _____    ______ ____
ROOT
ATOM      1  C9  UNL     1      22.296   5.173  34.302  0.00  0.00    +0.035 A 
ATOM      2  C10 UNL     1      23.425   6.021  34.370  0.00  0.00    +0.025 A 
ATOM      3  C11 UNL     1      23.340   7.283  34.977  0.00  0.00    +0.025 A 
ATOM      4  C12 UNL     1      22.113   7.687  35.496  0.00  0.00    +0.038 A 
ATOM      5  C13 UNL     1      20.992   6.885  35.417  0.00  0.00    -0.009 A 
ATOM      6  C14 UNL     1      21.059   5.622  34.819  0.00  0.00    +0.029 A 
ATOM      7  C15 UNL     1      19.798   7.567  36.040  0.00  0.00    +0.078 C 
ATOM      8  C16 UNL     1      19.277   6.774  37.255  0.00  0.00    +0.049 C 
ATOM      9  C17 UNL     1      17.980   7.391  37.833  0.00  0.00    +0.161 C 
ATOM     10  O4  UNL     1      17.387   8.365  36.987  0.00  0.00    -0.380 OA
ATOM     11  C18 UNL     1      17.289   7.874  35.666  0.00  0.00    +0.161 C 
ATOM     12  C19 UNL     1      18.675   7.816  35.001  0.00  0.00    +0.049 C 
ATOM     13  C20 UNL     1      20.461   8.862  36.471  0.00  0.00    +0.228 C 
ATOM     14  O5  UNL     1      19.869   9.809  37.054  0.00  0.00    -0.274 OA
ATOM     15  N3  UNL     1      21.842   8.918  36.137  0.00  0.00    -0.284 N 
ATOM     16  H19 UNL     1      22.510   9.700  36.320  0.00  0.00    +0.155 HD
ENDROOT
BRANCH   1  20
ATOM     17  O1  UNL     1      21.577   4.553  31.574  0.00  0.00    -0.252 OA
ATOM     18  C1  UNL     1      22.140   3.663  32.267  0.00  0.00    +0.308 C 
ATOM     19  N1  UNL     1      22.513   2.411  31.675  0.00  0.00    -0.269 N 
ATOM     20  N2  UNL     1      22.415   3.894  33.657  0.00  0.00    -0.269 N 
ATOM     21  H1  UNL     1      23.201   1.817  32.193  0.00  0.00    +0.156 HD
ATOM     22  H7  UNL     1      22.626   3.062  34.252  0.00  0.00    +0.156 HD
BRANCH  19  23
ATOM     23  C2  UNL     1      22.100   1.979  30.366  0.00  0.00    +0.038 A 
ATOM     24  C3  UNL     1      23.050   1.367  29.508  0.00  0.00    +0.027 A 
ATOM     25  C4  UNL     1      22.674   0.913  28.231  0.00  0.00    +0.051 A 
ATOM     26  C5  UNL     1      21.346   1.069  27.851  0.00  0.00    +0.166 A 
ATOM     27  C6  UNL     1      20.426   1.635  28.671  0.00  0.00    +0.168 A 
ATOM     28  C7  UNL     1      20.755   2.099  29.942  0.00  0.00    +0.073 A 
ATOM     29  O2  UNL     1      19.195   1.647  28.043  0.00  0.00    -0.453 OA
ATOM     30  C8  UNL     1      19.354   1.056  26.745  0.00  0.00    +0.466 C 
ATOM     31  O3  UNL     1      20.741   0.701  26.664  0.00  0.00    -0.453 OA
ENDBRANCH  19  23
ENDBRANCH   1  20
TORSDOF 2
ENDMDL
