MODEL 1
REMARK VINA RESULT:    -6.958      0.000      0.000
REMARK INTER + INTRA:          -8.894
REMARK INTER:                  -8.382
REMARK INTRA:                  -0.513
REMARK UNBOUND:                -0.513
REMARK  Name = /home/qwerty/github/datacon2025hack/step_04_hit_selection/docking/ligands/lig_142.pdb
REMARK  7 active torsions:
REMARK  status: ('A' for Active; 'I' for Inactive)
REMARK    1  A    between atoms: C1_1  and  C2_2
REMARK    2  A    between atoms: C4_4  and  C5_5
REMARK    3  A    between atoms: C8_10  and  N2_11
REMARK    4  A    between atoms: C9_12  and  C10_14
REMARK    5  A    between atoms: C13_17  and  O3_18
REMARK    6  A    between atoms: C15_22  and  C16_23
REMARK    7  A    between atoms: N5_24  and  C17_25
REMARK                            x       y       z     vdW  Elec       q    Type
REMARK                         _______ _______ _______ _____ _____    ______ ____
ROOT
ATOM      1  C5  UNL     1      22.063   6.157  34.781  0.00  0.00    +0.248 C 
ATOM      2  O1  UNL     1      23.221   5.970  35.244  0.00  0.00    -0.270 OA
ATOM      3  N1  UNL     1      21.673   5.504  33.559  0.00  0.00    -0.296 N 
ATOM      4  C6  UNL     1      20.290   5.255  33.176  0.00  0.00    +0.110 C 
ATOM      5  C7  UNL     1      20.349   4.142  32.139  0.00  0.00    +0.043 C 
ATOM      6  C8  UNL     1      21.783   4.175  31.598  0.00  0.00    +0.092 C 
ATOM      7  C14 UNL     1      22.620   4.789  32.719  0.00  0.00    +0.130 C 
ENDROOT
BRANCH   1  11
ATOM      8  C1  UNL     1      18.485   7.851  37.904  0.00  0.00    +0.063 C 
ATOM      9  C2  UNL     1      19.553   7.802  36.855  0.00  0.00    +0.016 A 
ATOM     10  C3  UNL     1      20.278   6.673  36.522  0.00  0.00    +0.035 A 
ATOM     11  C4  UNL     1      21.140   7.050  35.508  0.00  0.00    +0.058 A 
ATOM     12  C15 UNL     1      20.908   8.397  35.265  0.00  0.00    +0.028 A 
ATOM     13  C16 UNL     1      21.614   9.239  34.242  0.00  0.00    +0.064 C 
ATOM     14  N5  UNL     1      19.918   8.843  36.073  0.00  0.00    -0.350 N 
ATOM     15  C17 UNL     1      19.397  10.210  36.134  0.00  0.00    +0.149 C 
ENDBRANCH   1  11
BRANCH   6  16
ATOM     16  N2  UNL     1      22.273   2.841  31.238  0.00  0.00    -0.306 N 
ATOM     17  C9  UNL     1      22.220   2.354  29.886  0.00  0.00    +0.264 C 
ATOM     18  O2  UNL     1      21.631   3.034  28.998  0.00  0.00    -0.268 OA
ATOM     19  H10 UNL     1      22.753   2.262  31.965  0.00  0.00    +0.149 HD
BRANCH  17  20
ATOM     20  C10 UNL     1      22.842   1.062  29.525  0.00  0.00    +0.148 A 
ATOM     21  C11 UNL     1      22.064  -0.050  29.176  0.00  0.00    +0.040 A 
ATOM     22  C12 UNL     1      22.692  -1.250  28.846  0.00  0.00    +0.071 A 
ATOM     23  C13 UNL     1      24.086  -1.317  28.870  0.00  0.00    +0.232 A 
ATOM     24  N3  UNL     1      24.799  -0.213  29.211  0.00  0.00    -0.111 NA
ATOM     25  N4  UNL     1      24.198   0.937  29.527  0.00  0.00    -0.141 NA
BRANCH  23  26
ATOM     26  O3  UNL     1      24.750  -2.499  28.554  0.00  0.00    -0.491 OA
ATOM     27  H13 UNL     1      25.246  -3.034  29.256  0.00  0.00    +0.294 HD
ENDBRANCH  23  26
ENDBRANCH  17  20
ENDBRANCH   6  16
TORSDOF 4
ENDMDL
MODEL 2
REMARK VINA RESULT:    -6.467     14.924     18.512
REMARK INTER + INTRA:          -8.303
REMARK INTER:                  -7.779
REMARK INTRA:                  -0.524
REMARK UNBOUND:                -0.513
REMARK  Name = /home/qwerty/github/datacon2025hack/step_04_hit_selection/docking/ligands/lig_142.pdb
REMARK  7 active torsions:
REMARK  status: ('A' for Active; 'I' for Inactive)
REMARK    1  A    between atoms: C1_1  and  C2_2
REMARK    2  A    between atoms: C4_4  and  C5_5
REMARK    3  A    between atoms: C8_10  and  N2_11
REMARK    4  A    between atoms: C9_12  and  C10_14
REMARK    5  A    between atoms: C13_17  and  O3_18
REMARK    6  A    between atoms: C15_22  and  C16_23
REMARK    7  A    between atoms: N5_24  and  C17_25
REMARK                            x       y       z     vdW  Elec       q    Type
REMARK                         _______ _______ _______ _____ _____    ______ ____
ROOT
ATOM      1  C5  UNL     1       9.111   7.920  23.086  0.00  0.00    +0.248 C 
ATOM      2  O1  UNL     1       8.301   8.483  22.300  0.00  0.00    -0.270 OA
ATOM      3  N1  UNL     1       9.497   8.585  24.304  0.00  0.00    -0.296 N 
ATOM      4  C6  UNL     1      10.020   7.894  25.475  0.00  0.00    +0.110 C 
ATOM      5  C7  UNL     1       9.807   8.852  26.639  0.00  0.00    +0.043 C 
ATOM      6  C8  UNL     1       9.659  10.236  25.997  0.00  0.00    +0.092 C 
ATOM      7  C14 UNL     1       9.151   9.969  24.582  0.00  0.00    +0.130 C 
ENDROOT
BRANCH   1  11
ATOM      8  C1  UNL     1      11.889   4.261  21.006  0.00  0.00    +0.063 C 
ATOM      9  C2  UNL     1      10.838   4.975  21.801  0.00  0.00    +0.016 A 
ATOM     10  C3  UNL     1      10.752   6.349  21.936  0.00  0.00    +0.035 A 
ATOM     11  C4  UNL     1       9.645   6.592  22.728  0.00  0.00    +0.058 A 
ATOM     12  C15 UNL     1       9.101   5.354  23.048  0.00  0.00    +0.028 A 
ATOM     13  C16 UNL     1       7.881   5.123  23.892  0.00  0.00    +0.064 C 
ATOM     14  N5  UNL     1       9.819   4.373  22.455  0.00  0.00    -0.350 N 
ATOM     15  C17 UNL     1       9.578   2.933  22.564  0.00  0.00    +0.149 C 
ENDBRANCH   1  11
BRANCH   6  16
ATOM     16  N2  UNL     1       8.735  11.099  26.740  0.00  0.00    -0.306 N 
ATOM     17  C9  UNL     1       9.184  12.290  27.410  0.00  0.00    +0.264 C 
ATOM     18  O2  UNL     1      10.420  12.548  27.468  0.00  0.00    -0.268 OA
ATOM     19  H10 UNL     1       7.710  10.891  26.710  0.00  0.00    +0.149 HD
BRANCH  17  20
ATOM     20  C10 UNL     1       8.213  13.213  28.036  0.00  0.00    +0.148 A 
ATOM     21  C11 UNL     1       7.977  13.195  29.418  0.00  0.00    +0.040 A 
ATOM     22  C12 UNL     1       7.051  14.081  29.966  0.00  0.00    +0.071 A 
ATOM     23  C13 UNL     1       6.377  14.968  29.125  0.00  0.00    +0.232 A 
ATOM     24  N3  UNL     1       6.641  14.951  27.793  0.00  0.00    -0.111 NA
ATOM     25  N4  UNL     1       7.528  14.104  27.267  0.00  0.00    -0.141 NA
BRANCH  23  26
ATOM     26  O3  UNL     1       5.440  15.863  29.634  0.00  0.00    -0.491 OA
ATOM     27  H13 UNL     1       5.557  16.865  29.541  0.00  0.00    +0.294 HD
ENDBRANCH  23  26
ENDBRANCH  17  20
ENDBRANCH   6  16
TORSDOF 4
ENDMDL
MODEL 3
REMARK VINA RESULT:    -6.157      7.646     12.882
REMARK INTER + INTRA:          -7.929
REMARK INTER:                  -7.533
REMARK INTRA:                  -0.396
REMARK UNBOUND:                -0.513
REMARK  Name = /home/qwerty/github/datacon2025hack/step_04_hit_selection/docking/ligands/lig_142.pdb
REMARK  7 active torsions:
REMARK  status: ('A' for Active; 'I' for Inactive)
REMARK    1  A    between atoms: C1_1  and  C2_2
REMARK    2  A    between atoms: C4_4  and  C5_5
REMARK    3  A    between atoms: C8_10  and  N2_11
REMARK    4  A    between atoms: C9_12  and  C10_14
REMARK    5  A    between atoms: C13_17  and  O3_18
REMARK    6  A    between atoms: C15_22  and  C16_23
REMARK    7  A    between atoms: N5_24  and  C17_25
REMARK                            x       y       z     vdW  Elec       q    Type
REMARK                         _______ _______ _______ _____ _____    ______ ____
ROOT
ATOM      1  C5  UNL     1      18.672  11.055  36.574  0.00  0.00    +0.248 C 
ATOM      2  O1  UNL     1      19.064  12.243  36.736  0.00  0.00    -0.270 OA
ATOM      3  N1  UNL     1      17.260  10.775  36.518  0.00  0.00    -0.296 N 
ATOM      4  C6  UNL     1      16.692   9.590  35.891  0.00  0.00    +0.110 C 
ATOM      5  C7  UNL     1      15.237   9.937  35.609  0.00  0.00    +0.043 C 
ATOM      6  C8  UNL     1      14.912  11.098  36.556  0.00  0.00    +0.092 C 
ATOM      7  C14 UNL     1      16.252  11.773  36.838  0.00  0.00    +0.130 C 
ENDROOT
BRANCH   1  11
ATOM      8  C1  UNL     1      21.581   7.062  37.583  0.00  0.00    +0.063 C 
ATOM      9  C2  UNL     1      20.980   8.248  36.893  0.00  0.00    +0.016 A 
ATOM     10  C3  UNL     1      19.903   8.974  37.370  0.00  0.00    +0.035 A 
ATOM     11  C4  UNL     1      19.678   9.982  36.452  0.00  0.00    +0.058 A 
ATOM     12  C15 UNL     1      20.625   9.830  35.447  0.00  0.00    +0.028 A 
ATOM     13  C16 UNL     1      20.767  10.703  34.234  0.00  0.00    +0.064 C 
ATOM     14  N5  UNL     1      21.434   8.785  35.738  0.00  0.00    -0.350 N 
ATOM     15  C17 UNL     1      22.542   8.291  34.918  0.00  0.00    +0.149 C 
ENDBRANCH   1  11
BRANCH   6  16
ATOM     16  N2  UNL     1      13.953  12.041  35.972  0.00  0.00    -0.306 N 
ATOM     17  C9  UNL     1      12.533  11.844  36.084  0.00  0.00    +0.264 C 
ATOM     18  O2  UNL     1      12.087  10.776  36.591  0.00  0.00    -0.268 OA
ATOM     19  H10 UNL     1      14.309  12.925  35.539  0.00  0.00    +0.149 HD
BRANCH  17  20
ATOM     20  C10 UNL     1      11.590  12.878  35.605  0.00  0.00    +0.148 A 
ATOM     21  C11 UNL     1      10.543  13.340  36.415  0.00  0.00    +0.040 A 
ATOM     22  C12 UNL     1       9.675  14.314  35.923  0.00  0.00    +0.071 A 
ATOM     23  C13 UNL     1       9.868  14.808  34.632  0.00  0.00    +0.232 A 
ATOM     24  N3  UNL     1      10.898  14.333  33.885  0.00  0.00    -0.111 NA
ATOM     25  N4  UNL     1      11.730  13.401  34.356  0.00  0.00    -0.141 NA
BRANCH  23  26
ATOM     26  O3  UNL     1       9.018  15.775  34.102  0.00  0.00    -0.491 OA
ATOM     27  H13 UNL     1       9.302  16.744  34.021  0.00  0.00    +0.294 HD
ENDBRANCH  23  26
ENDBRANCH  17  20
ENDBRANCH   6  16
TORSDOF 4
ENDMDL
MODEL 4
REMARK VINA RESULT:    -6.155     10.977     14.782
REMARK INTER + INTRA:          -7.927
REMARK INTER:                  -7.393
REMARK INTRA:                  -0.534
REMARK UNBOUND:                -0.513
REMARK  Name = /home/qwerty/github/datacon2025hack/step_04_hit_selection/docking/ligands/lig_142.pdb
REMARK  7 active torsions:
REMARK  status: ('A' for Active; 'I' for Inactive)
REMARK    1  A    between atoms: C1_1  and  C2_2
REMARK    2  A    between atoms: C4_4  and  C5_5
REMARK    3  A    between atoms: C8_10  and  N2_11
REMARK    4  A    between atoms: C9_12  and  C10_14
REMARK    5  A    between atoms: C13_17  and  O3_18
REMARK    6  A    between atoms: C15_22  and  C16_23
REMARK    7  A    between atoms: N5_24  and  C17_25
REMARK                            x       y       z     vdW  Elec       q    Type
REMARK                         _______ _______ _______ _____ _____    ______ ____
ROOT
ATOM      1  C5  UNL     1      12.973  12.113  34.561  0.00  0.00    +0.248 C 
ATOM      2  O1  UNL     1      12.092  12.577  35.335  0.00  0.00    -0.270 OA
ATOM      3  N1  UNL     1      12.664  11.925  33.167  0.00  0.00    -0.296 N 
ATOM      4  C6  UNL     1      13.669  11.855  32.116  0.00  0.00    +0.110 C 
ATOM      5  C7  UNL     1      12.926  12.165  30.823  0.00  0.00    +0.043 C 
ATOM      6  C8  UNL     1      11.452  11.878  31.130  0.00  0.00    +0.092 C 
ATOM      7  C14 UNL     1      11.316  12.057  32.641  0.00  0.00    +0.130 C 
ENDROOT
BRANCH   1  11
ATOM      8  C1  UNL     1      16.801   9.577  36.644  0.00  0.00    +0.063 C 
ATOM      9  C2  UNL     1      15.978  10.679  36.050  0.00  0.00    +0.016 A 
ATOM     10  C3  UNL     1      14.701  10.522  35.543  0.00  0.00    +0.035 A 
ATOM     11  C4  UNL     1      14.299  11.773  35.112  0.00  0.00    +0.058 A 
ATOM     12  C15 UNL     1      15.349  12.644  35.370  0.00  0.00    +0.028 A 
ATOM     13  C16 UNL     1      15.365  14.115  35.071  0.00  0.00    +0.064 C 
ATOM     14  N5  UNL     1      16.361  11.974  35.969  0.00  0.00    -0.350 N 
ATOM     15  C17 UNL     1      17.649  12.533  36.381  0.00  0.00    +0.149 C 
ENDBRANCH   1  11
BRANCH   6  16
ATOM     16  N2  UNL     1      10.547  12.775  30.404  0.00  0.00    -0.306 N 
ATOM     17  C9  UNL     1       9.364  12.288  29.748  0.00  0.00    +0.264 C 
ATOM     18  O2  UNL     1       9.149  11.044  29.686  0.00  0.00    -0.268 OA
ATOM     19  H10 UNL     1      10.719  13.806  30.438  0.00  0.00    +0.149 HD
BRANCH  17  20
ATOM     20  C10 UNL     1       8.399  13.229  29.140  0.00  0.00    +0.148 A 
ATOM     21  C11 UNL     1       8.407  13.494  27.763  0.00  0.00    +0.040 A 
ATOM     22  C12 UNL     1       7.481  14.391  27.232  0.00  0.00    +0.071 A 
ATOM     23  C13 UNL     1       6.564  15.006  28.085  0.00  0.00    +0.232 A 
ATOM     24  N3  UNL     1       6.591  14.716  29.411  0.00  0.00    -0.111 NA
ATOM     25  N4  UNL     1       7.477  13.857  29.921  0.00  0.00    -0.141 NA
BRANCH  23  26
ATOM     26  O3  UNL     1       5.628  15.912  27.594  0.00  0.00    -0.491 OA
ATOM     27  H13 UNL     1       5.645  16.890  27.859  0.00  0.00    +0.294 HD
ENDBRANCH  23  26
ENDBRANCH  17  20
ENDBRANCH   6  16
TORSDOF 4
ENDMDL
MODEL 5
REMARK VINA RESULT:    -6.087      2.326      2.768
REMARK INTER + INTRA:          -7.845
REMARK INTER:                  -7.455
REMARK INTRA:                  -0.390
REMARK UNBOUND:                -0.513
REMARK  Name = /home/qwerty/github/datacon2025hack/step_04_hit_selection/docking/ligands/lig_142.pdb
REMARK  7 active torsions:
REMARK  status: ('A' for Active; 'I' for Inactive)
REMARK    1  A    between atoms: C1_1  and  C2_2
REMARK    2  A    between atoms: C4_4  and  C5_5
REMARK    3  A    between atoms: C8_10  and  N2_11
REMARK    4  A    between atoms: C9_12  and  C10_14
REMARK    5  A    between atoms: C13_17  and  O3_18
REMARK    6  A    between atoms: C15_22  and  C16_23
REMARK    7  A    between atoms: N5_24  and  C17_25
REMARK                            x       y       z     vdW  Elec       q    Type
REMARK                         _______ _______ _______ _____ _____    ______ ____
ROOT
ATOM      1  C5  UNL     1      22.139   7.640  31.420  0.00  0.00    +0.248 C 
ATOM      2  O1  UNL     1      23.349   7.689  31.068  0.00  0.00    -0.270 OA
ATOM      3  N1  UNL     1      21.346   6.488  31.077  0.00  0.00    -0.296 N 
ATOM      4  C6  UNL     1      20.137   6.095  31.787  0.00  0.00    +0.110 C 
ATOM      5  C7  UNL     1      19.931   4.624  31.453  0.00  0.00    +0.043 C 
ATOM      6  C8  UNL     1      20.726   4.391  30.164  0.00  0.00    +0.092 C 
ATOM      7  C14 UNL     1      21.819   5.457  30.168  0.00  0.00    +0.130 C 
ENDROOT
BRANCH   1  11
ATOM      8  C1  UNL     1      20.681  10.654  35.191  0.00  0.00    +0.063 C 
ATOM      9  C2  UNL     1      20.899  10.093  33.819  0.00  0.00    +0.016 A 
ATOM     10  C3  UNL     1      21.624   8.948  33.543  0.00  0.00    +0.035 A 
ATOM     11  C4  UNL     1      21.569   8.775  32.172  0.00  0.00    +0.058 A 
ATOM     12  C15 UNL     1      20.815   9.825  31.665  0.00  0.00    +0.028 A 
ATOM     13  C16 UNL     1      20.484  10.050  30.218  0.00  0.00    +0.064 C 
ATOM     14  N5  UNL     1      20.386  10.611  32.680  0.00  0.00    -0.350 N 
ATOM     15  C17 UNL     1      19.582  11.827  32.556  0.00  0.00    +0.149 C 
ENDBRANCH   1  11
BRANCH   6  16
ATOM     16  N2  UNL     1      21.298   3.042  30.098  0.00  0.00    -0.306 N 
ATOM     17  C9  UNL     1      21.956   2.555  28.915  0.00  0.00    +0.264 C 
ATOM     18  O2  UNL     1      21.943   3.251  27.861  0.00  0.00    -0.268 OA
ATOM     19  H10 UNL     1      21.306   2.451  30.961  0.00  0.00    +0.149 HD
BRANCH  17  20
ATOM     20  C10 UNL     1      22.642   1.245  28.921  0.00  0.00    +0.148 A 
ATOM     21  C11 UNL     1      21.927   0.047  28.787  0.00  0.00    +0.040 A 
ATOM     22  C12 UNL     1      22.614  -1.166  28.800  0.00  0.00    +0.071 A 
ATOM     23  C13 UNL     1      24.002  -1.160  28.947  0.00  0.00    +0.232 A 
ATOM     24  N3  UNL     1      24.653   0.025  29.070  0.00  0.00    -0.111 NA
ATOM     25  N4  UNL     1      23.995   1.187  29.057  0.00  0.00    -0.141 NA
BRANCH  23  26
ATOM     26  O3  UNL     1      24.722  -2.352  28.972  0.00  0.00    -0.491 OA
ATOM     27  H13 UNL     1      24.391  -3.183  28.496  0.00  0.00    +0.294 HD
ENDBRANCH  23  26
ENDBRANCH  17  20
ENDBRANCH   6  16
TORSDOF 4
ENDMDL
MODEL 6
REMARK VINA RESULT:    -6.054      6.341     10.140
REMARK INTER + INTRA:          -7.805
REMARK INTER:                  -7.268
REMARK INTRA:                  -0.537
REMARK UNBOUND:                -0.513
REMARK  Name = /home/qwerty/github/datacon2025hack/step_04_hit_selection/docking/ligands/lig_142.pdb
REMARK  7 active torsions:
REMARK  status: ('A' for Active; 'I' for Inactive)
REMARK    1  A    between atoms: C1_1  and  C2_2
REMARK    2  A    between atoms: C4_4  and  C5_5
REMARK    3  A    between atoms: C8_10  and  N2_11
REMARK    4  A    between atoms: C9_12  and  C10_14
REMARK    5  A    between atoms: C13_17  and  O3_18
REMARK    6  A    between atoms: C15_22  and  C16_23
REMARK    7  A    between atoms: N5_24  and  C17_25
REMARK                            x       y       z     vdW  Elec       q    Type
REMARK                         _______ _______ _______ _____ _____    ______ ____
ROOT
ATOM      1  C5  UNL     1      21.126   5.748  24.465  0.00  0.00    +0.248 C 
ATOM      2  O1  UNL     1      20.210   6.550  24.794  0.00  0.00    -0.270 OA
ATOM      3  N1  UNL     1      21.553   4.737  25.397  0.00  0.00    -0.296 N 
ATOM      4  C6  UNL     1      22.227   3.506  25.008  0.00  0.00    +0.110 C 
ATOM      5  C7  UNL     1      22.030   2.549  26.175  0.00  0.00    +0.043 C 
ATOM      6  C8  UNL     1      21.714   3.445  27.378  0.00  0.00    +0.092 C 
ATOM      7  C14 UNL     1      21.116   4.717  26.783  0.00  0.00    +0.130 C 
ENDROOT
BRANCH   1  11
ATOM      8  C1  UNL     1      24.178   7.116  20.691  0.00  0.00    +0.063 C 
ATOM      9  C2  UNL     1      23.054   6.490  21.458  0.00  0.00    +0.016 A 
ATOM     10  C3  UNL     1      22.898   6.568  22.830  0.00  0.00    +0.035 A 
ATOM     11  C4  UNL     1      21.739   5.875  23.128  0.00  0.00    +0.058 A 
ATOM     12  C15 UNL     1      21.235   5.398  21.925  0.00  0.00    +0.028 A 
ATOM     13  C16 UNL     1      19.982   4.588  21.757  0.00  0.00    +0.064 C 
ATOM     14  N5  UNL     1      22.029   5.800  20.906  0.00  0.00    -0.350 N 
ATOM     15  C17 UNL     1      21.849   5.487  19.488  0.00  0.00    +0.149 C 
ENDBRANCH   1  11
BRANCH   6  16
ATOM     16  N2  UNL     1      20.785   2.808  28.317  0.00  0.00    -0.306 N 
ATOM     17  C9  UNL     1      21.250   2.026  29.430  0.00  0.00    +0.264 C 
ATOM     18  O2  UNL     1      22.483   1.774  29.547  0.00  0.00    -0.268 OA
ATOM     19  H10 UNL     1      19.760   3.000  28.227  0.00  0.00    +0.149 HD
BRANCH  17  20
ATOM     20  C10 UNL     1      20.299   1.509  30.438  0.00  0.00    +0.148 A 
ATOM     21  C11 UNL     1      20.709   0.617  31.438  0.00  0.00    +0.040 A 
ATOM     22  C12 UNL     1      19.778   0.152  32.366  0.00  0.00    +0.071 A 
ATOM     23  C13 UNL     1      18.455   0.587  32.278  0.00  0.00    +0.232 A 
ATOM     24  N3  UNL     1      18.104   1.455  31.295  0.00  0.00    -0.111 NA
ATOM     25  N4  UNL     1      18.995   1.901  30.406  0.00  0.00    -0.141 NA
BRANCH  23  26
ATOM     26  O3  UNL     1      17.495   0.140  33.182  0.00  0.00    -0.491 OA
ATOM     27  H13 UNL     1      17.390  -0.843  33.403  0.00  0.00    +0.294 HD
ENDBRANCH  23  26
ENDBRANCH  17  20
ENDBRANCH   6  16
TORSDOF 4
ENDMDL
MODEL 7
REMARK VINA RESULT:    -5.995      6.696     10.384
REMARK INTER + INTRA:          -7.734
REMARK INTER:                  -7.182
REMARK INTRA:                  -0.552
REMARK UNBOUND:                -0.513
REMARK  Name = /home/qwerty/github/datacon2025hack/step_04_hit_selection/docking/ligands/lig_142.pdb
REMARK  7 active torsions:
REMARK  status: ('A' for Active; 'I' for Inactive)
REMARK    1  A    between atoms: C1_1  and  C2_2
REMARK    2  A    between atoms: C4_4  and  C5_5
REMARK    3  A    between atoms: C8_10  and  N2_11
REMARK    4  A    between atoms: C9_12  and  C10_14
REMARK    5  A    between atoms: C13_17  and  O3_18
REMARK    6  A    between atoms: C15_22  and  C16_23
REMARK    7  A    between atoms: N5_24  and  C17_25
REMARK                            x       y       z     vdW  Elec       q    Type
REMARK                         _______ _______ _______ _____ _____    ______ ____
ROOT
ATOM      1  C5  UNL     1      20.842   5.306  23.844  0.00  0.00    +0.248 C 
ATOM      2  O1  UNL     1      20.915   6.326  24.582  0.00  0.00    -0.270 OA
ATOM      3  N1  UNL     1      21.039   4.000  24.416  0.00  0.00    -0.296 N 
ATOM      4  C6  UNL     1      20.540   2.769  23.820  0.00  0.00    +0.110 C 
ATOM      5  C7  UNL     1      20.513   1.751  24.952  0.00  0.00    +0.043 C 
ATOM      6  C8  UNL     1      21.487   2.297  26.003  0.00  0.00    +0.092 C 
ATOM      7  C14 UNL     1      21.517   3.806  25.775  0.00  0.00    +0.130 C 
ENDROOT
BRANCH   1  11
ATOM      8  C1  UNL     1      21.429   5.997  18.884  0.00  0.00    +0.063 C 
ATOM      9  C2  UNL     1      20.802   5.816  20.232  0.00  0.00    +0.016 A 
ATOM     10  C3  UNL     1      21.502   5.572  21.399  0.00  0.00    +0.035 A 
ATOM     11  C4  UNL     1      20.559   5.486  22.407  0.00  0.00    +0.058 A 
ATOM     12  C15 UNL     1      19.318   5.677  21.812  0.00  0.00    +0.028 A 
ATOM     13  C16 UNL     1      17.995   5.670  22.521  0.00  0.00    +0.064 C 
ATOM     14  N5  UNL     1      19.477   5.905  20.488  0.00  0.00    -0.350 N 
ATOM     15  C17 UNL     1      18.410   6.133  19.512  0.00  0.00    +0.149 C 
ENDBRANCH   1  11
BRANCH   6  16
ATOM     16  N2  UNL     1      21.068   1.974  27.371  0.00  0.00    -0.306 N 
ATOM     17  C9  UNL     1      22.020   1.807  28.435  0.00  0.00    +0.264 C 
ATOM     18  O2  UNL     1      23.257   1.819  28.177  0.00  0.00    -0.268 OA
ATOM     19  H10 UNL     1      20.046   1.950  27.598  0.00  0.00    +0.149 HD
BRANCH  17  20
ATOM     20  C10 UNL     1      21.565   1.616  29.830  0.00  0.00    +0.148 A 
ATOM     21  C11 UNL     1      20.688   0.580  30.175  0.00  0.00    +0.040 A 
ATOM     22  C12 UNL     1      20.282   0.438  31.501  0.00  0.00    +0.071 A 
ATOM     23  C13 UNL     1      20.760   1.334  32.458  0.00  0.00    +0.232 A 
ATOM     24  N3  UNL     1      21.612   2.321  32.078  0.00  0.00    -0.111 NA
ATOM     25  N4  UNL     1      22.001   2.457  30.808  0.00  0.00    -0.141 NA
BRANCH  23  26
ATOM     26  O3  UNL     1      20.373   1.230  33.792  0.00  0.00    -0.491 OA
ATOM     27  H13 UNL     1      20.403   2.026  34.417  0.00  0.00    +0.294 HD
ENDBRANCH  23  26
ENDBRANCH  17  20
ENDBRANCH   6  16
TORSDOF 4
ENDMDL
MODEL 8
REMARK VINA RESULT:    -5.880      6.804     10.510
REMARK INTER + INTRA:          -7.595
REMARK INTER:                  -7.052
REMARK INTRA:                  -0.543
REMARK UNBOUND:                -0.513
REMARK  Name = /home/qwerty/github/datacon2025hack/step_04_hit_selection/docking/ligands/lig_142.pdb
REMARK  7 active torsions:
REMARK  status: ('A' for Active; 'I' for Inactive)
REMARK    1  A    between atoms: C1_1  and  C2_2
REMARK    2  A    between atoms: C4_4  and  C5_5
REMARK    3  A    between atoms: C8_10  and  N2_11
REMARK    4  A    between atoms: C9_12  and  C10_14
REMARK    5  A    between atoms: C13_17  and  O3_18
REMARK    6  A    between atoms: C15_22  and  C16_23
REMARK    7  A    between atoms: N5_24  and  C17_25
REMARK                            x       y       z     vdW  Elec       q    Type
REMARK                         _______ _______ _______ _____ _____    ______ ____
ROOT
ATOM      1  C5  UNL     1      13.873  10.984  35.186  0.00  0.00    +0.248 C 
ATOM      2  O1  UNL     1      13.757   9.833  34.684  0.00  0.00    -0.270 OA
ATOM      3  N1  UNL     1      15.060  11.317  35.930  0.00  0.00    -0.296 N 
ATOM      4  C6  UNL     1      15.526  12.679  36.148  0.00  0.00    +0.110 C 
ATOM      5  C7  UNL     1      17.001  12.552  36.504  0.00  0.00    +0.043 C 
ATOM      6  C8  UNL     1      17.173  11.107  36.983  0.00  0.00    +0.092 C 
ATOM      7  C14 UNL     1      16.052  10.323  36.305  0.00  0.00    +0.130 C 
ENDROOT
BRANCH   1  11
ATOM      8  C1  UNL     1      10.961  14.617  33.250  0.00  0.00    +0.063 C 
ATOM      9  C2  UNL     1      11.510  13.571  34.171  0.00  0.00    +0.016 A 
ATOM     10  C3  UNL     1      12.599  12.767  33.889  0.00  0.00    +0.035 A 
ATOM     11  C4  UNL     1      12.781  11.959  34.996  0.00  0.00    +0.058 A 
ATOM     12  C15 UNL     1      11.792  12.300  35.909  0.00  0.00    +0.028 A 
ATOM     13  C16 UNL     1      11.597  11.683  37.265  0.00  0.00    +0.064 C 
ATOM     14  N5  UNL     1      11.035  13.304  35.409  0.00  0.00    -0.350 N 
ATOM     15  C17 UNL     1       9.882  13.929  36.059  0.00  0.00    +0.149 C 
ENDBRANCH   1  11
BRANCH   6  16
ATOM     16  N2  UNL     1      18.489  10.559  36.638  0.00  0.00    -0.306 N 
ATOM     17  C9  UNL     1      19.039   9.421  37.323  0.00  0.00    +0.264 C 
ATOM     18  O2  UNL     1      18.439   8.944  38.327  0.00  0.00    -0.268 OA
ATOM     19  H10 UNL     1      19.003  10.951  35.815  0.00  0.00    +0.149 HD
BRANCH  17  20
ATOM     20  C10 UNL     1      20.305   8.806  36.867  0.00  0.00    +0.148 A 
ATOM     21  C11 UNL     1      20.987   9.291  35.743  0.00  0.00    +0.040 A 
ATOM     22  C12 UNL     1      22.175   8.680  35.346  0.00  0.00    +0.071 A 
ATOM     23  C13 UNL     1      22.660   7.595  36.078  0.00  0.00    +0.232 A 
ATOM     24  N3  UNL     1      21.967   7.161  37.162  0.00  0.00    -0.111 NA
ATOM     25  N4  UNL     1      20.829   7.747  37.543  0.00  0.00    -0.141 NA
BRANCH  23  26
ATOM     26  O3  UNL     1      23.840   6.954  35.709  0.00  0.00    -0.491 OA
ATOM     27  H13 UNL     1      24.052   6.749  34.740  0.00  0.00    +0.294 HD
ENDBRANCH  23  26
ENDBRANCH  17  20
ENDBRANCH   6  16
TORSDOF 4
ENDMDL
MODEL 9
REMARK VINA RESULT:    -5.745     13.254     16.902
REMARK INTER + INTRA:          -7.433
REMARK INTER:                  -6.881
REMARK INTRA:                  -0.552
REMARK UNBOUND:                -0.513
REMARK  Name = /home/qwerty/github/datacon2025hack/step_04_hit_selection/docking/ligands/lig_142.pdb
REMARK  7 active torsions:
REMARK  status: ('A' for Active; 'I' for Inactive)
REMARK    1  A    between atoms: C1_1  and  C2_2
REMARK    2  A    between atoms: C4_4  and  C5_5
REMARK    3  A    between atoms: C8_10  and  N2_11
REMARK    4  A    between atoms: C9_12  and  C10_14
REMARK    5  A    between atoms: C13_17  and  O3_18
REMARK    6  A    between atoms: C15_22  and  C16_23
REMARK    7  A    between atoms: N5_24  and  C17_25
REMARK                            x       y       z     vdW  Elec       q    Type
REMARK                         _______ _______ _______ _____ _____    ______ ____
ROOT
ATOM      1  C5  UNL     1      15.132   3.033  21.667  0.00  0.00    +0.248 C 
ATOM      2  O1  UNL     1      15.889   4.040  21.723  0.00  0.00    -0.270 OA
ATOM      3  N1  UNL     1      13.712   3.202  21.836  0.00  0.00    -0.296 N 
ATOM      4  C6  UNL     1      12.719   2.256  21.348  0.00  0.00    +0.110 C 
ATOM      5  C7  UNL     1      11.414   3.038  21.277  0.00  0.00    +0.043 C 
ATOM      6  C8  UNL     1      11.611   4.231  22.219  0.00  0.00    +0.092 C 
ATOM      7  C14 UNL     1      13.121   4.457  22.268  0.00  0.00    +0.130 C 
ENDROOT
BRANCH   1  11
ATOM      8  C1  UNL     1      16.910  -1.099  19.388  0.00  0.00    +0.063 C 
ATOM      9  C2  UNL     1      16.488  -0.127  20.446  0.00  0.00    +0.016 A 
ATOM     10  C3  UNL     1      16.020   1.151  20.199  0.00  0.00    +0.035 A 
ATOM     11  C4  UNL     1      15.730   1.704  21.433  0.00  0.00    +0.058 A 
ATOM     12  C15 UNL     1      16.036   0.741  22.386  0.00  0.00    +0.028 A 
ATOM     13  C16 UNL     1      15.880   0.894  23.871  0.00  0.00    +0.064 C 
ATOM     14  N5  UNL     1      16.473  -0.384  21.774  0.00  0.00    -0.350 N 
ATOM     15  C17 UNL     1      16.912  -1.616  22.432  0.00  0.00    +0.149 C 
ENDBRANCH   1  11
BRANCH   6  16
ATOM     16  N2  UNL     1      10.909   5.431  21.753  0.00  0.00    -0.306 N 
ATOM     17  C9  UNL     1      10.120   6.240  22.643  0.00  0.00    +0.264 C 
ATOM     18  O2  UNL     1       9.921   5.854  23.830  0.00  0.00    -0.268 OA
ATOM     19  H10 UNL     1      11.055   5.756  20.770  0.00  0.00    +0.149 HD
BRANCH  17  20
ATOM     20  C10 UNL     1       9.533   7.516  22.179  0.00  0.00    +0.148 A 
ATOM     21  C11 UNL     1      10.040   8.186  21.057  0.00  0.00    +0.040 A 
ATOM     22  C12 UNL     1       9.459   9.388  20.657  0.00  0.00    +0.071 A 
ATOM     23  C13 UNL     1       8.383   9.900  21.385  0.00  0.00    +0.232 A 
ATOM     24  N3  UNL     1       7.924   9.214  22.463  0.00  0.00    -0.111 NA
ATOM     25  N4  UNL     1       8.479   8.062  22.846  0.00  0.00    -0.141 NA
BRANCH  23  26
ATOM     26  O3  UNL     1       7.780  11.101  21.020  0.00  0.00    -0.491 OA
ATOM     27  H13 UNL     1       7.852  11.928  21.601  0.00  0.00    +0.294 HD
ENDBRANCH  23  26
ENDBRANCH  17  20
ENDBRANCH   6  16
TORSDOF 4
ENDMDL
