MODEL 1
REMARK VINA RESULT:    -6.867      0.000      0.000
REMARK INTER + INTRA:          -8.524
REMARK INTER:                  -8.072
REMARK INTRA:                  -0.453
REMARK UNBOUND:                -0.453
REMARK  Name = /home/qwerty/github/datacon2025hack/step_04_hit_selection/docking/ligands/lig_635.pdb
REMARK  4 active torsions:
REMARK  status: ('A' for Active; 'I' for Inactive)
REMARK    1  A    between atoms: C1_1  and  O1_2
REMARK    2  A    between atoms: O1_2  and  C2_3
REMARK    3  A    between atoms: C5_7  and  C6_9
REMARK    4  A    between atoms: N3_14  and  C9_15
REMARK                            x       y       z     vdW  Elec       q    Type
REMARK                         _______ _______ _______ _____ _____    ______ ____
ROOT
ATOM      1  C6  UNL     1      12.794   4.102  19.958  0.00  0.00    +0.302 C 
ATOM      2  O3  UNL     1      13.132   4.394  18.778  0.00  0.00    -0.265 OA
ATOM      3  N2  UNL     1      13.402   2.965  20.607  0.00  0.00    -0.291 N 
ATOM      4  C7  UNL     1      14.704   2.482  20.125  0.00  0.00    +0.127 C 
ATOM      5  C8  UNL     1      15.462   1.754  21.239  0.00  0.00    +0.124 C 
ATOM      6  N3  UNL     1      14.627   0.723  21.875  0.00  0.00    -0.327 N 
ATOM      7  C15 UNL     1      13.170   0.734  21.678  0.00  0.00    +0.124 C 
ATOM      8  C16 UNL     1      12.645   2.171  21.588  0.00  0.00    +0.127 C 
ENDROOT
BRANCH   1  13
ATOM      9  C2  UNL     1       8.769   8.149  21.184  0.00  0.00    +0.219 A 
ATOM     10  C3  UNL     1       9.779   7.251  20.832  0.00  0.00    +0.111 A 
ATOM     11  C4  UNL     1       9.441   5.909  20.604  0.00  0.00    +0.132 A 
ATOM     12  N1  UNL     1      10.425   4.939  20.210  0.00  0.00    -0.262 N 
ATOM     13  C5  UNL     1      11.796   4.956  20.640  0.00  0.00    +0.304 C 
ATOM     14  O2  UNL     1      12.147   5.689  21.603  0.00  0.00    -0.265 OA
ATOM     15  N4  UNL     1       8.139   5.528  20.700  0.00  0.00    -0.220 NA
ATOM     16  C17 UNL     1       7.167   6.413  21.042  0.00  0.00    +0.227 A 
ATOM     17  N5  UNL     1       7.485   7.711  21.286  0.00  0.00    -0.201 NA
ATOM     18  H5  UNL     1      10.091   4.115  19.660  0.00  0.00    +0.157 HD
BRANCH   9  20
ATOM     19  C1  UNL     1       8.137  10.538  21.325  0.00  0.00    +0.279 C 
ATOM     20  O1  UNL     1       9.091   9.488  21.422  0.00  0.00    -0.480 OA
ENDBRANCH   9  20
ENDBRANCH   1  13
BRANCH   6  21
ATOM     21  C9  UNL     1      15.254  -0.351  22.613  0.00  0.00    +0.031 A 
ATOM     22  C10 UNL     1      16.536  -0.811  22.258  0.00  0.00    +0.023 A 
ATOM     23  C11 UNL     1      17.139  -1.851  22.971  0.00  0.00    +0.003 A 
ATOM     24  C12 UNL     1      16.472  -2.446  24.043  0.00  0.00    +0.020 A 
ATOM     25  C13 UNL     1      15.197  -2.003  24.405  0.00  0.00    +0.043 A 
ATOM     26 CL1  UNL     1      14.356  -2.757  25.747  0.00  0.00    -0.083 Cl
ATOM     27  C14 UNL     1      14.590  -0.961  23.695  0.00  0.00    +0.043 A 
ENDBRANCH   6  21
TORSDOF 3
ENDMDL
MODEL 2
REMARK VINA RESULT:    -6.685      3.994      9.960
REMARK INTER + INTRA:          -8.310
REMARK INTER:                  -7.858
REMARK INTRA:                  -0.452
REMARK UNBOUND:                -0.453
REMARK  Name = /home/qwerty/github/datacon2025hack/step_04_hit_selection/docking/ligands/lig_635.pdb
REMARK  4 active torsions:
REMARK  status: ('A' for Active; 'I' for Inactive)
REMARK    1  A    between atoms: C1_1  and  O1_2
REMARK    2  A    between atoms: O1_2  and  C2_3
REMARK    3  A    between atoms: C5_7  and  C6_9
REMARK    4  A    between atoms: N3_14  and  C9_15
REMARK                            x       y       z     vdW  Elec       q    Type
REMARK                         _______ _______ _______ _____ _____    ______ ____
ROOT
ATOM      1  C6  UNL     1      11.101   2.623  21.827  0.00  0.00    +0.302 C 
ATOM      2  O3  UNL     1      10.125   1.837  21.974  0.00  0.00    -0.265 OA
ATOM      3  N2  UNL     1      10.851   4.005  21.493  0.00  0.00    -0.291 N 
ATOM      4  C7  UNL     1       9.541   4.588  21.809  0.00  0.00    +0.127 C 
ATOM      5  C8  UNL     1       9.648   6.106  21.985  0.00  0.00    +0.124 C 
ATOM      6  N3  UNL     1      10.336   6.735  20.847  0.00  0.00    -0.327 N 
ATOM      7  C15 UNL     1      11.124   5.910  19.920  0.00  0.00    +0.124 C 
ATOM      8  C16 UNL     1      11.806   4.757  20.663  0.00  0.00    +0.127 C 
ENDROOT
BRANCH   1  13
ATOM      9  C2  UNL     1      15.762  -0.861  22.296  0.00  0.00    +0.219 A 
ATOM     10  C3  UNL     1      14.592  -0.102  22.230  0.00  0.00    +0.111 A 
ATOM     11  C4  UNL     1      14.350   0.668  21.083  0.00  0.00    +0.132 A 
ATOM     12  N1  UNL     1      13.153   1.449  20.937  0.00  0.00    -0.262 N 
ATOM     13  C5  UNL     1      12.470   2.095  22.023  0.00  0.00    +0.304 C 
ATOM     14  O2  UNL     1      13.039   2.222  23.141  0.00  0.00    -0.265 OA
ATOM     15  N4  UNL     1      15.241   0.627  20.057  0.00  0.00    -0.220 NA
ATOM     16  C17 UNL     1      16.374  -0.118  20.135  0.00  0.00    +0.227 A 
ATOM     17  N5  UNL     1      16.631  -0.851  21.249  0.00  0.00    -0.201 NA
ATOM     18  H5  UNL     1      12.822   1.640  19.963  0.00  0.00    +0.157 HD
BRANCH   9  20
ATOM     19  C1  UNL     1      17.206  -2.398  23.592  0.00  0.00    +0.279 C 
ATOM     20  O1  UNL     1      16.022  -1.627  23.436  0.00  0.00    -0.480 OA
ENDBRANCH   9  20
ENDBRANCH   1  13
BRANCH   6  21
ATOM     21  C9  UNL     1      10.157   8.147  20.594  0.00  0.00    +0.031 A 
ATOM     22  C10 UNL     1      11.027   8.834  19.726  0.00  0.00    +0.023 A 
ATOM     23  C11 UNL     1      10.856  10.200  19.485  0.00  0.00    +0.003 A 
ATOM     24  C12 UNL     1       9.819  10.898  20.107  0.00  0.00    +0.020 A 
ATOM     25  C13 UNL     1       8.950  10.231  20.974  0.00  0.00    +0.043 A 
ATOM     26 CL1  UNL     1       7.652  11.109  21.762  0.00  0.00    -0.083 Cl
ATOM     27  C14 UNL     1       9.117   8.863  21.218  0.00  0.00    +0.043 A 
ENDBRANCH   6  21
TORSDOF 3
ENDMDL
MODEL 3
REMARK VINA RESULT:    -6.601      1.792      2.497
REMARK INTER + INTRA:          -8.211
REMARK INTER:                  -7.950
REMARK INTRA:                  -0.261
REMARK UNBOUND:                -0.453
REMARK  Name = /home/qwerty/github/datacon2025hack/step_04_hit_selection/docking/ligands/lig_635.pdb
REMARK  4 active torsions:
REMARK  status: ('A' for Active; 'I' for Inactive)
REMARK    1  A    between atoms: C1_1  and  O1_2
REMARK    2  A    between atoms: O1_2  and  C2_3
REMARK    3  A    between atoms: C5_7  and  C6_9
REMARK    4  A    between atoms: N3_14  and  C9_15
REMARK                            x       y       z     vdW  Elec       q    Type
REMARK                         _______ _______ _______ _____ _____    ______ ____
ROOT
ATOM      1  C6  UNL     1      14.945   4.335  19.956  0.00  0.00    +0.302 C 
ATOM      2  O3  UNL     1      15.916   5.012  19.521  0.00  0.00    -0.265 OA
ATOM      3  N2  UNL     1      15.203   3.116  20.686  0.00  0.00    -0.291 N 
ATOM      4  C7  UNL     1      16.510   2.938  21.333  0.00  0.00    +0.127 C 
ATOM      5  C8  UNL     1      16.404   1.975  22.520  0.00  0.00    +0.124 C 
ATOM      6  N3  UNL     1      15.737   0.721  22.140  0.00  0.00    -0.327 N 
ATOM      7  C15 UNL     1      14.962   0.651  20.892  0.00  0.00    +0.124 C 
ATOM      8  C16 UNL     1      14.264   1.986  20.610  0.00  0.00    +0.127 C 
ENDROOT
BRANCH   1  13
ATOM      9  C2  UNL     1       9.368   5.947  20.569  0.00  0.00    +0.219 A 
ATOM     10  C3  UNL     1      10.682   5.483  20.486  0.00  0.00    +0.111 A 
ATOM     11  C4  UNL     1      11.728   6.417  20.448  0.00  0.00    +0.132 A 
ATOM     12  N1  UNL     1      13.104   6.007  20.393  0.00  0.00    -0.262 N 
ATOM     13  C5  UNL     1      13.572   4.831  19.714  0.00  0.00    +0.304 C 
ATOM     14  O2  UNL     1      12.818   4.226  18.904  0.00  0.00    -0.265 OA
ATOM     15  N4  UNL     1      11.435   7.742  20.527  0.00  0.00    -0.220 NA
ATOM     16  C17 UNL     1      10.152   8.179  20.609  0.00  0.00    +0.227 A 
ATOM     17  N5  UNL     1       9.129   7.285  20.625  0.00  0.00    -0.201 NA
ATOM     18  H5  UNL     1      13.815   6.666  20.784  0.00  0.00    +0.157 HD
BRANCH   9  20
ATOM     19  C1  UNL     1       7.750   4.545  21.812  0.00  0.00    +0.279 C 
ATOM     20  O1  UNL     1       8.314   5.029  20.600  0.00  0.00    -0.480 OA
ENDBRANCH   9  20
ENDBRANCH   1  13
BRANCH   6  21
ATOM     21  C9  UNL     1      15.922  -0.463  22.949  0.00  0.00    +0.031 A 
ATOM     22  C10 UNL     1      17.095  -1.233  22.832  0.00  0.00    +0.023 A 
ATOM     23  C11 UNL     1      17.272  -2.379  23.612  0.00  0.00    +0.003 A 
ATOM     24  C12 UNL     1      16.283  -2.773  24.515  0.00  0.00    +0.020 A 
ATOM     25  C13 UNL     1      15.112  -2.021  24.640  0.00  0.00    +0.043 A 
ATOM     26 CL1  UNL     1      13.865  -2.520  25.769  0.00  0.00    -0.083 Cl
ATOM     27  C14 UNL     1      14.930  -0.872  23.861  0.00  0.00    +0.043 A 
ENDBRANCH   6  21
TORSDOF 3
ENDMDL
MODEL 4
REMARK VINA RESULT:    -6.593     16.904     17.563
REMARK INTER + INTRA:          -8.202
REMARK INTER:                  -7.755
REMARK INTRA:                  -0.446
REMARK UNBOUND:                -0.453
REMARK  Name = /home/qwerty/github/datacon2025hack/step_04_hit_selection/docking/ligands/lig_635.pdb
REMARK  4 active torsions:
REMARK  status: ('A' for Active; 'I' for Inactive)
REMARK    1  A    between atoms: C1_1  and  O1_2
REMARK    2  A    between atoms: O1_2  and  C2_3
REMARK    3  A    between atoms: C5_7  and  C6_9
REMARK    4  A    between atoms: N3_14  and  C9_15
REMARK                            x       y       z     vdW  Elec       q    Type
REMARK                         _______ _______ _______ _____ _____    ______ ____
ROOT
ATOM      1  C6  UNL     1      17.886  10.075  37.465  0.00  0.00    +0.302 C 
ATOM      2  O3  UNL     1      17.647   9.745  38.659  0.00  0.00    -0.265 OA
ATOM      3  N2  UNL     1      19.087   9.592  36.826  0.00  0.00    -0.291 N 
ATOM      4  C7  UNL     1      19.733   8.380  37.347  0.00  0.00    +0.127 C 
ATOM      5  C8  UNL     1      20.545   7.681  36.252  0.00  0.00    +0.124 C 
ATOM      6  N3  UNL     1      21.458   8.615  35.577  0.00  0.00    -0.327 N 
ATOM      7  C15 UNL     1      21.264  10.065  35.724  0.00  0.00    +0.124 C 
ATOM      8  C16 UNL     1      19.774  10.408  35.811  0.00  0.00    +0.127 C 
ENDROOT
BRANCH   1  13
ATOM      9  C2  UNL     1      13.297  13.422  36.116  0.00  0.00    +0.219 A 
ATOM     10  C3  UNL     1      14.331  12.563  36.495  0.00  0.00    +0.111 A 
ATOM     11  C4  UNL     1      15.593  13.107  36.774  0.00  0.00    +0.132 A 
ATOM     12  N1  UNL     1      16.693  12.284  37.198  0.00  0.00    -0.262 N 
ATOM     13  C5  UNL     1      16.909  10.933  36.759  0.00  0.00    +0.304 C 
ATOM     14  O2  UNL     1      16.276  10.482  35.767  0.00  0.00    -0.265 OA
ATOM     15  N4  UNL     1      15.765  14.453  36.701  0.00  0.00    -0.220 NA
ATOM     16  C17 UNL     1      14.750  15.276  36.332  0.00  0.00    +0.227 A 
ATOM     17  N5  UNL     1      13.529  14.760  36.039  0.00  0.00    -0.201 NA
ATOM     18  H5  UNL     1      17.433  12.738  37.780  0.00  0.00    +0.157 HD
BRANCH   9  20
ATOM     19  C1  UNL     1      10.899  13.711  35.574  0.00  0.00    +0.279 C 
ATOM     20  O1  UNL     1      12.035  12.894  35.827  0.00  0.00    -0.480 OA
ENDBRANCH   9  20
ENDBRANCH   1  13
BRANCH   6  21
ATOM     21  C9  UNL     1      22.598   8.103  34.849  0.00  0.00    +0.031 A 
ATOM     22  C10 UNL     1      23.122   6.831  35.143  0.00  0.00    +0.023 A 
ATOM     23  C11 UNL     1      24.225   6.338  34.441  0.00  0.00    +0.003 A 
ATOM     24  C12 UNL     1      24.822   7.108  33.441  0.00  0.00    +0.020 A 
ATOM     25  C13 UNL     1      24.315   8.375  33.140  0.00  0.00    +0.043 A 
ATOM     26 CL1  UNL     1      25.068   9.346  31.888  0.00  0.00    -0.083 Cl
ATOM     27  C14 UNL     1      23.209   8.872  33.840  0.00  0.00    +0.043 A 
ENDBRANCH   6  21
TORSDOF 3
ENDMDL
MODEL 5
REMARK VINA RESULT:    -6.492     16.922     19.387
REMARK INTER + INTRA:          -8.084
REMARK INTER:                  -7.617
REMARK INTRA:                  -0.467
REMARK UNBOUND:                -0.453
REMARK  Name = /home/qwerty/github/datacon2025hack/step_04_hit_selection/docking/ligands/lig_635.pdb
REMARK  4 active torsions:
REMARK  status: ('A' for Active; 'I' for Inactive)
REMARK    1  A    between atoms: C1_1  and  O1_2
REMARK    2  A    between atoms: O1_2  and  C2_3
REMARK    3  A    between atoms: C5_7  and  C6_9
REMARK    4  A    between atoms: N3_14  and  C9_15
REMARK                            x       y       z     vdW  Elec       q    Type
REMARK                         _______ _______ _______ _____ _____    ______ ____
ROOT
ATOM      1  C6  UNL     1      19.729  11.720  35.407  0.00  0.00    +0.302 C 
ATOM      2  O3  UNL     1      20.522  12.698  35.334  0.00  0.00    -0.265 OA
ATOM      3  N2  UNL     1      18.314  11.966  35.552  0.00  0.00    -0.291 N 
ATOM      4  C7  UNL     1      17.770  13.262  35.124  0.00  0.00    +0.127 C 
ATOM      5  C8  UNL     1      16.288  13.135  34.755  0.00  0.00    +0.124 C 
ATOM      6  N3  UNL     1      15.521  12.475  35.822  0.00  0.00    -0.327 N 
ATOM      7  C15 UNL     1      16.222  11.722  36.872  0.00  0.00    +0.124 C 
ATOM      8  C16 UNL     1      17.466  11.028  36.305  0.00  0.00    +0.127 C 
ENDROOT
BRANCH   1  13
ATOM      9  C2  UNL     1      23.312   7.112  35.293  0.00  0.00    +0.219 A 
ATOM     10  C3  UNL     1      22.527   8.266  35.269  0.00  0.00    +0.111 A 
ATOM     11  C4  UNL     1      21.764   8.590  36.401  0.00  0.00    +0.132 A 
ATOM     12  N1  UNL     1      20.958   9.778  36.454  0.00  0.00    -0.262 N 
ATOM     13  C5  UNL     1      20.285  10.351  35.321  0.00  0.00    +0.304 C 
ATOM     14  O2  UNL     1      20.159   9.686  34.258  0.00  0.00    -0.265 OA
ATOM     15  N4  UNL     1      21.837   7.791  37.498  0.00  0.00    -0.220 NA
ATOM     16  C17 UNL     1      22.606   6.671  37.508  0.00  0.00    +0.227 A 
ATOM     17  N5  UNL     1      23.332   6.336  36.411  0.00  0.00    -0.201 NA
ATOM     18  H5  UNL     1      20.770  10.186  37.398  0.00  0.00    +0.157 HD
BRANCH   9  20
ATOM     19  C1  UNL     1      24.349   7.691  33.121  0.00  0.00    +0.279 C 
ATOM     20  O1  UNL     1      24.071   6.772  34.170  0.00  0.00    -0.480 OA
ENDBRANCH   9  20
ENDBRANCH   1  13
BRANCH   6  21
ATOM     21  C9  UNL     1      14.086  12.647  35.885  0.00  0.00    +0.031 A 
ATOM     22  C10 UNL     1      13.440  13.578  35.050  0.00  0.00    +0.023 A 
ATOM     23  C11 UNL     1      12.055  13.747  35.114  0.00  0.00    +0.003 A 
ATOM     24  C12 UNL     1      11.296  12.992  36.011  0.00  0.00    +0.020 A 
ATOM     25  C13 UNL     1      11.924  12.066  36.849  0.00  0.00    +0.043 A 
ATOM     26 CL1  UNL     1      10.973  11.122  37.981  0.00  0.00    -0.083 Cl
ATOM     27  C14 UNL     1      13.312  11.893  36.788  0.00  0.00    +0.043 A 
ENDBRANCH   6  21
TORSDOF 3
ENDMDL
MODEL 6
REMARK VINA RESULT:    -6.348     16.770     17.437
REMARK INTER + INTRA:          -7.915
REMARK INTER:                  -7.743
REMARK INTRA:                  -0.171
REMARK UNBOUND:                -0.453
REMARK  Name = /home/qwerty/github/datacon2025hack/step_04_hit_selection/docking/ligands/lig_635.pdb
REMARK  4 active torsions:
REMARK  status: ('A' for Active; 'I' for Inactive)
REMARK    1  A    between atoms: C1_1  and  O1_2
REMARK    2  A    between atoms: O1_2  and  C2_3
REMARK    3  A    between atoms: C5_7  and  C6_9
REMARK    4  A    between atoms: N3_14  and  C9_15
REMARK                            x       y       z     vdW  Elec       q    Type
REMARK                         _______ _______ _______ _____ _____    ______ ____
ROOT
ATOM      1  C6  UNL     1      17.273   8.140  37.573  0.00  0.00    +0.302 C 
ATOM      2  O3  UNL     1      16.676   7.118  38.010  0.00  0.00    -0.265 OA
ATOM      3  N2  UNL     1      18.552   7.987  36.922  0.00  0.00    -0.291 N 
ATOM      4  C7  UNL     1      18.903   6.685  36.340  0.00  0.00    +0.127 C 
ATOM      5  C8  UNL     1      19.917   6.851  35.204  0.00  0.00    +0.124 C 
ATOM      6  N3  UNL     1      21.071   7.661  35.625  0.00  0.00    -0.327 N 
ATOM      7  C15 UNL     1      20.986   8.482  36.842  0.00  0.00    +0.124 C 
ATOM      8  C16 UNL     1      19.572   9.043  37.021  0.00  0.00    +0.127 C 
ENDROOT
BRANCH   1  13
ATOM      9  C2  UNL     1      14.943  13.404  36.601  0.00  0.00    +0.219 A 
ATOM     10  C3  UNL     1      15.572  12.168  36.763  0.00  0.00    +0.111 A 
ATOM     11  C4  UNL     1      14.780  11.026  36.952  0.00  0.00    +0.132 A 
ATOM     12  N1  UNL     1      15.360   9.720  37.096  0.00  0.00    -0.262 N 
ATOM     13  C5  UNL     1      16.623   9.460  37.732  0.00  0.00    +0.304 C 
ATOM     14  O2  UNL     1      17.173  10.353  38.432  0.00  0.00    -0.265 OA
ATOM     15  N4  UNL     1      13.426  11.149  36.939  0.00  0.00    -0.220 NA
ATOM     16  C17 UNL     1      12.828  12.358  36.778  0.00  0.00    +0.227 A 
ATOM     17  N5  UNL     1      13.584  13.474  36.615  0.00  0.00    -0.201 NA
ATOM     18  H5  UNL     1      14.775   8.902  36.811  0.00  0.00    +0.157 HD
BRANCH   9  20
ATOM     19  C1  UNL     1      15.365  15.815  36.970  0.00  0.00    +0.279 C 
ATOM     20  O1  UNL     1      15.718  14.553  36.420  0.00  0.00    -0.480 OA
ENDBRANCH   9  20
ENDBRANCH   1  13
BRANCH   6  21
ATOM     21  C9  UNL     1      22.313   7.573  34.890  0.00  0.00    +0.031 A 
ATOM     22  C10 UNL     1      23.203   6.506  35.113  0.00  0.00    +0.023 A 
ATOM     23  C11 UNL     1      24.405   6.425  34.405  0.00  0.00    +0.003 A 
ATOM     24  C12 UNL     1      24.737   7.406  33.469  0.00  0.00    +0.020 A 
ATOM     25  C13 UNL     1      23.865   8.474  33.240  0.00  0.00    +0.043 A 
ATOM     26 CL1  UNL     1      24.285   9.712  32.069  0.00  0.00    -0.083 Cl
ATOM     27  C14 UNL     1      22.660   8.559  33.946  0.00  0.00    +0.043 A 
ENDBRANCH   6  21
TORSDOF 3
ENDMDL
MODEL 7
REMARK VINA RESULT:    -6.313     14.169     15.560
REMARK INTER + INTRA:          -7.873
REMARK INTER:                  -7.427
REMARK INTRA:                  -0.446
REMARK UNBOUND:                -0.453
REMARK  Name = /home/qwerty/github/datacon2025hack/step_04_hit_selection/docking/ligands/lig_635.pdb
REMARK  4 active torsions:
REMARK  status: ('A' for Active; 'I' for Inactive)
REMARK    1  A    between atoms: C1_1  and  O1_2
REMARK    2  A    between atoms: O1_2  and  C2_3
REMARK    3  A    between atoms: C5_7  and  C6_9
REMARK    4  A    between atoms: N3_14  and  C9_15
REMARK                            x       y       z     vdW  Elec       q    Type
REMARK                         _______ _______ _______ _____ _____    ______ ____
ROOT
ATOM      1  C6  UNL     1      11.721  12.810  34.136  0.00  0.00    +0.302 C 
ATOM      2  O3  UNL     1      10.806  13.298  34.854  0.00  0.00    -0.265 OA
ATOM      3  N2  UNL     1      12.950  12.374  34.757  0.00  0.00    -0.291 N 
ATOM      4  C7  UNL     1      12.944  12.038  36.187  0.00  0.00    +0.127 C 
ATOM      5  C8  UNL     1      14.063  11.044  36.518  0.00  0.00    +0.124 C 
ATOM      6  N3  UNL     1      15.362  11.504  36.005  0.00  0.00    -0.327 N 
ATOM      7  C15 UNL     1      15.416  12.567  34.992  0.00  0.00    +0.124 C 
ATOM      8  C16 UNL     1      14.227  12.464  34.031  0.00  0.00    +0.127 C 
ENDROOT
BRANCH   1  13
ATOM      9  C2  UNL     1       9.693  13.454  28.701  0.00  0.00    +0.219 A 
ATOM     10  C3  UNL     1      10.081  13.311  30.034  0.00  0.00    +0.111 A 
ATOM     11  C4  UNL     1      11.288  13.891  30.453  0.00  0.00    +0.132 A 
ATOM     12  N1  UNL     1      11.733  13.807  31.816  0.00  0.00    -0.262 N 
ATOM     13  C5  UNL     1      11.488  12.686  32.681  0.00  0.00    +0.304 C 
ATOM     14  O2  UNL     1      11.083  11.593  32.199  0.00  0.00    -0.265 OA
ATOM     15  N4  UNL     1      12.027  14.601  29.559  0.00  0.00    -0.220 NA
ATOM     16  C17 UNL     1      11.635  14.733  28.265  0.00  0.00    +0.227 A 
ATOM     17  N5  UNL     1      10.480  14.159  27.843  0.00  0.00    -0.201 NA
ATOM     18  H5  UNL     1      12.361  14.568  32.162  0.00  0.00    +0.157 HD
BRANCH   9  20
ATOM     19  C1  UNL     1       8.429  11.562  27.726  0.00  0.00    +0.279 C 
ATOM     20  O1  UNL     1       8.497  12.876  28.266  0.00  0.00    -0.480 OA
ENDBRANCH   9  20
ENDBRANCH   1  13
BRANCH   6  21
ATOM     21  C9  UNL     1      16.583  10.972  36.568  0.00  0.00    +0.031 A 
ATOM     22  C10 UNL     1      16.554  10.216  37.755  0.00  0.00    +0.023 A 
ATOM     23  C11 UNL     1      17.735   9.705  38.300  0.00  0.00    +0.003 A 
ATOM     24  C12 UNL     1      18.959   9.943  37.672  0.00  0.00    +0.020 A 
ATOM     25  C13 UNL     1      19.004  10.695  36.495  0.00  0.00    +0.043 A 
ATOM     26 CL1  UNL     1      20.542  11.001  35.709  0.00  0.00    -0.083 Cl
ATOM     27  C14 UNL     1      17.824  11.208  35.945  0.00  0.00    +0.043 A 
ENDBRANCH   6  21
TORSDOF 3
ENDMDL
MODEL 8
REMARK VINA RESULT:    -6.220     14.946     17.666
REMARK INTER + INTRA:          -7.764
REMARK INTER:                  -7.339
REMARK INTRA:                  -0.425
REMARK UNBOUND:                -0.453
REMARK  Name = /home/qwerty/github/datacon2025hack/step_04_hit_selection/docking/ligands/lig_635.pdb
REMARK  4 active torsions:
REMARK  status: ('A' for Active; 'I' for Inactive)
REMARK    1  A    between atoms: C1_1  and  O1_2
REMARK    2  A    between atoms: O1_2  and  C2_3
REMARK    3  A    between atoms: C5_7  and  C6_9
REMARK    4  A    between atoms: N3_14  and  C9_15
REMARK                            x       y       z     vdW  Elec       q    Type
REMARK                         _______ _______ _______ _____ _____    ______ ____
ROOT
ATOM      1  C6  UNL     1      22.221   5.862  34.343  0.00  0.00    +0.302 C 
ATOM      2  O3  UNL     1      23.405   5.834  34.779  0.00  0.00    -0.265 OA
ATOM      3  N2  UNL     1      21.273   6.777  34.933  0.00  0.00    -0.291 N 
ATOM      4  C7  UNL     1      21.775   7.964  35.639  0.00  0.00    +0.127 C 
ATOM      5  C8  UNL     1      20.730   9.084  35.633  0.00  0.00    +0.124 C 
ATOM      6  N3  UNL     1      19.421   8.605  36.100  0.00  0.00    -0.327 N 
ATOM      7  C15 UNL     1      19.147   7.161  36.160  0.00  0.00    +0.124 C 
ATOM      8  C16 UNL     1      19.846   6.427  35.012  0.00  0.00    +0.127 C 
ENDROOT
BRANCH   1  13
ATOM      9  C2  UNL     1      22.109   1.534  30.428  0.00  0.00    +0.219 A 
ATOM     10  C3  UNL     1      22.239   2.570  31.354  0.00  0.00    +0.111 A 
ATOM     11  C4  UNL     1      21.408   2.574  32.485  0.00  0.00    +0.132 A 
ATOM     12  N1  UNL     1      21.509   3.594  33.492  0.00  0.00    -0.262 N 
ATOM     13  C5  UNL     1      21.857   4.962  33.226  0.00  0.00    +0.304 C 
ATOM     14  O2  UNL     1      21.843   5.400  32.044  0.00  0.00    -0.265 OA
ATOM     15  N4  UNL     1      20.527   1.554  32.663  0.00  0.00    -0.220 NA
ATOM     16  C17 UNL     1      20.414   0.551  31.753  0.00  0.00    +0.227 A 
ATOM     17  N5  UNL     1      21.197   0.548  30.644  0.00  0.00    -0.201 NA
ATOM     18  H5  UNL     1      21.208   3.340  34.460  0.00  0.00    +0.157 HD
BRANCH   9  20
ATOM     19  C1  UNL     1      24.127   0.765  29.216  0.00  0.00    +0.279 C 
ATOM     20  O1  UNL     1      22.924   1.520  29.292  0.00  0.00    -0.480 OA
ENDBRANCH   9  20
ENDBRANCH   1  13
BRANCH   6  21
ATOM     21  C9  UNL     1      18.443   9.552  36.586  0.00  0.00    +0.031 A 
ATOM     22  C10 UNL     1      17.698   9.280  37.749  0.00  0.00    +0.023 A 
ATOM     23  C11 UNL     1      16.751  10.194  38.216  0.00  0.00    +0.003 A 
ATOM     24  C12 UNL     1      16.531  11.390  37.529  0.00  0.00    +0.020 A 
ATOM     25  C13 UNL     1      17.259  11.673  36.370  0.00  0.00    +0.043 A 
ATOM     26 CL1  UNL     1      16.979  13.171  35.502  0.00  0.00    -0.083 Cl
ATOM     27  C14 UNL     1      18.210  10.760  35.900  0.00  0.00    +0.043 A 
ENDBRANCH   6  21
TORSDOF 3
ENDMDL
MODEL 9
REMARK VINA RESULT:    -6.175     14.553     17.184
REMARK INTER + INTRA:          -7.711
REMARK INTER:                  -7.255
REMARK INTRA:                  -0.456
REMARK UNBOUND:                -0.453
REMARK  Name = /home/qwerty/github/datacon2025hack/step_04_hit_selection/docking/ligands/lig_635.pdb
REMARK  4 active torsions:
REMARK  status: ('A' for Active; 'I' for Inactive)
REMARK    1  A    between atoms: C1_1  and  O1_2
REMARK    2  A    between atoms: O1_2  and  C2_3
REMARK    3  A    between atoms: C5_7  and  C6_9
REMARK    4  A    between atoms: N3_14  and  C9_15
REMARK                            x       y       z     vdW  Elec       q    Type
REMARK                         _______ _______ _______ _____ _____    ______ ____
ROOT
ATOM      1  C6  UNL     1      22.885   5.788  33.003  0.00  0.00    +0.302 C 
ATOM      2  O3  UNL     1      24.135   5.705  33.152  0.00  0.00    -0.265 OA
ATOM      3  N2  UNL     1      22.172   6.881  33.621  0.00  0.00    -0.291 N 
ATOM      4  C7  UNL     1      22.906   8.106  33.967  0.00  0.00    +0.127 C 
ATOM      5  C8  UNL     1      21.966   9.315  33.999  0.00  0.00    +0.124 C 
ATOM      6  N3  UNL     1      20.784   9.057  34.835  0.00  0.00    -0.327 N 
ATOM      7  C15 UNL     1      20.441   7.679  35.216  0.00  0.00    +0.124 C 
ATOM      8  C16 UNL     1      20.788   6.701  34.089  0.00  0.00    +0.127 C 
ENDROOT
BRANCH   1  13
ATOM      9  C2  UNL     1      21.577   0.967  29.983  0.00  0.00    +0.219 A 
ATOM     10  C3  UNL     1      21.986   2.113  30.667  0.00  0.00    +0.111 A 
ATOM     11  C4  UNL     1      21.507   2.331  31.968  0.00  0.00    +0.132 A 
ATOM     12  N1  UNL     1      21.910   3.474  32.740  0.00  0.00    -0.262 N 
ATOM     13  C5  UNL     1      22.201   4.766  32.182  0.00  0.00    +0.304 C 
ATOM     14  O2  UNL     1      21.865   5.033  30.996  0.00  0.00    -0.265 OA
ATOM     15  N4  UNL     1      20.688   1.406  32.536  0.00  0.00    -0.220 NA
ATOM     16  C17 UNL     1      20.300   0.295  31.857  0.00  0.00    +0.227 A 
ATOM     17  N5  UNL     1      20.740   0.083  30.590  0.00  0.00    -0.201 NA
ATOM     18  H5  UNL     1      21.888   3.380  33.781  0.00  0.00    +0.157 HD
BRANCH   9  20
ATOM     19  C1  UNL     1      21.183   0.755  27.548  0.00  0.00    +0.279 C 
ATOM     20  O1  UNL     1      22.039   0.741  28.683  0.00  0.00    -0.480 OA
ENDBRANCH   9  20
ENDBRANCH   1  13
BRANCH   6  21
ATOM     21  C9  UNL     1      20.018  10.168  35.355  0.00  0.00    +0.031 A 
ATOM     22  C10 UNL     1      20.409  11.493  35.090  0.00  0.00    +0.023 A 
ATOM     23  C11 UNL     1      19.670  12.566  35.595  0.00  0.00    +0.003 A 
ATOM     24  C12 UNL     1      18.534  12.332  36.372  0.00  0.00    +0.020 A 
ATOM     25  C13 UNL     1      18.135  11.021  36.647  0.00  0.00    +0.043 A 
ATOM     26 CL1  UNL     1      16.712  10.726  37.630  0.00  0.00    -0.083 Cl
ATOM     27  C14 UNL     1      18.872   9.944  36.142  0.00  0.00    +0.043 A 
ENDBRANCH   6  21
TORSDOF 3
ENDMDL
