MODEL 1
REMARK VINA RESULT:    -6.460      0.000      0.000
REMARK INTER + INTRA:          -8.753
REMARK INTER:                  -7.971
REMARK INTRA:                  -0.782
REMARK UNBOUND:                -0.782
REMARK  Name = /home/qwerty/github/datacon2025hack/step_04_hit_selection/docking/ligands/lig_630.pdb
REMARK  6 active torsions:
REMARK  status: ('A' for Active; 'I' for Inactive)
REMARK    1  A    between atoms: C1_1  and  C2_2
REMARK    2  A    between atoms: C2_2  and  C3_3
REMARK    3  A    between atoms: C2_2  and  C14_20
REMARK    4  A    between atoms: C6_8  and  N2_9
REMARK    5  A    between atoms: N2_9  and  C7_10
REMARK    6  A    between atoms: C8_11  and  C9_13
REMARK                            x       y       z     vdW  Elec       q    Type
REMARK                         _______ _______ _______ _____ _____    ______ ____
ROOT
ATOM      1  C3  UNL     1      22.883   6.227  31.974  0.00  0.00    +0.223 C 
ATOM      2  O1  UNL     1      23.200   7.390  31.599  0.00  0.00    -0.275 OA
ATOM      3  N1  UNL     1      21.914   5.484  31.208  0.00  0.00    -0.299 N 
ATOM      4  C4  UNL     1      21.249   6.047  30.045  0.00  0.00    +0.109 C 
ATOM      5  C5  UNL     1      20.285   4.977  29.545  0.00  0.00    +0.043 C 
ATOM      6  C6  UNL     1      20.622   3.691  30.314  0.00  0.00    +0.095 C 
ATOM      7  C13 UNL     1      21.526   4.110  31.477  0.00  0.00    +0.130 C 
ENDROOT
BRANCH   6   8
ATOM      8  N2  UNL     1      21.274   2.696  29.436  0.00  0.00    -0.295 N 
ATOM      9  C7  UNL     1      21.541   2.994  28.021  0.00  0.00    +0.132 C 
ATOM     10  C8  UNL     1      21.404   1.336  29.902  0.00  0.00    +0.265 C 
ATOM     11  O2  UNL     1      20.531   0.866  30.681  0.00  0.00    -0.268 OA
BRANCH  10  12
ATOM     12  C9  UNL     1      22.543   0.482  29.495  0.00  0.00    +0.129 A 
ATOM     13  C10 UNL     1      22.333  -0.825  29.032  0.00  0.00    +0.053 A 
ATOM     14  C11 UNL     1      23.439  -1.598  28.682  0.00  0.00    +0.115 A 
ATOM     15  N3  UNL     1      24.691  -1.084  28.798  0.00  0.00    -0.244 NA
ATOM     16  C12 UNL     1      24.883   0.180  29.255  0.00  0.00    +0.221 A 
ATOM     17  N4  UNL     1      23.817   0.948  29.601  0.00  0.00    -0.231 NA
ENDBRANCH  10  12
ENDBRANCH   6   8
BRANCH   1  19
ATOM     18  C1  UNL     1      25.082   5.926  33.129  0.00  0.00    +0.022 C 
ATOM     19  C2  UNL     1      23.580   5.624  33.176  0.00  0.00    +0.102 C 
BRANCH  19  20
ATOM     20  C14 UNL     1      22.940   6.089  34.474  0.00  0.00    -0.036 A 
ATOM     21  C15 UNL     1      23.714   6.361  35.621  0.00  0.00    +0.004 A 
ATOM     22  C16 UNL     1      23.105   6.809  36.798  0.00  0.00    +0.000 A 
ATOM     23  C17 UNL     1      21.721   6.998  36.842  0.00  0.00    +0.000 A 
ATOM     24  C18 UNL     1      20.945   6.746  35.710  0.00  0.00    +0.000 A 
ATOM     25  C19 UNL     1      21.549   6.298  34.530  0.00  0.00    +0.004 A 
ENDBRANCH  19  20
ENDBRANCH   1  19
TORSDOF 4
ENDMDL
MODEL 2
REMARK VINA RESULT:    -6.127      2.584      7.832
REMARK INTER + INTRA:          -8.341
REMARK INTER:                  -7.581
REMARK INTRA:                  -0.760
REMARK UNBOUND:                -0.782
REMARK  Name = /home/qwerty/github/datacon2025hack/step_04_hit_selection/docking/ligands/lig_630.pdb
REMARK  6 active torsions:
REMARK  status: ('A' for Active; 'I' for Inactive)
REMARK    1  A    between atoms: C1_1  and  C2_2
REMARK    2  A    between atoms: C2_2  and  C3_3
REMARK    3  A    between atoms: C2_2  and  C14_20
REMARK    4  A    between atoms: C6_8  and  N2_9
REMARK    5  A    between atoms: N2_9  and  C7_10
REMARK    6  A    between atoms: C8_11  and  C9_13
REMARK                            x       y       z     vdW  Elec       q    Type
REMARK                         _______ _______ _______ _____ _____    ______ ____
ROOT
ATOM      1  C3  UNL     1      21.649   0.758  29.767  0.00  0.00    +0.223 C 
ATOM      2  O1  UNL     1      21.823  -0.493  29.750  0.00  0.00    -0.275 OA
ATOM      3  N1  UNL     1      20.576   1.305  30.559  0.00  0.00    -0.299 N 
ATOM      4  C4  UNL     1      19.653   0.463  31.301  0.00  0.00    +0.109 C 
ATOM      5  C5  UNL     1      18.658   1.406  31.969  0.00  0.00    +0.043 C 
ATOM      6  C6  UNL     1      19.212   2.826  31.787  0.00  0.00    +0.095 C 
ATOM      7  C13 UNL     1      20.321   2.725  30.734  0.00  0.00    +0.130 C 
ENDROOT
BRANCH   6   8
ATOM      8  N2  UNL     1      19.711   3.376  33.065  0.00  0.00    -0.295 N 
ATOM      9  C7  UNL     1      19.866   2.517  34.249  0.00  0.00    +0.132 C 
ATOM     10  C8  UNL     1      19.788   4.808  33.224  0.00  0.00    +0.265 C 
ATOM     11  O2  UNL     1      18.960   5.542  32.618  0.00  0.00    -0.268 OA
BRANCH  10  12
ATOM     12  C9  UNL     1      20.823   5.440  34.074  0.00  0.00    +0.129 A 
ATOM     13  C10 UNL     1      22.184   5.334  33.751  0.00  0.00    +0.053 A 
ATOM     14  C11 UNL     1      23.121   5.927  34.594  0.00  0.00    +0.115 A 
ATOM     15  N3  UNL     1      22.711   6.587  35.709  0.00  0.00    -0.244 NA
ATOM     16  C12 UNL     1      21.391   6.677  36.016  0.00  0.00    +0.221 A 
ATOM     17  N4  UNL     1      20.464   6.105  35.205  0.00  0.00    -0.231 NA
ENDBRANCH  10  12
ENDBRANCH   6   8
BRANCH   1  19
ATOM     18  C1  UNL     1      24.015   1.029  29.002  0.00  0.00    +0.022 C 
ATOM     19  C2  UNL     1      22.612   1.646  29.008  0.00  0.00    +0.102 C 
BRANCH  19  20
ATOM     20  C14 UNL     1      22.106   1.937  27.605  0.00  0.00    -0.036 A 
ATOM     21  C15 UNL     1      21.023   1.226  27.049  0.00  0.00    +0.004 A 
ATOM     22  C16 UNL     1      20.561   1.527  25.764  0.00  0.00    +0.000 A 
ATOM     23  C17 UNL     1      21.167   2.543  25.022  0.00  0.00    +0.000 A 
ATOM     24  C18 UNL     1      22.232   3.265  25.565  0.00  0.00    +0.000 A 
ATOM     25  C19 UNL     1      22.697   2.969  26.850  0.00  0.00    +0.004 A 
ENDBRANCH  19  20
ENDBRANCH   1  19
TORSDOF 4
ENDMDL
MODEL 3
REMARK VINA RESULT:    -6.103      2.594      3.711
REMARK INTER + INTRA:          -8.312
REMARK INTER:                  -7.617
REMARK INTRA:                  -0.695
REMARK UNBOUND:                -0.782
REMARK  Name = /home/qwerty/github/datacon2025hack/step_04_hit_selection/docking/ligands/lig_630.pdb
REMARK  6 active torsions:
REMARK  status: ('A' for Active; 'I' for Inactive)
REMARK    1  A    between atoms: C1_1  and  C2_2
REMARK    2  A    between atoms: C2_2  and  C3_3
REMARK    3  A    between atoms: C2_2  and  C14_20
REMARK    4  A    between atoms: C6_8  and  N2_9
REMARK    5  A    between atoms: N2_9  and  C7_10
REMARK    6  A    between atoms: C8_11  and  C9_13
REMARK                            x       y       z     vdW  Elec       q    Type
REMARK                         _______ _______ _______ _____ _____    ______ ____
ROOT
ATOM      1  C3  UNL     1      19.833   4.319  33.965  0.00  0.00    +0.223 C 
ATOM      2  O1  UNL     1      18.883   4.158  34.781  0.00  0.00    -0.275 OA
ATOM      3  N1  UNL     1      20.301   3.187  33.205  0.00  0.00    -0.299 N 
ATOM      4  C4  UNL     1      19.752   1.853  33.380  0.00  0.00    +0.109 C 
ATOM      5  C5  UNL     1      20.528   0.944  32.435  0.00  0.00    +0.043 C 
ATOM      6  C6  UNL     1      21.360   1.863  31.528  0.00  0.00    +0.095 C 
ATOM      7  C13 UNL     1      21.324   3.252  32.175  0.00  0.00    +0.130 C 
ENDROOT
BRANCH   6   8
ATOM      8  N2  UNL     1      20.827   1.881  30.149  0.00  0.00    -0.295 N 
ATOM      9  C7  UNL     1      19.465   2.359  29.870  0.00  0.00    +0.132 C 
ATOM     10  C8  UNL     1      21.548   1.178  29.115  0.00  0.00    +0.265 C 
ATOM     11  O2  UNL     1      22.208   0.146  29.417  0.00  0.00    -0.268 OA
BRANCH  10  12
ATOM     12  C9  UNL     1      21.542   1.644  27.710  0.00  0.00    +0.129 A 
ATOM     13  C10 UNL     1      22.428   2.641  27.278  0.00  0.00    +0.053 A 
ATOM     14  C11 UNL     1      22.368   3.061  25.950  0.00  0.00    +0.115 A 
ATOM     15  N3  UNL     1      21.458   2.512  25.104  0.00  0.00    -0.244 NA
ATOM     16  C12 UNL     1      20.600   1.553  25.535  0.00  0.00    +0.221 A 
ATOM     17  N4  UNL     1      20.644   1.131  26.826  0.00  0.00    -0.231 NA
ENDBRANCH  10  12
ENDBRANCH   6   8
BRANCH   1  19
ATOM     18  C1  UNL     1      19.276   6.737  33.645  0.00  0.00    +0.022 C 
ATOM     19  C2  UNL     1      20.405   5.706  33.763  0.00  0.00    +0.102 C 
BRANCH  19  20
ATOM     20  C14 UNL     1      21.394   6.060  34.861  0.00  0.00    -0.036 A 
ATOM     21  C15 UNL     1      22.779   5.849  34.703  0.00  0.00    +0.004 A 
ATOM     22  C16 UNL     1      23.671   6.204  35.720  0.00  0.00    +0.000 A 
ATOM     23  C17 UNL     1      23.196   6.779  36.900  0.00  0.00    +0.000 A 
ATOM     24  C18 UNL     1      21.829   7.007  37.064  0.00  0.00    +0.000 A 
ATOM     25  C19 UNL     1      20.931   6.655  36.051  0.00  0.00    +0.004 A 
ENDBRANCH  19  20
ENDBRANCH   1  19
TORSDOF 4
ENDMDL
MODEL 4
REMARK VINA RESULT:    -6.048      5.361      9.914
REMARK INTER + INTRA:          -8.243
REMARK INTER:                  -7.430
REMARK INTRA:                  -0.813
REMARK UNBOUND:                -0.782
REMARK  Name = /home/qwerty/github/datacon2025hack/step_04_hit_selection/docking/ligands/lig_630.pdb
REMARK  6 active torsions:
REMARK  status: ('A' for Active; 'I' for Inactive)
REMARK    1  A    between atoms: C1_1  and  C2_2
REMARK    2  A    between atoms: C2_2  and  C3_3
REMARK    3  A    between atoms: C2_2  and  C14_20
REMARK    4  A    between atoms: C6_8  and  N2_9
REMARK    5  A    between atoms: N2_9  and  C7_10
REMARK    6  A    between atoms: C8_11  and  C9_13
REMARK                            x       y       z     vdW  Elec       q    Type
REMARK                         _______ _______ _______ _____ _____    ______ ____
ROOT
ATOM      1  C3  UNL     1      16.984  -0.116  25.687  0.00  0.00    +0.223 C 
ATOM      2  O1  UNL     1      15.871  -0.569  26.077  0.00  0.00    -0.275 OA
ATOM      3  N1  UNL     1      17.550   1.025  26.361  0.00  0.00    -0.299 N 
ATOM      4  C4  UNL     1      16.862   1.707  27.444  0.00  0.00    +0.109 C 
ATOM      5  C5  UNL     1      17.761   2.866  27.858  0.00  0.00    +0.043 C 
ATOM      6  C6  UNL     1      19.103   2.657  27.143  0.00  0.00    +0.095 C 
ATOM      7  C13 UNL     1      18.858   1.590  26.071  0.00  0.00    +0.130 C 
ENDROOT
BRANCH   6   8
ATOM      8  N2  UNL     1      20.160   2.252  28.094  0.00  0.00    -0.295 N 
ATOM      9  C7  UNL     1      19.942   2.329  29.547  0.00  0.00    +0.132 C 
ATOM     10  C8  UNL     1      21.498   2.037  27.598  0.00  0.00    +0.265 C 
ATOM     11  O2  UNL     1      21.903   2.705  26.607  0.00  0.00    -0.268 OA
BRANCH  10  12
ATOM     12  C9  UNL     1      22.407   1.045  28.217  0.00  0.00    +0.129 A 
ATOM     13  C10 UNL     1      23.652   1.433  28.732  0.00  0.00    +0.053 A 
ATOM     14  C11 UNL     1      24.481   0.458  29.286  0.00  0.00    +0.115 A 
ATOM     15  N3  UNL     1      24.079  -0.840  29.312  0.00  0.00    -0.244 NA
ATOM     16  C12 UNL     1      22.874  -1.205  28.803  0.00  0.00    +0.221 A 
ATOM     17  N4  UNL     1      22.054  -0.268  28.260  0.00  0.00    -0.231 NA
ENDBRANCH  10  12
ENDBRANCH   6   8
BRANCH   1  19
ATOM     18  C1  UNL     1      17.662  -2.344  24.773  0.00  0.00    +0.022 C 
ATOM     19  C2  UNL     1      17.718  -0.826  24.569  0.00  0.00    +0.102 C 
BRANCH  19  20
ATOM     20  C14 UNL     1      17.184  -0.410  23.208  0.00  0.00    -0.036 A 
ATOM     21  C15 UNL     1      16.791   0.919  22.944  0.00  0.00    +0.004 A 
ATOM     22  C16 UNL     1      16.324   1.282  21.677  0.00  0.00    +0.000 A 
ATOM     23  C17 UNL     1      16.251   0.330  20.658  0.00  0.00    +0.000 A 
ATOM     24  C18 UNL     1      16.651  -0.985  20.901  0.00  0.00    +0.000 A 
ATOM     25  C19 UNL     1      17.119  -1.355  22.166  0.00  0.00    +0.004 A 
ENDBRANCH  19  20
ENDBRANCH   1  19
TORSDOF 4
ENDMDL
MODEL 5
REMARK VINA RESULT:    -6.047      4.467      6.838
REMARK INTER + INTRA:          -8.243
REMARK INTER:                  -7.463
REMARK INTRA:                  -0.780
REMARK UNBOUND:                -0.782
REMARK  Name = /home/qwerty/github/datacon2025hack/step_04_hit_selection/docking/ligands/lig_630.pdb
REMARK  6 active torsions:
REMARK  status: ('A' for Active; 'I' for Inactive)
REMARK    1  A    between atoms: C1_1  and  C2_2
REMARK    2  A    between atoms: C2_2  and  C3_3
REMARK    3  A    between atoms: C2_2  and  C14_20
REMARK    4  A    between atoms: C6_8  and  N2_9
REMARK    5  A    between atoms: N2_9  and  C7_10
REMARK    6  A    between atoms: C8_11  and  C9_13
REMARK                            x       y       z     vdW  Elec       q    Type
REMARK                         _______ _______ _______ _____ _____    ______ ____
ROOT
ATOM      1  C3  UNL     1      22.475   1.558  28.180  0.00  0.00    +0.223 C 
ATOM      2  O1  UNL     1      23.738   1.559  28.188  0.00  0.00    -0.275 OA
ATOM      3  N1  UNL     1      21.780   2.533  27.378  0.00  0.00    -0.299 N 
ATOM      4  C4  UNL     1      22.481   3.552  26.615  0.00  0.00    +0.109 C 
ATOM      5  C5  UNL     1      21.405   4.397  25.943  0.00  0.00    +0.043 C 
ATOM      6  C6  UNL     1      20.076   3.656  26.146  0.00  0.00    +0.095 C 
ATOM      7  C13 UNL     1      20.337   2.588  27.212  0.00  0.00    +0.130 C 
ENDROOT
BRANCH   6   8
ATOM      8  N2  UNL     1      19.591   3.067  24.880  0.00  0.00    -0.295 N 
ATOM      9  C7  UNL     1      20.426   3.082  23.669  0.00  0.00    +0.132 C 
ATOM     10  C8  UNL     1      18.195   2.718  24.764  0.00  0.00    +0.265 C 
ATOM     11  O2  UNL     1      17.337   3.389  25.400  0.00  0.00    -0.268 OA
BRANCH  10  12
ATOM     12  C9  UNL     1      17.745   1.585  23.923  0.00  0.00    +0.129 A 
ATOM     13  C10 UNL     1      16.935   1.801  22.798  0.00  0.00    +0.053 A 
ATOM     14  C11 UNL     1      16.519   0.700  22.051  0.00  0.00    +0.115 A 
ATOM     15  N3  UNL     1      16.894  -0.552  22.421  0.00  0.00    -0.244 NA
ATOM     16  C12 UNL     1      17.672  -0.750  23.516  0.00  0.00    +0.221 A 
ATOM     17  N4  UNL     1      18.086   0.311  24.256  0.00  0.00    -0.231 NA
ENDBRANCH  10  12
ENDBRANCH   6   8
BRANCH   1  19
ATOM     18  C1  UNL     1      22.534  -0.814  28.972  0.00  0.00    +0.022 C 
ATOM     19  C2  UNL     1      21.734   0.493  28.961  0.00  0.00    +0.102 C 
BRANCH  19  20
ATOM     20  C14 UNL     1      21.396   0.972  30.364  0.00  0.00    -0.036 A 
ATOM     21  C15 UNL     1      22.006   2.115  30.920  0.00  0.00    +0.004 A 
ATOM     22  C16 UNL     1      21.663   2.548  32.205  0.00  0.00    +0.000 A 
ATOM     23  C17 UNL     1      20.703   1.854  32.945  0.00  0.00    +0.000 A 
ATOM     24  C18 UNL     1      20.080   0.729  32.400  0.00  0.00    +0.000 A 
ATOM     25  C19 UNL     1      20.420   0.291  31.116  0.00  0.00    +0.004 A 
ENDBRANCH  19  20
ENDBRANCH   1  19
TORSDOF 4
ENDMDL
MODEL 6
REMARK VINA RESULT:    -5.957     13.098     16.028
REMARK INTER + INTRA:          -8.132
REMARK INTER:                  -7.603
REMARK INTRA:                  -0.528
REMARK UNBOUND:                -0.782
REMARK  Name = /home/qwerty/github/datacon2025hack/step_04_hit_selection/docking/ligands/lig_630.pdb
REMARK  6 active torsions:
REMARK  status: ('A' for Active; 'I' for Inactive)
REMARK    1  A    between atoms: C1_1  and  C2_2
REMARK    2  A    between atoms: C2_2  and  C3_3
REMARK    3  A    between atoms: C2_2  and  C14_20
REMARK    4  A    between atoms: C6_8  and  N2_9
REMARK    5  A    between atoms: N2_9  and  C7_10
REMARK    6  A    between atoms: C8_11  and  C9_13
REMARK                            x       y       z     vdW  Elec       q    Type
REMARK                         _______ _______ _______ _____ _____    ______ ____
ROOT
ATOM      1  C3  UNL     1       9.723  13.419  28.798  0.00  0.00    +0.223 C 
ATOM      2  O1  UNL     1       9.565  14.169  27.794  0.00  0.00    -0.275 OA
ATOM      3  N1  UNL     1      11.054  13.199  29.303  0.00  0.00    -0.299 N 
ATOM      4  C4  UNL     1      12.230  13.770  28.669  0.00  0.00    +0.109 C 
ATOM      5  C5  UNL     1      13.430  13.280  29.471  0.00  0.00    +0.043 C 
ATOM      6  C6  UNL     1      12.868  12.621  30.739  0.00  0.00    +0.095 C 
ATOM      7  C13 UNL     1      11.367  12.431  30.497  0.00  0.00    +0.130 C 
ENDROOT
BRANCH   6   8
ATOM      8  N2  UNL     1      13.135  13.447  31.936  0.00  0.00    -0.295 N 
ATOM      9  C7  UNL     1      12.541  14.786  32.079  0.00  0.00    +0.132 C 
ATOM     10  C8  UNL     1      14.191  13.050  32.835  0.00  0.00    +0.265 C 
ATOM     11  O2  UNL     1      15.196  12.442  32.375  0.00  0.00    -0.268 OA
BRANCH  10  12
ATOM     12  C9  UNL     1      14.121  13.330  34.288  0.00  0.00    +0.129 A 
ATOM     13  C10 UNL     1      15.162  14.004  34.942  0.00  0.00    +0.053 A 
ATOM     14  C11 UNL     1      15.059  14.225  36.315  0.00  0.00    +0.115 A 
ATOM     15  N3  UNL     1      13.968  13.783  36.994  0.00  0.00    -0.244 NA
ATOM     16  C12 UNL     1      12.970  13.125  36.351  0.00  0.00    +0.221 A 
ATOM     17  N4  UNL     1      13.053  12.901  35.014  0.00  0.00    -0.231 NA
ENDBRANCH  10  12
ENDBRANCH   6   8
BRANCH   1  19
ATOM     18  C1  UNL     1       7.359  13.847  29.497  0.00  0.00    +0.022 C 
ATOM     19  C2  UNL     1       8.505  12.828  29.476  0.00  0.00    +0.102 C 
BRANCH  19  20
ATOM     20  C14 UNL     1       8.095  11.515  28.828  0.00  0.00    -0.036 A 
ATOM     21  C15 UNL     1       8.329  11.263  27.461  0.00  0.00    +0.004 A 
ATOM     22  C16 UNL     1       7.962  10.039  26.893  0.00  0.00    +0.000 A 
ATOM     23  C17 UNL     1       7.366   9.051  27.681  0.00  0.00    +0.000 A 
ATOM     24  C18 UNL     1       7.142   9.282  29.039  0.00  0.00    +0.000 A 
ATOM     25  C19 UNL     1       7.507  10.505  29.613  0.00  0.00    +0.004 A 
ENDBRANCH  19  20
ENDBRANCH   1  19
TORSDOF 4
ENDMDL
MODEL 7
REMARK VINA RESULT:    -5.909      4.897      9.393
REMARK INTER + INTRA:          -8.072
REMARK INTER:                  -7.436
REMARK INTRA:                  -0.636
REMARK UNBOUND:                -0.782
REMARK  Name = /home/qwerty/github/datacon2025hack/step_04_hit_selection/docking/ligands/lig_630.pdb
REMARK  6 active torsions:
REMARK  status: ('A' for Active; 'I' for Inactive)
REMARK    1  A    between atoms: C1_1  and  C2_2
REMARK    2  A    between atoms: C2_2  and  C3_3
REMARK    3  A    between atoms: C2_2  and  C14_20
REMARK    4  A    between atoms: C6_8  and  N2_9
REMARK    5  A    between atoms: N2_9  and  C7_10
REMARK    6  A    between atoms: C8_11  and  C9_13
REMARK                            x       y       z     vdW  Elec       q    Type
REMARK                         _______ _______ _______ _____ _____    ______ ____
ROOT
ATOM      1  C3  UNL     1      18.767   1.695  25.035  0.00  0.00    +0.223 C 
ATOM      2  O1  UNL     1      18.319   2.518  24.188  0.00  0.00    -0.275 OA
ATOM      3  N1  UNL     1      20.063   1.928  25.619  0.00  0.00    -0.299 N 
ATOM      4  C4  UNL     1      20.899   3.052  25.230  0.00  0.00    +0.109 C 
ATOM      5  C5  UNL     1      22.186   2.926  26.037  0.00  0.00    +0.043 C 
ATOM      6  C6  UNL     1      21.939   1.835  27.089  0.00  0.00    +0.095 C 
ATOM      7  C13 UNL     1      20.657   1.111  26.664  0.00  0.00    +0.130 C 
ENDROOT
BRANCH   6   8
ATOM      8  N2  UNL     1      21.825   2.413  28.444  0.00  0.00    -0.295 N 
ATOM      9  C7  UNL     1      21.401   3.808  28.640  0.00  0.00    +0.132 C 
ATOM     10  C8  UNL     1      22.388   1.690  29.559  0.00  0.00    +0.265 C 
ATOM     11  O2  UNL     1      23.404   0.966  29.374  0.00  0.00    -0.268 OA
BRANCH  10  12
ATOM     12  C9  UNL     1      21.796   1.768  30.914  0.00  0.00    +0.129 A 
ATOM     13  C10 UNL     1      20.790   0.876  31.313  0.00  0.00    +0.053 A 
ATOM     14  C11 UNL     1      20.250   1.005  32.592  0.00  0.00    +0.115 A 
ATOM     15  N3  UNL     1      20.693   1.984  33.422  0.00  0.00    -0.244 NA
ATOM     16  C12 UNL     1      21.662   2.848  33.022  0.00  0.00    +0.221 A 
ATOM     17  N4  UNL     1      22.200   2.738  31.779  0.00  0.00    -0.231 NA
ENDBRANCH  10  12
ENDBRANCH   6   8
BRANCH   1  19
ATOM     18  C1  UNL     1      17.002   0.930  26.635  0.00  0.00    +0.022 C 
ATOM     19  C2  UNL     1      17.900   0.528  25.459  0.00  0.00    +0.102 C 
BRANCH  19  20
ATOM     20  C14 UNL     1      17.101  -0.020  24.287  0.00  0.00    -0.036 A 
ATOM     21  C15 UNL     1      17.725  -0.715  23.231  0.00  0.00    +0.004 A 
ATOM     22  C16 UNL     1      16.966  -1.229  22.175  0.00  0.00    +0.000 A 
ATOM     23  C17 UNL     1      15.579  -1.065  22.163  0.00  0.00    +0.000 A 
ATOM     24  C18 UNL     1      14.947  -0.392  23.210  0.00  0.00    +0.000 A 
ATOM     25  C19 UNL     1      15.701   0.125  24.270  0.00  0.00    +0.004 A 
ENDBRANCH  19  20
ENDBRANCH   1  19
TORSDOF 4
ENDMDL
MODEL 8
REMARK VINA RESULT:    -5.731     13.532     14.900
REMARK INTER + INTRA:          -7.853
REMARK INTER:                  -7.385
REMARK INTRA:                  -0.468
REMARK UNBOUND:                -0.782
REMARK  Name = /home/qwerty/github/datacon2025hack/step_04_hit_selection/docking/ligands/lig_630.pdb
REMARK  6 active torsions:
REMARK  status: ('A' for Active; 'I' for Inactive)
REMARK    1  A    between atoms: C1_1  and  C2_2
REMARK    2  A    between atoms: C2_2  and  C3_3
REMARK    3  A    between atoms: C2_2  and  C14_20
REMARK    4  A    between atoms: C6_8  and  N2_9
REMARK    5  A    between atoms: N2_9  and  C7_10
REMARK    6  A    between atoms: C8_11  and  C9_13
REMARK                            x       y       z     vdW  Elec       q    Type
REMARK                         _______ _______ _______ _____ _____    ______ ____
ROOT
ATOM      1  C3  UNL     1      12.895  13.439  31.782  0.00  0.00    +0.223 C 
ATOM      2  O1  UNL     1      14.156  13.482  31.849  0.00  0.00    -0.275 OA
ATOM      3  N1  UNL     1      12.246  13.824  30.555  0.00  0.00    -0.299 N 
ATOM      4  C4  UNL     1      12.988  14.309  29.403  0.00  0.00    +0.109 C 
ATOM      5  C5  UNL     1      11.951  14.640  28.336  0.00  0.00    +0.043 C 
ATOM      6  C6  UNL     1      10.613  14.078  28.836  0.00  0.00    +0.095 C 
ATOM      7  C13 UNL     1      10.815  13.740  30.317  0.00  0.00    +0.130 C 
ENDROOT
BRANCH   6   8
ATOM      8  N2  UNL     1      10.201  12.896  28.050  0.00  0.00    -0.295 N 
ATOM      9  C7  UNL     1      11.183  12.118  27.280  0.00  0.00    +0.132 C 
ATOM     10  C8  UNL     1       8.794  12.667  27.823  0.00  0.00    +0.265 C 
ATOM     11  O2  UNL     1       8.013  13.655  27.746  0.00  0.00    -0.268 OA
BRANCH  10  12
ATOM     12  C9  UNL     1       8.242  11.299  27.687  0.00  0.00    +0.129 A 
ATOM     13  C10 UNL     1       7.799  10.587  28.812  0.00  0.00    +0.053 A 
ATOM     14  C11 UNL     1       7.308   9.295  28.635  0.00  0.00    +0.115 A 
ATOM     15  N3  UNL     1       7.271   8.746  27.393  0.00  0.00    -0.244 NA
ATOM     16  C12 UNL     1       7.709   9.442  26.313  0.00  0.00    +0.221 A 
ATOM     17  N4  UNL     1       8.191  10.703  26.466  0.00  0.00    -0.231 NA
ENDBRANCH  10  12
ENDBRANCH   6   8
BRANCH   1  19
ATOM     18  C1  UNL     1      11.836  11.423  32.817  0.00  0.00    +0.022 C 
ATOM     19  C2  UNL     1      12.111  12.923  32.971  0.00  0.00    +0.102 C 
BRANCH  19  20
ATOM     20  C14 UNL     1      12.815  13.247  34.279  0.00  0.00    -0.036 A 
ATOM     21  C15 UNL     1      13.244  12.231  35.157  0.00  0.00    +0.004 A 
ATOM     22  C16 UNL     1      13.908  12.554  36.344  0.00  0.00    +0.000 A 
ATOM     23  C17 UNL     1      14.161  13.889  36.665  0.00  0.00    +0.000 A 
ATOM     24  C18 UNL     1      13.755  14.905  35.798  0.00  0.00    +0.000 A 
ATOM     25  C19 UNL     1      13.090  14.588  34.609  0.00  0.00    +0.004 A 
ENDBRANCH  19  20
ENDBRANCH   1  19
TORSDOF 4
ENDMDL
MODEL 9
REMARK VINA RESULT:    -5.692     13.060     14.885
REMARK INTER + INTRA:          -7.805
REMARK INTER:                  -6.998
REMARK INTRA:                  -0.807
REMARK UNBOUND:                -0.782
REMARK  Name = /home/qwerty/github/datacon2025hack/step_04_hit_selection/docking/ligands/lig_630.pdb
REMARK  6 active torsions:
REMARK  status: ('A' for Active; 'I' for Inactive)
REMARK    1  A    between atoms: C1_1  and  C2_2
REMARK    2  A    between atoms: C2_2  and  C3_3
REMARK    3  A    between atoms: C2_2  and  C14_20
REMARK    4  A    between atoms: C6_8  and  N2_9
REMARK    5  A    between atoms: N2_9  and  C7_10
REMARK    6  A    between atoms: C8_11  and  C9_13
REMARK                            x       y       z     vdW  Elec       q    Type
REMARK                         _______ _______ _______ _____ _____    ______ ____
ROOT
ATOM      1  C3  UNL     1      11.615  13.097  29.664  0.00  0.00    +0.223 C 
ATOM      2  O1  UNL     1      12.352  13.963  29.116  0.00  0.00    -0.275 OA
ATOM      3  N1  UNL     1      10.275  12.904  29.170  0.00  0.00    -0.299 N 
ATOM      4  C4  UNL     1       9.722  13.708  28.094  0.00  0.00    +0.109 C 
ATOM      5  C5  UNL     1       8.290  13.227  27.894  0.00  0.00    +0.043 C 
ATOM      6  C6  UNL     1       8.139  11.943  28.723  0.00  0.00    +0.095 C 
ATOM      7  C13 UNL     1       9.356  11.886  29.652  0.00  0.00    +0.130 C 
ENDROOT
BRANCH   6   8
ATOM      8  N2  UNL     1       8.051  10.751  27.854  0.00  0.00    -0.295 N 
ATOM      9  C7  UNL     1       8.279  10.852  26.404  0.00  0.00    +0.132 C 
ATOM     10  C8  UNL     1       7.475   9.540  28.389  0.00  0.00    +0.265 C 
ATOM     11  O2  UNL     1       6.578   9.622  29.272  0.00  0.00    -0.268 OA
BRANCH  10  12
ATOM     12  C9  UNL     1       7.919   8.202  27.935  0.00  0.00    +0.129 A 
ATOM     13  C10 UNL     1       7.086   7.397  27.145  0.00  0.00    +0.053 A 
ATOM     14  C11 UNL     1       7.541   6.137  26.761  0.00  0.00    +0.115 A 
ATOM     15  N3  UNL     1       8.767   5.707  27.158  0.00  0.00    -0.244 NA
ATOM     16  C12 UNL     1       9.562   6.492  27.929  0.00  0.00    +0.221 A 
ATOM     17  N4  UNL     1       9.135   7.724  28.313  0.00  0.00    -0.231 NA
ENDBRANCH  10  12
ENDBRANCH   6   8
BRANCH   1  19
ATOM     18  C1  UNL     1      13.710  12.155  30.656  0.00  0.00    +0.022 C 
ATOM     19  C2  UNL     1      12.184  12.243  30.778  0.00  0.00    +0.102 C 
BRANCH  19  20
ATOM     20  C14 UNL     1      11.745  12.751  32.142  0.00  0.00    -0.036 A 
ATOM     21  C15 UNL     1      11.348  14.090  32.338  0.00  0.00    +0.004 A 
ATOM     22  C16 UNL     1      10.928  14.528  33.597  0.00  0.00    +0.000 A 
ATOM     23  C17 UNL     1      10.889  13.637  34.672  0.00  0.00    +0.000 A 
ATOM     24  C18 UNL     1      11.266  12.305  34.489  0.00  0.00    +0.000 A 
ATOM     25  C19 UNL     1      11.687  11.861  33.232  0.00  0.00    +0.004 A 
ENDBRANCH  19  20
ENDBRANCH   1  19
TORSDOF 4
ENDMDL
