MODEL 1
REMARK VINA RESULT:    -5.600      0.000      0.000
REMARK INTER + INTRA:          -7.508
REMARK INTER:                  -6.909
REMARK INTRA:                  -0.598
REMARK UNBOUND:                -0.598
REMARK  Name = /home/qwerty/github/datacon2025hack/step_04_hit_selection/docking/ligands/lig_756.pdb
REMARK  7 active torsions:
REMARK  status: ('A' for Active; 'I' for Inactive)
REMARK    1  A    between atoms: C1_1  and  O1_2
REMARK    2  A    between atoms: O1_2  and  C2_3
REMARK    3  A    between atoms: C4_5  and  N1_6
REMARK    4  A    between atoms: C8_12  and  C9_13
REMARK    5  A    between atoms: N4_17  and  C12_18
REMARK    6  A    between atoms: C15_21  and  O3_22
REMARK    7  A    between atoms: O3_22  and  C16_23
REMARK                            x       y       z     vdW  Elec       q    Type
REMARK                         _______ _______ _______ _____ _____    ______ ____
ROOT
ATOM      1  N1  UNL     1      12.019   2.556  21.043  0.00  0.00    -0.269 N 
ATOM      2  C5  UNL     1      13.161   2.594  21.916  0.00  0.00    +0.306 C 
ATOM      3  O2  UNL     1      13.133   3.304  22.958  0.00  0.00    -0.252 OA
ATOM      4  N2  UNL     1      14.327   1.801  21.633  0.00  0.00    -0.285 N 
ATOM      5  C6  UNL     1      14.479   0.982  20.443  0.00  0.00    +0.110 C 
ATOM      6  C7  UNL     1      15.890   0.406  20.496  0.00  0.00    +0.032 C 
ATOM      7  C8  UNL     1      16.488   0.821  21.849  0.00  0.00    +0.074 C 
ATOM      8  C13 UNL     1      15.489   1.780  22.502  0.00  0.00    +0.120 C 
ATOM      9  H5  UNL     1      11.906   1.735  20.408  0.00  0.00    +0.156 HD
ENDROOT
BRANCH   1  12
ATOM     10  C2  UNL     1       8.733   4.213  21.841  0.00  0.00    +0.139 A 
ATOM     11  C3  UNL     1       9.763   3.255  21.792  0.00  0.00    +0.070 A 
ATOM     12  C4  UNL     1      10.948   3.516  21.085  0.00  0.00    +0.042 A 
ATOM     13  C14 UNL     1      11.115   4.757  20.458  0.00  0.00    +0.070 A 
ATOM     14  C15 UNL     1      10.094   5.725  20.498  0.00  0.00    +0.139 A 
ATOM     15  C17 UNL     1       8.904   5.442  21.186  0.00  0.00    +0.101 A 
ATOM     16 BR1  UNL     1       7.506   6.754  21.245  0.00  0.00    -0.043 Br
BRANCH  10  18
ATOM     17  C1  UNL     1       7.445   3.635  23.910  0.00  0.00    +0.277 C 
ATOM     18  O1  UNL     1       7.532   3.979  22.531  0.00  0.00    -0.494 OA
ENDBRANCH  10  18
BRANCH  14  19
ATOM     19  O3  UNL     1      10.227   6.973  19.867  0.00  0.00    -0.494 OA
ATOM     20  C16 UNL     1      11.015   8.050  20.364  0.00  0.00    +0.277 C 
ENDBRANCH  14  19
ENDBRANCH   1  12
BRANCH   7  21
ATOM     21  C9  UNL     1      16.832  -0.360  22.734  0.00  0.00    +0.114 A 
ATOM     22  N3  UNL     1      16.199  -1.547  22.604  0.00  0.00    -0.240 NA
ATOM     23  C10 UNL     1      16.757  -2.334  23.545  0.00  0.00    +0.130 A 
ATOM     24  C11 UNL     1      17.714  -1.623  24.230  0.00  0.00    +0.106 A 
ATOM     25  N4  UNL     1      17.771  -0.384  23.713  0.00  0.00    -0.337 N 
ATOM     26  C12 UNL     1      18.622   0.697  24.210  0.00  0.00    +0.150 C 
ENDBRANCH   7  21
TORSDOF 4
ENDMDL
MODEL 2
REMARK VINA RESULT:    -5.586      8.647     10.777
REMARK INTER + INTRA:          -7.490
REMARK INTER:                  -6.884
REMARK INTRA:                  -0.606
REMARK UNBOUND:                -0.598
REMARK  Name = /home/qwerty/github/datacon2025hack/step_04_hit_selection/docking/ligands/lig_756.pdb
REMARK  7 active torsions:
REMARK  status: ('A' for Active; 'I' for Inactive)
REMARK    1  A    between atoms: C1_1  and  O1_2
REMARK    2  A    between atoms: O1_2  and  C2_3
REMARK    3  A    between atoms: C4_5  and  N1_6
REMARK    4  A    between atoms: C8_12  and  C9_13
REMARK    5  A    between atoms: N4_17  and  C12_18
REMARK    6  A    between atoms: C15_21  and  O3_22
REMARK    7  A    between atoms: O3_22  and  C16_23
REMARK                            x       y       z     vdW  Elec       q    Type
REMARK                         _______ _______ _______ _____ _____    ______ ____
ROOT
ATOM      1  N1  UNL     1      21.874   4.788  23.498  0.00  0.00    -0.269 N 
ATOM      2  C5  UNL     1      21.386   5.096  24.815  0.00  0.00    +0.306 C 
ATOM      3  O2  UNL     1      20.660   6.112  24.996  0.00  0.00    -0.252 OA
ATOM      4  N2  UNL     1      21.686   4.237  25.929  0.00  0.00    -0.285 N 
ATOM      5  C6  UNL     1      22.543   3.067  25.840  0.00  0.00    +0.110 C 
ATOM      6  C7  UNL     1      22.671   2.520  27.258  0.00  0.00    +0.032 C 
ATOM      7  C8  UNL     1      21.728   3.353  28.141  0.00  0.00    +0.074 C 
ATOM      8  C13 UNL     1      21.187   4.489  27.269  0.00  0.00    +0.120 C 
ATOM      9  H5  UNL     1      22.156   3.804  23.292  0.00  0.00    +0.156 HD
ENDROOT
BRANCH   1  12
ATOM     10  C2  UNL     1      22.884   7.576  21.178  0.00  0.00    +0.139 A 
ATOM     11  C3  UNL     1      22.889   6.681  22.264  0.00  0.00    +0.070 A 
ATOM     12  C4  UNL     1      21.871   5.724  22.406  0.00  0.00    +0.042 A 
ATOM     13  C14 UNL     1      20.868   5.640  21.433  0.00  0.00    +0.070 A 
ATOM     14  C15 UNL     1      20.849   6.528  20.342  0.00  0.00    +0.139 A 
ATOM     15  C17 UNL     1      21.858   7.496  20.225  0.00  0.00    +0.101 A 
ATOM     16 BR1  UNL     1      21.840   8.713  18.742  0.00  0.00    -0.043 Br
BRANCH  10  18
ATOM     17  C1  UNL     1      25.280   8.283  20.995  0.00  0.00    +0.277 C 
ATOM     18  O1  UNL     1      23.882   8.551  21.014  0.00  0.00    -0.494 OA
ENDBRANCH  10  18
BRANCH  14  19
ATOM     19  O3  UNL     1      19.847   6.477  19.358  0.00  0.00    -0.494 OA
ATOM     20  C16 UNL     1      18.450   6.434  19.630  0.00  0.00    +0.277 C 
ENDBRANCH  14  19
ENDBRANCH   1  12
BRANCH   7  21
ATOM     21  C9  UNL     1      20.628   2.528  28.778  0.00  0.00    +0.114 A 
ATOM     22  N3  UNL     1      19.415   2.398  28.194  0.00  0.00    -0.240 NA
ATOM     23  C10 UNL     1      18.715   1.615  29.038  0.00  0.00    +0.130 A 
ATOM     24  C11 UNL     1      19.502   1.280  30.114  0.00  0.00    +0.106 A 
ATOM     25  N4  UNL     1      20.710   1.844  29.947  0.00  0.00    -0.337 N 
ATOM     26  C12 UNL     1      21.811   1.775  30.906  0.00  0.00    +0.150 C 
ENDBRANCH   7  21
TORSDOF 4
ENDMDL
MODEL 3
REMARK VINA RESULT:    -5.495      8.768     10.570
REMARK INTER + INTRA:          -7.378
REMARK INTER:                  -6.771
REMARK INTRA:                  -0.607
REMARK UNBOUND:                -0.598
REMARK  Name = /home/qwerty/github/datacon2025hack/step_04_hit_selection/docking/ligands/lig_756.pdb
REMARK  7 active torsions:
REMARK  status: ('A' for Active; 'I' for Inactive)
REMARK    1  A    between atoms: C1_1  and  O1_2
REMARK    2  A    between atoms: O1_2  and  C2_3
REMARK    3  A    between atoms: C4_5  and  N1_6
REMARK    4  A    between atoms: C8_12  and  C9_13
REMARK    5  A    between atoms: N4_17  and  C12_18
REMARK    6  A    between atoms: C15_21  and  O3_22
REMARK    7  A    between atoms: O3_22  and  C16_23
REMARK                            x       y       z     vdW  Elec       q    Type
REMARK                         _______ _______ _______ _____ _____    ______ ____
ROOT
ATOM      1  N1  UNL     1      21.799   4.797  23.378  0.00  0.00    -0.269 N 
ATOM      2  C5  UNL     1      21.350   5.126  24.703  0.00  0.00    +0.306 C 
ATOM      3  O2  UNL     1      20.664   6.167  24.896  0.00  0.00    -0.252 OA
ATOM      4  N2  UNL     1      21.644   4.259  25.814  0.00  0.00    -0.285 N 
ATOM      5  C6  UNL     1      22.457   3.060  25.710  0.00  0.00    +0.110 C 
ATOM      6  C7  UNL     1      22.596   2.513  27.127  0.00  0.00    +0.032 C 
ATOM      7  C8  UNL     1      21.702   3.380  28.027  0.00  0.00    +0.074 C 
ATOM      8  C13 UNL     1      21.183   4.532  27.163  0.00  0.00    +0.120 C 
ATOM      9  H5  UNL     1      22.042   3.804  23.168  0.00  0.00    +0.156 HD
ENDROOT
BRANCH   1  12
ATOM     10  C2  UNL     1      20.770   6.692  20.290  0.00  0.00    +0.139 A 
ATOM     11  C3  UNL     1      20.760   5.760  21.345  0.00  0.00    +0.070 A 
ATOM     12  C4  UNL     1      21.806   5.729  22.282  0.00  0.00    +0.042 A 
ATOM     13  C14 UNL     1      22.845   6.662  22.181  0.00  0.00    +0.070 A 
ATOM     14  C15 UNL     1      22.870   7.599  21.132  0.00  0.00    +0.139 A 
ATOM     15  C17 UNL     1      21.832   7.603  20.188  0.00  0.00    +0.101 A 
ATOM     16 BR1  UNL     1      21.857   8.876  18.753  0.00  0.00    -0.043 Br
BRANCH  10  18
ATOM     17  C1  UNL     1      18.426   7.218  19.581  0.00  0.00    +0.277 C 
ATOM     18  O1  UNL     1      19.744   6.741  19.332  0.00  0.00    -0.494 OA
ENDBRANCH  10  18
BRANCH  14  19
ATOM     19  O3  UNL     1      23.907   8.538  20.997  0.00  0.00    -0.494 OA
ATOM     20  C16 UNL     1      25.294   8.215  21.003  0.00  0.00    +0.277 C 
ENDBRANCH  14  19
ENDBRANCH   1  12
BRANCH   7  21
ATOM     21  C9  UNL     1      20.588   2.595  28.689  0.00  0.00    +0.114 A 
ATOM     22  N3  UNL     1      19.355   2.521  28.141  0.00  0.00    -0.240 NA
ATOM     23  C10 UNL     1      18.647   1.760  29.000  0.00  0.00    +0.130 A 
ATOM     24  C11 UNL     1      19.451   1.383  30.049  0.00  0.00    +0.106 A 
ATOM     25  N4  UNL     1      20.676   1.898  29.850  0.00  0.00    -0.337 N 
ATOM     26  C12 UNL     1      21.801   1.776  30.776  0.00  0.00    +0.150 C 
ENDBRANCH   7  21
TORSDOF 4
ENDMDL
MODEL 4
REMARK VINA RESULT:    -5.337      9.440     11.832
REMARK INTER + INTRA:          -7.183
REMARK INTER:                  -6.643
REMARK INTRA:                  -0.540
REMARK UNBOUND:                -0.598
REMARK  Name = /home/qwerty/github/datacon2025hack/step_04_hit_selection/docking/ligands/lig_756.pdb
REMARK  7 active torsions:
REMARK  status: ('A' for Active; 'I' for Inactive)
REMARK    1  A    between atoms: C1_1  and  O1_2
REMARK    2  A    between atoms: O1_2  and  C2_3
REMARK    3  A    between atoms: C4_5  and  N1_6
REMARK    4  A    between atoms: C8_12  and  C9_13
REMARK    5  A    between atoms: N4_17  and  C12_18
REMARK    6  A    between atoms: C15_21  and  O3_22
REMARK    7  A    between atoms: O3_22  and  C16_23
REMARK                            x       y       z     vdW  Elec       q    Type
REMARK                         _______ _______ _______ _____ _____    ______ ____
ROOT
ATOM      1  N1  UNL     1      21.164   2.837  25.683  0.00  0.00    -0.269 N 
ATOM      2  C5  UNL     1      21.213   4.231  25.335  0.00  0.00    +0.306 C 
ATOM      3  O2  UNL     1      21.434   5.096  26.227  0.00  0.00    -0.252 OA
ATOM      4  N2  UNL     1      21.049   4.653  23.969  0.00  0.00    -0.285 N 
ATOM      5  C6  UNL     1      20.752   3.747  22.873  0.00  0.00    +0.110 C 
ATOM      6  C7  UNL     1      20.559   4.618  21.637  0.00  0.00    +0.032 C 
ATOM      7  C8  UNL     1      20.902   6.058  22.051  0.00  0.00    +0.074 C 
ATOM      8  C13 UNL     1      21.125   6.045  23.566  0.00  0.00    +0.120 C 
ATOM      9  H5  UNL     1      21.334   2.132  24.932  0.00  0.00    +0.156 HD
ENDROOT
BRANCH   1  12
ATOM     10  C2  UNL     1      19.643   1.673  28.925  0.00  0.00    +0.139 A 
ATOM     11  C3  UNL     1      19.762   2.166  27.612  0.00  0.00    +0.070 A 
ATOM     12  C4  UNL     1      21.027   2.354  27.031  0.00  0.00    +0.042 A 
ATOM     13  C14 UNL     1      22.173   2.011  27.758  0.00  0.00    +0.070 A 
ATOM     14  C15 UNL     1      22.071   1.518  29.071  0.00  0.00    +0.139 A 
ATOM     15  C17 UNL     1      20.803   1.357  29.649  0.00  0.00    +0.101 A 
ATOM     16 BR1  UNL     1      20.652   0.687  31.440  0.00  0.00    -0.043 Br
BRANCH  10  18
ATOM     17  C1  UNL     1      17.470   2.525  29.835  0.00  0.00    +0.277 C 
ATOM     18  O1  UNL     1      18.393   1.482  29.537  0.00  0.00    -0.494 OA
ENDBRANCH  10  18
BRANCH  14  19
ATOM     19  O3  UNL     1      23.205   1.179  29.829  0.00  0.00    -0.494 OA
ATOM     20  C16 UNL     1      24.406   0.638  29.288  0.00  0.00    +0.277 C 
ENDBRANCH  14  19
ENDBRANCH   1  12
BRANCH   7  21
ATOM     21  C9  UNL     1      22.080   6.630  21.289  0.00  0.00    +0.114 A 
ATOM     22  N3  UNL     1      23.279   6.823  21.884  0.00  0.00    -0.240 NA
ATOM     23  C10 UNL     1      24.059   7.341  20.915  0.00  0.00    +0.130 A 
ATOM     24  C11 UNL     1      23.334   7.455  19.753  0.00  0.00    +0.106 A 
ATOM     25  N4  UNL     1      22.091   6.998  19.983  0.00  0.00    -0.337 N 
ATOM     26  C12 UNL     1      20.998   7.008  19.013  0.00  0.00    +0.150 C 
ENDBRANCH   7  21
TORSDOF 4
ENDMDL
MODEL 5
REMARK VINA RESULT:    -5.311     15.176     16.644
REMARK INTER + INTRA:          -7.152
REMARK INTER:                  -6.615
REMARK INTRA:                  -0.536
REMARK UNBOUND:                -0.598
REMARK  Name = /home/qwerty/github/datacon2025hack/step_04_hit_selection/docking/ligands/lig_756.pdb
REMARK  7 active torsions:
REMARK  status: ('A' for Active; 'I' for Inactive)
REMARK    1  A    between atoms: C1_1  and  O1_2
REMARK    2  A    between atoms: O1_2  and  C2_3
REMARK    3  A    between atoms: C4_5  and  N1_6
REMARK    4  A    between atoms: C8_12  and  C9_13
REMARK    5  A    between atoms: N4_17  and  C12_18
REMARK    6  A    between atoms: C15_21  and  O3_22
REMARK    7  A    between atoms: O3_22  and  C16_23
REMARK                            x       y       z     vdW  Elec       q    Type
REMARK                         _______ _______ _______ _____ _____    ______ ____
ROOT
ATOM      1  N1  UNL     1      16.484   9.828  37.074  0.00  0.00    -0.269 N 
ATOM      2  C5  UNL     1      17.184   9.127  36.033  0.00  0.00    +0.306 C 
ATOM      3  O2  UNL     1      17.004   9.449  34.826  0.00  0.00    -0.252 OA
ATOM      4  N2  UNL     1      18.120   8.082  36.352  0.00  0.00    -0.285 N 
ATOM      5  C6  UNL     1      18.373   7.608  37.701  0.00  0.00    +0.110 C 
ATOM      6  C7  UNL     1      19.343   6.438  37.570  0.00  0.00    +0.032 C 
ATOM      7  C8  UNL     1      19.745   6.360  36.089  0.00  0.00    +0.074 C 
ATOM      8  C13 UNL     1      18.875   7.371  35.336  0.00  0.00    +0.120 C 
ATOM      9  H5  UNL     1      16.882   9.810  38.039  0.00  0.00    +0.156 HD
ENDROOT
BRANCH   1  12
ATOM     10  C2  UNL     1      14.279  12.865  36.773  0.00  0.00    +0.139 A 
ATOM     11  C3  UNL     1      15.403  12.057  37.023  0.00  0.00    +0.070 A 
ATOM     12  C4  UNL     1      15.337  10.665  36.844  0.00  0.00    +0.042 A 
ATOM     13  C14 UNL     1      14.149  10.089  36.376  0.00  0.00    +0.070 A 
ATOM     14  C15 UNL     1      13.016  10.883  36.122  0.00  0.00    +0.139 A 
ATOM     15  C17 UNL     1      13.088  12.270  36.329  0.00  0.00    +0.101 A 
ATOM     16 BR1  UNL     1      11.549  13.362  35.988  0.00  0.00    -0.043 Br
BRANCH  10  18
ATOM     17  C1  UNL     1      15.253  15.131  36.339  0.00  0.00    +0.277 C 
ATOM     18  O1  UNL     1      14.310  14.258  36.952  0.00  0.00    -0.494 OA
ENDBRANCH  10  18
BRANCH  14  19
ATOM     19  O3  UNL     1      11.808  10.332  35.666  0.00  0.00    -0.494 OA
ATOM     20  C16 UNL     1      10.919   9.560  36.468  0.00  0.00    +0.277 C 
ENDBRANCH  14  19
ENDBRANCH   1  12
BRANCH   7  21
ATOM     21  C9  UNL     1      21.227   6.578  35.863  0.00  0.00    +0.114 A 
ATOM     22  N3  UNL     1      21.927   7.475  36.592  0.00  0.00    -0.240 NA
ATOM     23  C10 UNL     1      23.184   7.395  36.112  0.00  0.00    +0.130 A 
ATOM     24  C11 UNL     1      23.233   6.459  35.106  0.00  0.00    +0.106 A 
ATOM     25  N4  UNL     1      22.005   5.936  34.955  0.00  0.00    -0.337 N 
ATOM     26  C12 UNL     1      21.629   4.951  33.942  0.00  0.00    +0.150 C 
ENDBRANCH   7  21
TORSDOF 4
ENDMDL
MODEL 6
REMARK VINA RESULT:    -5.283     15.801     18.555
REMARK INTER + INTRA:          -7.117
REMARK INTER:                  -6.550
REMARK INTRA:                  -0.567
REMARK UNBOUND:                -0.598
REMARK  Name = /home/qwerty/github/datacon2025hack/step_04_hit_selection/docking/ligands/lig_756.pdb
REMARK  7 active torsions:
REMARK  status: ('A' for Active; 'I' for Inactive)
REMARK    1  A    between atoms: C1_1  and  O1_2
REMARK    2  A    between atoms: O1_2  and  C2_3
REMARK    3  A    between atoms: C4_5  and  N1_6
REMARK    4  A    between atoms: C8_12  and  C9_13
REMARK    5  A    between atoms: N4_17  and  C12_18
REMARK    6  A    between atoms: C15_21  and  O3_22
REMARK    7  A    between atoms: O3_22  and  C16_23
REMARK                            x       y       z     vdW  Elec       q    Type
REMARK                         _______ _______ _______ _____ _____    ______ ____
ROOT
ATOM      1  N1  UNL     1      20.507  10.731  34.617  0.00  0.00    -0.269 N 
ATOM      2  C5  UNL     1      19.153  10.711  34.134  0.00  0.00    +0.306 C 
ATOM      3  O2  UNL     1      18.676   9.651  33.642  0.00  0.00    -0.252 OA
ATOM      4  N2  UNL     1      18.319  11.878  34.237  0.00  0.00    -0.285 N 
ATOM      5  C6  UNL     1      18.779  13.158  34.748  0.00  0.00    +0.110 C 
ATOM      6  C7  UNL     1      17.615  14.129  34.582  0.00  0.00    +0.032 C 
ATOM      7  C8  UNL     1      16.418  13.306  34.081  0.00  0.00    +0.074 C 
ATOM      8  C13 UNL     1      16.937  11.894  33.794  0.00  0.00    +0.120 C 
ATOM      9  H5  UNL     1      20.773  11.459  35.317  0.00  0.00    +0.156 HD
ENDROOT
BRANCH   1  12
ATOM     10  C2  UNL     1      23.036   8.681  32.726  0.00  0.00    +0.139 A 
ATOM     11  C3  UNL     1      22.064   9.656  33.019  0.00  0.00    +0.070 A 
ATOM     12  C4  UNL     1      21.486   9.727  34.297  0.00  0.00    +0.042 A 
ATOM     13  C14 UNL     1      21.912   8.841  35.293  0.00  0.00    +0.070 A 
ATOM     14  C15 UNL     1      22.882   7.860  35.017  0.00  0.00    +0.139 A 
ATOM     15  C17 UNL     1      23.435   7.784  33.729  0.00  0.00    +0.101 A 
ATOM     16 BR1  UNL     1      24.757   6.449  33.340  0.00  0.00    -0.043 Br
BRANCH  10  18
ATOM     17  C1  UNL     1      23.998   9.686  30.643  0.00  0.00    +0.277 C 
ATOM     18  O1  UNL     1      23.627   8.577  31.456  0.00  0.00    -0.494 OA
ENDBRANCH  10  18
BRANCH  14  19
ATOM     19  O3  UNL     1      23.318   6.949  35.993  0.00  0.00    -0.494 OA
ATOM     20  C16 UNL     1      22.751   6.824  37.292  0.00  0.00    +0.277 C 
ENDBRANCH  14  19
ENDBRANCH   1  12
BRANCH   7  21
ATOM     21  C9  UNL     1      15.247  13.316  35.042  0.00  0.00    +0.114 A 
ATOM     22  N3  UNL     1      15.421  13.123  36.369  0.00  0.00    -0.240 NA
ATOM     23  C10 UNL     1      14.179  13.192  36.888  0.00  0.00    +0.130 A 
ATOM     24  C11 UNL     1      13.273  13.425  35.881  0.00  0.00    +0.106 A 
ATOM     25  N4  UNL     1      13.944  13.515  34.720  0.00  0.00    -0.337 N 
ATOM     26  C12 UNL     1      13.330  13.695  33.405  0.00  0.00    +0.150 C 
ENDBRANCH   7  21
TORSDOF 4
ENDMDL
MODEL 7
REMARK VINA RESULT:    -5.278     16.071     18.926
REMARK INTER + INTRA:          -7.110
REMARK INTER:                  -6.676
REMARK INTRA:                  -0.434
REMARK UNBOUND:                -0.598
REMARK  Name = /home/qwerty/github/datacon2025hack/step_04_hit_selection/docking/ligands/lig_756.pdb
REMARK  7 active torsions:
REMARK  status: ('A' for Active; 'I' for Inactive)
REMARK    1  A    between atoms: C1_1  and  O1_2
REMARK    2  A    between atoms: O1_2  and  C2_3
REMARK    3  A    between atoms: C4_5  and  N1_6
REMARK    4  A    between atoms: C8_12  and  C9_13
REMARK    5  A    between atoms: N4_17  and  C12_18
REMARK    6  A    between atoms: C15_21  and  O3_22
REMARK    7  A    between atoms: O3_22  and  C16_23
REMARK                            x       y       z     vdW  Elec       q    Type
REMARK                         _______ _______ _______ _____ _____    ______ ____
ROOT
ATOM      1  N1  UNL     1      19.354   9.372  35.236  0.00  0.00    -0.269 N 
ATOM      2  C5  UNL     1      19.077  10.782  35.283  0.00  0.00    +0.306 C 
ATOM      3  O2  UNL     1      19.815  11.590  34.655  0.00  0.00    -0.252 OA
ATOM      4  N2  UNL     1      17.941  11.283  36.011  0.00  0.00    -0.285 N 
ATOM      5  C6  UNL     1      17.053  10.446  36.799  0.00  0.00    +0.110 C 
ATOM      6  C7  UNL     1      16.064  11.390  37.476  0.00  0.00    +0.032 C 
ATOM      7  C8  UNL     1      16.343  12.795  36.922  0.00  0.00    +0.074 C 
ATOM      8  C13 UNL     1      17.602  12.693  36.058  0.00  0.00    +0.120 C 
ATOM      9  H5  UNL     1      18.577   8.706  35.444  0.00  0.00    +0.156 HD
ENDROOT
BRANCH   1  12
ATOM     10  C2  UNL     1      22.227   8.358  33.023  0.00  0.00    +0.139 A 
ATOM     11  C3  UNL     1      20.991   8.887  33.441  0.00  0.00    +0.070 A 
ATOM     12  C4  UNL     1      20.604   8.817  34.790  0.00  0.00    +0.042 A 
ATOM     13  C14 UNL     1      21.477   8.250  35.726  0.00  0.00    +0.070 A 
ATOM     14  C15 UNL     1      22.715   7.716  35.324  0.00  0.00    +0.139 A 
ATOM     15  C17 UNL     1      23.079   7.770  33.970  0.00  0.00    +0.101 A 
ATOM     16 BR1  UNL     1      24.764   7.044  33.410  0.00  0.00    -0.043 Br
BRANCH  10  18
ATOM     17  C1  UNL     1      23.140   9.564  31.027  0.00  0.00    +0.277 C 
ATOM     18  O1  UNL     1      22.639   8.403  31.681  0.00  0.00    -0.494 OA
ENDBRANCH  10  18
BRANCH  14  19
ATOM     19  O3  UNL     1      23.604   7.128  36.238  0.00  0.00    -0.494 OA
ATOM     20  C16 UNL     1      23.224   6.577  37.495  0.00  0.00    +0.277 C 
ENDBRANCH  14  19
ENDBRANCH   1  12
BRANCH   7  21
ATOM     21  C9  UNL     1      15.164  13.383  36.174  0.00  0.00    +0.114 A 
ATOM     22  N3  UNL     1      14.363  12.614  35.402  0.00  0.00    -0.240 NA
ATOM     23  C10 UNL     1      13.449  13.470  34.903  0.00  0.00    +0.130 A 
ATOM     24  C11 UNL     1      13.701  14.737  35.373  0.00  0.00    +0.106 A 
ATOM     25  N4  UNL     1      14.773  14.683  36.182  0.00  0.00    -0.337 N 
ATOM     26  C12 UNL     1      15.396  15.835  36.831  0.00  0.00    +0.150 C 
ENDBRANCH   7  21
TORSDOF 4
ENDMDL
MODEL 8
REMARK VINA RESULT:    -5.267     16.027     18.382
REMARK INTER + INTRA:          -7.097
REMARK INTER:                  -6.540
REMARK INTRA:                  -0.557
REMARK UNBOUND:                -0.598
REMARK  Name = /home/qwerty/github/datacon2025hack/step_04_hit_selection/docking/ligands/lig_756.pdb
REMARK  7 active torsions:
REMARK  status: ('A' for Active; 'I' for Inactive)
REMARK    1  A    between atoms: C1_1  and  O1_2
REMARK    2  A    between atoms: O1_2  and  C2_3
REMARK    3  A    between atoms: C4_5  and  N1_6
REMARK    4  A    between atoms: C8_12  and  C9_13
REMARK    5  A    between atoms: N4_17  and  C12_18
REMARK    6  A    between atoms: C15_21  and  O3_22
REMARK    7  A    between atoms: O3_22  and  C16_23
REMARK                            x       y       z     vdW  Elec       q    Type
REMARK                         _______ _______ _______ _____ _____    ______ ____
ROOT
ATOM      1  N1  UNL     1      20.371  10.581  34.816  0.00  0.00    -0.269 N 
ATOM      2  C5  UNL     1      19.021  10.432  34.342  0.00  0.00    +0.306 C 
ATOM      3  O2  UNL     1      18.648   9.338  33.837  0.00  0.00    -0.252 OA
ATOM      4  N2  UNL     1      18.076  11.509  34.470  0.00  0.00    -0.285 N 
ATOM      5  C6  UNL     1      18.411  12.820  34.999  0.00  0.00    +0.110 C 
ATOM      6  C7  UNL     1      17.154  13.673  34.857  0.00  0.00    +0.032 C 
ATOM      7  C8  UNL     1      16.041  12.742  34.353  0.00  0.00    +0.074 C 
ATOM      8  C13 UNL     1      16.695  11.394  34.038  0.00  0.00    +0.120 C 
ATOM      9  H5  UNL     1      20.569  11.320  35.526  0.00  0.00    +0.156 HD
ENDROOT
BRANCH   1  12
ATOM     10  C2  UNL     1      22.993   7.889  35.049  0.00  0.00    +0.139 A 
ATOM     11  C3  UNL     1      21.959   8.774  35.407  0.00  0.00    +0.070 A 
ATOM     12  C4  UNL     1      21.442   9.684  34.471  0.00  0.00    +0.042 A 
ATOM     13  C14 UNL     1      21.939   9.680  33.162  0.00  0.00    +0.070 A 
ATOM     14  C15 UNL     1      22.973   8.802  32.789  0.00  0.00    +0.139 A 
ATOM     15  C17 UNL     1      23.498   7.913  33.740  0.00  0.00    +0.101 A 
ATOM     16 BR1  UNL     1      24.909   6.713  33.243  0.00  0.00    -0.043 Br
BRANCH  10  18
ATOM     17  C1  UNL     1      23.010   6.713  37.261  0.00  0.00    +0.277 C 
ATOM     18  O1  UNL     1      23.538   6.972  35.965  0.00  0.00    -0.494 OA
ENDBRANCH  10  18
BRANCH  14  19
ATOM     19  O3  UNL     1      23.501   8.784  31.488  0.00  0.00    -0.494 OA
ATOM     20  C16 UNL     1      24.125   9.897  30.854  0.00  0.00    +0.277 C 
ENDBRANCH  14  19
ENDBRANCH   1  12
BRANCH   7  21
ATOM     21  C9  UNL     1      14.883  12.621  35.322  0.00  0.00    +0.114 A 
ATOM     22  N3  UNL     1      14.898  11.719  36.330  0.00  0.00    -0.240 NA
ATOM     23  C10 UNL     1      13.722  11.898  36.963  0.00  0.00    +0.130 A 
ATOM     24  C11 UNL     1      13.012  12.896  36.340  0.00  0.00    +0.106 A 
ATOM     25  N4  UNL     1      13.746  13.361  35.314  0.00  0.00    -0.337 N 
ATOM     26  C12 UNL     1      13.314  14.386  34.366  0.00  0.00    +0.150 C 
ENDBRANCH   7  21
TORSDOF 4
ENDMDL
MODEL 9
REMARK VINA RESULT:    -5.261      9.444     10.927
REMARK INTER + INTRA:          -7.089
REMARK INTER:                  -6.714
REMARK INTRA:                  -0.375
REMARK UNBOUND:                -0.598
REMARK  Name = /home/qwerty/github/datacon2025hack/step_04_hit_selection/docking/ligands/lig_756.pdb
REMARK  7 active torsions:
REMARK  status: ('A' for Active; 'I' for Inactive)
REMARK    1  A    between atoms: C1_1  and  O1_2
REMARK    2  A    between atoms: O1_2  and  C2_3
REMARK    3  A    between atoms: C4_5  and  N1_6
REMARK    4  A    between atoms: C8_12  and  C9_13
REMARK    5  A    between atoms: N4_17  and  C12_18
REMARK    6  A    between atoms: C15_21  and  O3_22
REMARK    7  A    between atoms: O3_22  and  C16_23
REMARK                            x       y       z     vdW  Elec       q    Type
REMARK                         _______ _______ _______ _____ _____    ______ ____
ROOT
ATOM      1  N1  UNL     1      21.105   5.352  23.880  0.00  0.00    -0.269 N 
ATOM      2  C5  UNL     1      22.004   4.843  24.880  0.00  0.00    +0.306 C 
ATOM      3  O2  UNL     1      23.043   5.491  25.181  0.00  0.00    -0.252 OA
ATOM      4  N2  UNL     1      21.713   3.615  25.571  0.00  0.00    -0.285 N 
ATOM      5  C6  UNL     1      20.568   2.771  25.275  0.00  0.00    +0.110 C 
ATOM      6  C7  UNL     1      20.705   1.537  26.160  0.00  0.00    +0.032 C 
ATOM      7  C8  UNL     1      21.910   1.782  27.080  0.00  0.00    +0.074 C 
ATOM      8  C13 UNL     1      22.573   3.080  26.611  0.00  0.00    +0.120 C 
ATOM      9  H5  UNL     1      20.115   5.020  23.888  0.00  0.00    +0.156 HD
ENDROOT
BRANCH   1  12
ATOM     10  C2  UNL     1      22.955   7.355  21.284  0.00  0.00    +0.139 A 
ATOM     11  C3  UNL     1      22.641   6.339  22.205  0.00  0.00    +0.070 A 
ATOM     12  C4  UNL     1      21.451   6.393  22.949  0.00  0.00    +0.042 A 
ATOM     13  C14 UNL     1      20.557   7.450  22.740  0.00  0.00    +0.070 A 
ATOM     14  C15 UNL     1      20.857   8.474  21.822  0.00  0.00    +0.139 A 
ATOM     15  C17 UNL     1      22.061   8.421  21.103  0.00  0.00    +0.101 A 
ATOM     16 BR1  UNL     1      22.482   9.813  19.851  0.00  0.00    -0.043 Br
BRANCH  10  18
ATOM     17  C1  UNL     1      25.416   7.744  21.019  0.00  0.00    +0.277 C 
ATOM     18  O1  UNL     1      24.142   7.335  20.531  0.00  0.00    -0.494 OA
ENDBRANCH  10  18
BRANCH  14  19
ATOM     19  O3  UNL     1      19.987   9.554  21.601  0.00  0.00    -0.494 OA
ATOM     20  C16 UNL     1      19.516  10.433  22.617  0.00  0.00    +0.277 C 
ENDBRANCH  14  19
ENDBRANCH   1  12
BRANCH   7  21
ATOM     21  C9  UNL     1      21.539   1.811  28.549  0.00  0.00    +0.114 A 
ATOM     22  N3  UNL     1      20.977   2.903  29.114  0.00  0.00    -0.240 NA
ATOM     23  C10 UNL     1      20.799   2.563  30.406  0.00  0.00    +0.130 A 
ATOM     24  C11 UNL     1      21.251   1.281  30.610  0.00  0.00    +0.106 A 
ATOM     25  N4  UNL     1      21.707   0.801  29.441  0.00  0.00    -0.337 N 
ATOM     26  C12 UNL     1      22.328  -0.509  29.253  0.00  0.00    +0.150 C 
ENDBRANCH   7  21
TORSDOF 4
ENDMDL
