MODEL 1
REMARK VINA RESULT:    -7.327      0.000      0.000
REMARK INTER + INTRA:         -10.141
REMARK INTER:                  -9.468
REMARK INTRA:                  -0.673
REMARK UNBOUND:                -0.673
REMARK  Name = /home/qwerty/github/datacon2025hack/step_04_hit_selection/docking/ligands/lig_30.pdb
REMARK  6 active torsions:
REMARK  status: ('A' for Active; 'I' for Inactive)
REMARK    1  A    between atoms: C1_1  and  C2_2
REMARK    2  A    between atoms: C6_6  and  N1_7
REMARK    3  A    between atoms: C7_8  and  C8_10
REMARK    4  A    between atoms: C8_10  and  N2_11
REMARK    5  A    between atoms: N4_17  and  C12_18
REMARK    6  A    between atoms: C16_22  and  N5_23
REMARK                            x       y       z     vdW  Elec       q    Type
REMARK                         _______ _______ _______ _____ _____    ______ ____
ROOT
ATOM      1  N2  UNL     1      18.135  10.418  36.975  0.00  0.00    -0.291 NA
ATOM      2  C9  UNL     1      16.861  10.509  37.733  0.00  0.00    +0.104 C 
ATOM      3  C10 UNL     1      16.174  11.880  37.608  0.00  0.00    +0.124 C 
ATOM      4  N3  UNL     1      16.417  12.459  36.282  0.00  0.00    -0.283 N 
ATOM      5  C11 UNL     1      15.368  13.132  35.567  0.00  0.00    +0.307 C 
ATOM      6  O2  UNL     1      15.604  14.252  35.037  0.00  0.00    -0.252 OA
ATOM      7  N4  UNL     1      14.061  12.540  35.463  0.00  0.00    -0.269 N 
ATOM      8  C22 UNL     1      17.792  12.537  35.776  0.00  0.00    +0.124 C 
ATOM      9  C23 UNL     1      18.748  11.722  36.652  0.00  0.00    +0.104 C 
ATOM     10  H14 UNL     1      13.883  11.633  35.947  0.00  0.00    +0.156 HD
ENDROOT
BRANCH   7  11
ATOM     11  C12 UNL     1      12.947  13.155  34.793  0.00  0.00    +0.037 A 
ATOM     12  C13 UNL     1      11.834  13.551  35.544  0.00  0.00    +0.023 A 
ATOM     13  C14 UNL     1      10.728  14.127  34.917  0.00  0.00    +0.004 A 
ATOM     14  C15 UNL     1      10.716  14.303  33.533  0.00  0.00    +0.023 A 
ATOM     15  C16 UNL     1      11.813  13.894  32.749  0.00  0.00    +0.031 A 
ATOM     16  C21 UNL     1      12.922  13.308  33.395  0.00  0.00    +0.046 A 
BRANCH  15  17
ATOM     17  N5  UNL     1      11.799  14.066  31.312  0.00  0.00    -0.330 N 
ATOM     18  C17 UNL     1      12.831  14.773  30.568  0.00  0.00    +0.105 C 
ATOM     19  C18 UNL     1      12.339  14.833  29.129  0.00  0.00    +0.020 C 
ATOM     20  C19 UNL     1      11.259  13.764  29.019  0.00  0.00    +0.020 C 
ATOM     21  C20 UNL     1      10.764  13.534  30.439  0.00  0.00    +0.105 C 
ENDBRANCH  15  17
ENDBRANCH   7  11
BRANCH   1  22
ATOM     22  C8  UNL     1      19.074   9.410  37.525  0.00  0.00    +0.180 C 
BRANCH  22  24
ATOM     23  N1  UNL     1      21.418   8.989  36.571  0.00  0.00    -0.284 N 
ATOM     24  C7  UNL     1      19.997   8.793  36.499  0.00  0.00    +0.231 C 
ATOM     25  O1  UNL     1      19.495   8.130  35.550  0.00  0.00    -0.274 OA
ATOM     26  H7  UNL     1      21.785   9.755  37.176  0.00  0.00    +0.155 HD
BRANCH  23  32
ATOM     27  C1  UNL     1      23.859   8.425  32.252  0.00  0.00    +0.044 C 
ATOM     28  C2  UNL     1      23.572   7.982  33.656  0.00  0.00    -0.049 A 
ATOM     29  C3  UNL     1      24.141   6.803  34.160  0.00  0.00    +0.003 A 
ATOM     30  C4  UNL     1      23.824   6.364  35.449  0.00  0.00    +0.002 A 
ATOM     31  C5  UNL     1      22.937   7.095  36.241  0.00  0.00    +0.023 A 
ATOM     32  C6  UNL     1      22.362   8.279  35.755  0.00  0.00    +0.034 A 
ATOM     33  C24 UNL     1      22.667   8.705  34.450  0.00  0.00    +0.026 A 
ENDBRANCH  23  32
ENDBRANCH  22  24
ENDBRANCH   1  22
TORSDOF 5
ENDMDL
MODEL 2
REMARK VINA RESULT:    -7.174      1.890      2.583
REMARK INTER + INTRA:          -9.945
REMARK INTER:                  -9.177
REMARK INTRA:                  -0.767
REMARK UNBOUND:                -0.673
REMARK  Name = /home/qwerty/github/datacon2025hack/step_04_hit_selection/docking/ligands/lig_30.pdb
REMARK  6 active torsions:
REMARK  status: ('A' for Active; 'I' for Inactive)
REMARK    1  A    between atoms: C1_1  and  C2_2
REMARK    2  A    between atoms: C6_6  and  N1_7
REMARK    3  A    between atoms: C7_8  and  C8_10
REMARK    4  A    between atoms: C8_10  and  N2_11
REMARK    5  A    between atoms: N4_17  and  C12_18
REMARK    6  A    between atoms: C16_22  and  N5_23
REMARK                            x       y       z     vdW  Elec       q    Type
REMARK                         _______ _______ _______ _____ _____    ______ ____
ROOT
ATOM      1  N2  UNL     1      18.751   7.775  36.915  0.00  0.00    -0.291 NA
ATOM      2  C9  UNL     1      17.436   7.295  37.412  0.00  0.00    +0.104 C 
ATOM      3  C10 UNL     1      16.604   8.395  38.095  0.00  0.00    +0.124 C 
ATOM      4  N3  UNL     1      16.850   9.694  37.461  0.00  0.00    -0.283 N 
ATOM      5  C11 UNL     1      15.771  10.610  37.210  0.00  0.00    +0.307 C 
ATOM      6  O2  UNL     1      15.905  11.822  37.529  0.00  0.00    -0.252 OA
ATOM      7  N4  UNL     1      14.547  10.147  36.611  0.00  0.00    -0.269 N 
ATOM      8  C22 UNL     1      18.233  10.151  37.276  0.00  0.00    +0.124 C 
ATOM      9  C23 UNL     1      19.227   9.020  37.552  0.00  0.00    +0.104 C 
ATOM     10  H14 UNL     1      14.449   9.130  36.397  0.00  0.00    +0.156 HD
ENDROOT
BRANCH   7  11
ATOM     11  C12 UNL     1      13.408  10.985  36.351  0.00  0.00    +0.037 A 
ATOM     12  C13 UNL     1      12.336  10.976  37.252  0.00  0.00    +0.023 A 
ATOM     13  C14 UNL     1      11.207  11.760  37.013  0.00  0.00    +0.004 A 
ATOM     14  C15 UNL     1      11.129  12.550  35.865  0.00  0.00    +0.023 A 
ATOM     15  C16 UNL     1      12.183  12.562  34.930  0.00  0.00    +0.031 A 
ATOM     16  C21 UNL     1      13.316  11.761  35.182  0.00  0.00    +0.046 A 
BRANCH  15  17
ATOM     17  N5  UNL     1      12.101  13.373  33.734  0.00  0.00    -0.330 N 
ATOM     18  C17 UNL     1      12.870  14.591  33.524  0.00  0.00    +0.105 C 
ATOM     19  C18 UNL     1      12.363  15.181  32.215  0.00  0.00    +0.020 C 
ATOM     20  C19 UNL     1      11.643  14.044  31.502  0.00  0.00    +0.020 C 
ATOM     21  C20 UNL     1      11.255  13.056  32.593  0.00  0.00    +0.105 C 
ENDBRANCH  15  17
ENDBRANCH   7  11
BRANCH   1  22
ATOM     22  C8  UNL     1      19.769   6.700  36.816  0.00  0.00    +0.180 C 
BRANCH  22  24
ATOM     23  N1  UNL     1      22.030   7.455  35.868  0.00  0.00    -0.284 N 
ATOM     24  C7  UNL     1      20.736   6.862  35.666  0.00  0.00    +0.231 C 
ATOM     25  O1  UNL     1      20.376   6.503  34.512  0.00  0.00    -0.274 OA
ATOM     26  H7  UNL     1      22.198   7.996  36.742  0.00  0.00    +0.155 HD
BRANCH  23  32
ATOM     27  C1  UNL     1      24.313   9.626  31.993  0.00  0.00    +0.044 C 
ATOM     28  C2  UNL     1      24.204   8.502  32.981  0.00  0.00    -0.049 A 
ATOM     29  C3  UNL     1      25.046   7.385  32.883  0.00  0.00    +0.003 A 
ATOM     30  C4  UNL     1      24.900   6.314  33.771  0.00  0.00    +0.002 A 
ATOM     31  C5  UNL     1      23.914   6.350  34.758  0.00  0.00    +0.023 A 
ATOM     32  C6  UNL     1      23.066   7.461  34.873  0.00  0.00    +0.034 A 
ATOM     33  C24 UNL     1      23.201   8.527  33.965  0.00  0.00    +0.026 A 
ENDBRANCH  23  32
ENDBRANCH  22  24
ENDBRANCH   1  22
TORSDOF 5
ENDMDL
MODEL 3
REMARK VINA RESULT:    -7.153     12.474     15.172
REMARK INTER + INTRA:          -9.917
REMARK INTER:                  -9.146
REMARK INTRA:                  -0.770
REMARK UNBOUND:                -0.673
REMARK  Name = /home/qwerty/github/datacon2025hack/step_04_hit_selection/docking/ligands/lig_30.pdb
REMARK  6 active torsions:
REMARK  status: ('A' for Active; 'I' for Inactive)
REMARK    1  A    between atoms: C1_1  and  C2_2
REMARK    2  A    between atoms: C6_6  and  N1_7
REMARK    3  A    between atoms: C7_8  and  C8_10
REMARK    4  A    between atoms: C8_10  and  N2_11
REMARK    5  A    between atoms: N4_17  and  C12_18
REMARK    6  A    between atoms: C16_22  and  N5_23
REMARK                            x       y       z     vdW  Elec       q    Type
REMARK                         _______ _______ _______ _____ _____    ______ ____
ROOT
ATOM      1  N2  UNL     1      12.482   3.336  21.094  0.00  0.00    -0.291 NA
ATOM      2  C9  UNL     1      12.421   4.615  20.342  0.00  0.00    +0.104 C 
ATOM      3  C10 UNL     1      10.997   5.191  20.235  0.00  0.00    +0.124 C 
ATOM      4  N3  UNL     1      10.224   4.876  21.441  0.00  0.00    -0.283 N 
ATOM      5  C11 UNL     1       9.356   5.855  22.038  0.00  0.00    +0.307 C 
ATOM      6  O2  UNL     1       8.185   5.522  22.366  0.00  0.00    -0.252 OA
ATOM      7  N4  UNL     1       9.816   7.201  22.252  0.00  0.00    -0.269 N 
ATOM      8  C22 UNL     1      10.170   3.488  21.915  0.00  0.00    +0.124 C 
ATOM      9  C23 UNL     1      11.195   2.617  21.184  0.00  0.00    +0.104 C 
ATOM     10  H14 UNL     1      10.775   7.459  21.932  0.00  0.00    +0.156 HD
ENDROOT
BRANCH   7  11
ATOM     11  C12 UNL     1       9.009   8.250  22.815  0.00  0.00    +0.037 A 
ATOM     12  C13 UNL     1       8.432   9.198  21.963  0.00  0.00    +0.023 A 
ATOM     13  C14 UNL     1       7.665  10.241  22.484  0.00  0.00    +0.004 A 
ATOM     14  C15 UNL     1       7.478  10.356  23.862  0.00  0.00    +0.023 A 
ATOM     15  C16 UNL     1       8.065   9.429  24.745  0.00  0.00    +0.031 A 
ATOM     16  C21 UNL     1       8.841   8.383  24.206  0.00  0.00    +0.046 A 
BRANCH  15  17
ATOM     17  N5  UNL     1       7.880   9.552  26.176  0.00  0.00    -0.330 N 
ATOM     18  C17 UNL     1       8.207  10.749  26.938  0.00  0.00    +0.105 C 
ATOM     19  C18 UNL     1       7.992  10.382  28.399  0.00  0.00    +0.020 C 
ATOM     20  C19 UNL     1       7.120   9.134  28.387  0.00  0.00    +0.020 C 
ATOM     21  C20 UNL     1       7.327   8.502  27.018  0.00  0.00    +0.105 C 
ENDBRANCH  15  17
ENDBRANCH   7  11
BRANCH   1  22
ATOM     22  C8  UNL     1      13.641   2.489  20.717  0.00  0.00    +0.180 C 
BRANCH  22  24
ATOM     23  N1  UNL     1      14.002   0.238  21.893  0.00  0.00    -0.284 N 
ATOM     24  C7  UNL     1      14.201   1.660  21.851  0.00  0.00    +0.231 C 
ATOM     25  O1  UNL     1      14.817   2.244  22.784  0.00  0.00    -0.274 OA
ATOM     26  H7  UNL     1      13.266  -0.180  21.285  0.00  0.00    +0.155 HD
BRANCH  23  32
ATOM     27  C1  UNL     1      14.193  -2.022  26.342  0.00  0.00    +0.044 C 
ATOM     28  C2  UNL     1      14.782  -1.751  24.990  0.00  0.00    -0.049 A 
ATOM     29  C3  UNL     1      16.047  -2.257  24.652  0.00  0.00    +0.003 A 
ATOM     30  C4  UNL     1      16.617  -1.953  23.411  0.00  0.00    +0.002 A 
ATOM     31  C5  UNL     1      15.933  -1.142  22.504  0.00  0.00    +0.023 A 
ATOM     32  C6  UNL     1      14.666  -0.631  22.825  0.00  0.00    +0.034 A 
ATOM     33  C24 UNL     1      14.105  -0.921  24.081  0.00  0.00    +0.026 A 
ENDBRANCH  23  32
ENDBRANCH  22  24
ENDBRANCH   1  22
TORSDOF 5
ENDMDL
MODEL 4
REMARK VINA RESULT:    -7.048     12.904     18.349
REMARK INTER + INTRA:          -9.781
REMARK INTER:                  -9.001
REMARK INTRA:                  -0.780
REMARK UNBOUND:                -0.673
REMARK  Name = /home/qwerty/github/datacon2025hack/step_04_hit_selection/docking/ligands/lig_30.pdb
REMARK  6 active torsions:
REMARK  status: ('A' for Active; 'I' for Inactive)
REMARK    1  A    between atoms: C1_1  and  C2_2
REMARK    2  A    between atoms: C6_6  and  N1_7
REMARK    3  A    between atoms: C7_8  and  C8_10
REMARK    4  A    between atoms: C8_10  and  N2_11
REMARK    5  A    between atoms: N4_17  and  C12_18
REMARK    6  A    between atoms: C16_22  and  N5_23
REMARK                            x       y       z     vdW  Elec       q    Type
REMARK                         _______ _______ _______ _____ _____    ______ ____
ROOT
ATOM      1  N2  UNL     1      10.330   3.118  22.345  0.00  0.00    -0.291 NA
ATOM      2  C9  UNL     1      10.153   1.851  23.099  0.00  0.00    +0.104 C 
ATOM      3  C10 UNL     1      11.103   0.731  22.640  0.00  0.00    +0.124 C 
ATOM      4  N3  UNL     1      12.387   1.290  22.207  0.00  0.00    -0.283 N 
ATOM      5  C11 UNL     1      13.626   0.650  22.555  0.00  0.00    +0.307 C 
ATOM      6  O2  UNL     1      14.499   0.470  21.662  0.00  0.00    -0.252 OA
ATOM      7  N4  UNL     1      13.866   0.210  23.904  0.00  0.00    -0.269 N 
ATOM      8  C22 UNL     1      12.399   2.390  21.235  0.00  0.00    +0.124 C 
ATOM      9  C23 UNL     1      10.992   2.961  21.034  0.00  0.00    +0.104 C 
ATOM     10  H14 UNL     1      13.109   0.334  24.611  0.00  0.00    +0.156 HD
ENDROOT
BRANCH   7  11
ATOM     11  C12 UNL     1      15.061  -0.464  24.333  0.00  0.00    +0.037 A 
ATOM     12  C13 UNL     1      15.143  -1.855  24.206  0.00  0.00    +0.023 A 
ATOM     13  C14 UNL     1      16.281  -2.538  24.637  0.00  0.00    +0.004 A 
ATOM     14  C15 UNL     1      17.343  -1.841  25.213  0.00  0.00    +0.023 A 
ATOM     15  C16 UNL     1      17.280  -0.443  25.375  0.00  0.00    +0.031 A 
ATOM     16  C21 UNL     1      16.122   0.234  24.939  0.00  0.00    +0.046 A 
BRANCH  15  17
ATOM     17  N5  UNL     1      18.376   0.281  25.981  0.00  0.00    -0.330 N 
ATOM     18  C17 UNL     1      18.263   1.043  27.217  0.00  0.00    +0.105 C 
ATOM     19  C18 UNL     1      19.601   1.746  27.395  0.00  0.00    +0.020 C 
ATOM     20  C19 UNL     1      20.580   1.003  26.495  0.00  0.00    +0.020 C 
ATOM     21  C20 UNL     1      19.726   0.317  25.439  0.00  0.00    +0.105 C 
ENDBRANCH  15  17
ENDBRANCH   7  11
BRANCH   1  22
ATOM     22  C8  UNL     1       9.111   3.965  22.326  0.00  0.00    +0.180 C 
BRANCH  22  24
ATOM     23  N1  UNL     1       8.802   6.221  21.147  0.00  0.00    -0.284 N 
ATOM     24  C7  UNL     1       9.384   5.446  22.208  0.00  0.00    +0.231 C 
ATOM     25  O1  UNL     1      10.165   5.990  23.035  0.00  0.00    -0.274 OA
ATOM     26  H7  UNL     1       8.402   5.720  20.325  0.00  0.00    +0.155 HD
BRANCH  23  32
ATOM     27  C1  UNL     1      11.055  10.419  19.649  0.00  0.00    +0.044 C 
ATOM     28  C2  UNL     1       9.934   9.722  20.363  0.00  0.00    -0.049 A 
ATOM     29  C3  UNL     1       8.979  10.461  21.077  0.00  0.00    +0.003 A 
ATOM     30  C4  UNL     1       7.971   9.804  21.790  0.00  0.00    +0.002 A 
ATOM     31  C5  UNL     1       7.911   8.409  21.798  0.00  0.00    +0.023 A 
ATOM     32  C6  UNL     1       8.857   7.655  21.086  0.00  0.00    +0.034 A 
ATOM     33  C24 UNL     1       9.882   8.319  20.389  0.00  0.00    +0.026 A 
ENDBRANCH  23  32
ENDBRANCH  22  24
ENDBRANCH   1  22
TORSDOF 5
ENDMDL
MODEL 5
REMARK VINA RESULT:    -6.983      2.515     10.885
REMARK INTER + INTRA:          -9.697
REMARK INTER:                  -9.077
REMARK INTRA:                  -0.619
REMARK UNBOUND:                -0.673
REMARK  Name = /home/qwerty/github/datacon2025hack/step_04_hit_selection/docking/ligands/lig_30.pdb
REMARK  6 active torsions:
REMARK  status: ('A' for Active; 'I' for Inactive)
REMARK    1  A    between atoms: C1_1  and  C2_2
REMARK    2  A    between atoms: C6_6  and  N1_7
REMARK    3  A    between atoms: C7_8  and  C8_10
REMARK    4  A    between atoms: C8_10  and  N2_11
REMARK    5  A    between atoms: N4_17  and  C12_18
REMARK    6  A    between atoms: C16_22  and  N5_23
REMARK                            x       y       z     vdW  Elec       q    Type
REMARK                         _______ _______ _______ _____ _____    ______ ____
ROOT
ATOM      1  N2  UNL     1      17.647  12.886  35.349  0.00  0.00    -0.291 NA
ATOM      2  C9  UNL     1      19.116  13.014  35.183  0.00  0.00    +0.104 C 
ATOM      3  C10 UNL     1      19.919  12.102  36.128  0.00  0.00    +0.124 C 
ATOM      4  N3  UNL     1      19.196  10.848  36.368  0.00  0.00    -0.283 N 
ATOM      5  C11 UNL     1      19.891   9.590  36.400  0.00  0.00    +0.307 C 
ATOM      6  O2  UNL     1      19.660   8.782  37.339  0.00  0.00    -0.252 OA
ATOM      7  N4  UNL     1      20.846   9.260  35.376  0.00  0.00    -0.269 N 
ATOM      8  C22 UNL     1      17.792  10.900  36.792  0.00  0.00    +0.124 C 
ATOM      9  C23 UNL     1      17.226  12.316  36.645  0.00  0.00    +0.104 C 
ATOM     10  H14 UNL     1      21.048   9.966  34.634  0.00  0.00    +0.156 HD
ENDROOT
BRANCH   7  11
ATOM     11  C12 UNL     1      21.606   8.040  35.344  0.00  0.00    +0.037 A 
ATOM     12  C13 UNL     1      22.600   7.830  36.307  0.00  0.00    +0.023 A 
ATOM     13  C14 UNL     1      23.370   6.666  36.285  0.00  0.00    +0.004 A 
ATOM     14  C15 UNL     1      23.166   5.706  35.293  0.00  0.00    +0.023 A 
ATOM     15  C16 UNL     1      22.188   5.900  34.298  0.00  0.00    +0.031 A 
ATOM     16  C21 UNL     1      21.420   7.083  34.329  0.00  0.00    +0.046 A 
BRANCH  15  17
ATOM     17  N5  UNL     1      21.980   4.910  33.263  0.00  0.00    -0.330 N 
ATOM     18  C17 UNL     1      21.902   5.223  31.843  0.00  0.00    +0.105 C 
ATOM     19  C18 UNL     1      21.535   3.919  31.150  0.00  0.00    +0.020 C 
ATOM     20  C19 UNL     1      21.861   2.816  32.149  0.00  0.00    +0.020 C 
ATOM     21  C20 UNL     1      21.847   3.484  33.516  0.00  0.00    +0.105 C 
ENDBRANCH  15  17
ENDBRANCH   7  11
BRANCH   1  22
ATOM     22  C8  UNL     1      16.901  14.101  34.935  0.00  0.00    +0.180 C 
BRANCH  22  24
ATOM     23  N1  UNL     1      14.445  13.367  34.852  0.00  0.00    -0.284 N 
ATOM     24  C7  UNL     1      15.481  14.165  35.447  0.00  0.00    +0.231 C 
ATOM     25  O1  UNL     1      15.208  14.962  36.386  0.00  0.00    -0.274 OA
ATOM     26  H7  UNL     1      14.620  12.942  33.916  0.00  0.00    +0.155 HD
BRANCH  23  32
ATOM     27  C1  UNL     1      11.226  11.008  37.853  0.00  0.00    +0.044 C 
ATOM     28  C2  UNL     1      11.534  12.098  36.870  0.00  0.00    -0.049 A 
ATOM     29  C3  UNL     1      10.515  12.936  36.395  0.00  0.00    +0.003 A 
ATOM     30  C4  UNL     1      10.797  13.912  35.434  0.00  0.00    +0.002 A 
ATOM     31  C5  UNL     1      12.095  14.057  34.940  0.00  0.00    +0.023 A 
ATOM     32  C6  UNL     1      13.127  13.230  35.408  0.00  0.00    +0.034 A 
ATOM     33  C24 UNL     1      12.835  12.235  36.358  0.00  0.00    +0.026 A 
ENDBRANCH  23  32
ENDBRANCH  22  24
ENDBRANCH   1  22
TORSDOF 5
ENDMDL
MODEL 6
REMARK VINA RESULT:    -6.970     12.995     15.524
REMARK INTER + INTRA:          -9.680
REMARK INTER:                  -9.072
REMARK INTRA:                  -0.608
REMARK UNBOUND:                -0.673
REMARK  Name = /home/qwerty/github/datacon2025hack/step_04_hit_selection/docking/ligands/lig_30.pdb
REMARK  6 active torsions:
REMARK  status: ('A' for Active; 'I' for Inactive)
REMARK    1  A    between atoms: C1_1  and  C2_2
REMARK    2  A    between atoms: C6_6  and  N1_7
REMARK    3  A    between atoms: C7_8  and  C8_10
REMARK    4  A    between atoms: C8_10  and  N2_11
REMARK    5  A    between atoms: N4_17  and  C12_18
REMARK    6  A    between atoms: C16_22  and  N5_23
REMARK                            x       y       z     vdW  Elec       q    Type
REMARK                         _______ _______ _______ _____ _____    ______ ____
ROOT
ATOM      1  N2  UNL     1      15.152   3.092  20.478  0.00  0.00    -0.291 NA
ATOM      2  C9  UNL     1      15.182   4.259  19.560  0.00  0.00    +0.104 C 
ATOM      3  C10 UNL     1      13.781   4.763  19.168  0.00  0.00    +0.124 C 
ATOM      4  N3  UNL     1      12.840   4.578  20.277  0.00  0.00    -0.283 N 
ATOM      5  C11 UNL     1      11.875   5.592  20.603  0.00  0.00    +0.307 C 
ATOM      6  O2  UNL     1      10.674   5.260  20.796  0.00  0.00    -0.252 OA
ATOM      7  N4  UNL     1      12.272   6.971  20.701  0.00  0.00    -0.269 N 
ATOM      8  C22 UNL     1      12.740   3.262  20.920  0.00  0.00    +0.124 C 
ATOM      9  C23 UNL     1      13.880   2.343  20.472  0.00  0.00    +0.104 C 
ATOM     10  H14 UNL     1      13.264   7.221  20.494  0.00  0.00    +0.156 HD
ENDROOT
BRANCH   7  11
ATOM     11  C12 UNL     1      11.371   8.053  20.993  0.00  0.00    +0.037 A 
ATOM     12  C13 UNL     1      10.938   8.880  19.950  0.00  0.00    +0.023 A 
ATOM     13  C14 UNL     1      10.083   9.952  20.208  0.00  0.00    +0.004 A 
ATOM     14  C15 UNL     1       9.662  10.218  21.512  0.00  0.00    +0.023 A 
ATOM     15  C16 UNL     1      10.099   9.416  22.584  0.00  0.00    +0.031 A 
ATOM     16  C21 UNL     1      10.967   8.339  22.310  0.00  0.00    +0.046 A 
BRANCH  15  17
ATOM     17  N5  UNL     1       9.672   9.696  23.938  0.00  0.00    -0.330 N 
ATOM     18  C17 UNL     1      10.577  10.073  25.014  0.00  0.00    +0.105 C 
ATOM     19  C18 UNL     1       9.725  10.124  26.275  0.00  0.00    +0.020 C 
ATOM     20  C19 UNL     1       8.283  10.215  25.794  0.00  0.00    +0.020 C 
ATOM     21  C20 UNL     1       8.286   9.653  24.379  0.00  0.00    +0.105 C 
ENDBRANCH  15  17
ENDBRANCH   7  11
BRANCH   1  22
ATOM     22  C8  UNL     1      16.370   2.248  20.393  0.00  0.00    +0.180 C 
BRANCH  22  24
ATOM     23  N1  UNL     1      16.574   0.773  22.482  0.00  0.00    -0.284 N 
ATOM     24  C7  UNL     1      16.250   0.911  21.089  0.00  0.00    +0.231 C 
ATOM     25  O1  UNL     1      15.897  -0.095  20.416  0.00  0.00    -0.274 OA
ATOM     26  H7  UNL     1      17.126   1.528  22.942  0.00  0.00    +0.155 HD
BRANCH  23  32
ATOM     27  C1  UNL     1      13.732  -1.718  25.745  0.00  0.00    +0.044 C 
ATOM     28  C2  UNL     1      14.925  -1.652  24.839  0.00  0.00    -0.049 A 
ATOM     29  C3  UNL     1      15.852  -2.704  24.806  0.00  0.00    +0.003 A 
ATOM     30  C4  UNL     1      16.993  -2.611  24.003  0.00  0.00    +0.002 A 
ATOM     31  C5  UNL     1      17.218  -1.470  23.231  0.00  0.00    +0.023 A 
ATOM     32  C6  UNL     1      16.299  -0.410  23.249  0.00  0.00    +0.034 A 
ATOM     33  C24 UNL     1      15.164  -0.497  24.074  0.00  0.00    +0.026 A 
ENDBRANCH  23  32
ENDBRANCH  22  24
ENDBRANCH   1  22
TORSDOF 5
ENDMDL
MODEL 7
REMARK VINA RESULT:    -6.947     12.594     15.789
REMARK INTER + INTRA:          -9.651
REMARK INTER:                  -8.829
REMARK INTRA:                  -0.822
REMARK UNBOUND:                -0.673
REMARK  Name = /home/qwerty/github/datacon2025hack/step_04_hit_selection/docking/ligands/lig_30.pdb
REMARK  6 active torsions:
REMARK  status: ('A' for Active; 'I' for Inactive)
REMARK    1  A    between atoms: C1_1  and  C2_2
REMARK    2  A    between atoms: C6_6  and  N1_7
REMARK    3  A    between atoms: C7_8  and  C8_10
REMARK    4  A    between atoms: C8_10  and  N2_11
REMARK    5  A    between atoms: N4_17  and  C12_18
REMARK    6  A    between atoms: C16_22  and  N5_23
REMARK                            x       y       z     vdW  Elec       q    Type
REMARK                         _______ _______ _______ _____ _____    ______ ____
ROOT
ATOM      1  N2  UNL     1      21.505  10.638  20.758  0.00  0.00    -0.291 NA
ATOM      2  C9  UNL     1      20.311   9.967  21.331  0.00  0.00    +0.104 C 
ATOM      3  C10 UNL     1      20.348   8.435  21.193  0.00  0.00    +0.124 C 
ATOM      4  N3  UNL     1      21.726   7.943  21.288  0.00  0.00    -0.283 N 
ATOM      5  C11 UNL     1      22.036   6.752  22.031  0.00  0.00    +0.307 C 
ATOM      6  O2  UNL     1      22.780   5.877  21.510  0.00  0.00    -0.252 OA
ATOM      7  N4  UNL     1      21.496   6.555  23.350  0.00  0.00    -0.269 N 
ATOM      8  C22 UNL     1      22.763   8.549  20.444  0.00  0.00    +0.124 C 
ATOM      9  C23 UNL     1      22.249   9.826  19.774  0.00  0.00    +0.104 C 
ATOM     10  H14 UNL     1      20.849   7.276  23.737  0.00  0.00    +0.156 HD
ENDROOT
BRANCH   7  11
ATOM     11  C12 UNL     1      21.728   5.384  24.151  0.00  0.00    +0.037 A 
ATOM     12  C13 UNL     1      22.886   5.313  24.934  0.00  0.00    +0.023 A 
ATOM     13  C14 UNL     1      23.150   4.178  25.703  0.00  0.00    +0.004 A 
ATOM     14  C15 UNL     1      22.267   3.097  25.686  0.00  0.00    +0.023 A 
ATOM     15  C16 UNL     1      21.106   3.132  24.891  0.00  0.00    +0.031 A 
ATOM     16  C21 UNL     1      20.854   4.283  24.115  0.00  0.00    +0.046 A 
BRANCH  15  17
ATOM     17  N5  UNL     1      20.194   2.008  24.864  0.00  0.00    -0.330 N 
ATOM     18  C17 UNL     1      20.238   0.903  25.811  0.00  0.00    +0.105 C 
ATOM     19  C18 UNL     1      19.207  -0.104  25.322  0.00  0.00    +0.020 C 
ATOM     20  C19 UNL     1      18.297   0.665  24.374  0.00  0.00    +0.020 C 
ATOM     21  C20 UNL     1      19.113   1.859  23.901  0.00  0.00    +0.105 C 
ENDBRANCH  15  17
ENDBRANCH   7  11
BRANCH   1  22
ATOM     22  C8  UNL     1      21.247  12.038  20.339  0.00  0.00    +0.180 C 
BRANCH  22  24
ATOM     23  N1  UNL     1      22.801  12.851  22.211  0.00  0.00    -0.284 N 
ATOM     24  C7  UNL     1      21.675  13.079  21.348  0.00  0.00    +0.231 C 
ATOM     25  O1  UNL     1      21.002  14.141  21.449  0.00  0.00    -0.274 OA
ATOM     26  H7  UNL     1      23.160  11.878  22.314  0.00  0.00    +0.155 HD
BRANCH  23  32
ATOM     27  C1  UNL     1      23.135  15.169  26.621  0.00  0.00    +0.044 C 
ATOM     28  C2  UNL     1      23.567  15.012  25.194  0.00  0.00    -0.049 A 
ATOM     29  C3  UNL     1      24.467  15.923  24.620  0.00  0.00    +0.003 A 
ATOM     30  C4  UNL     1      24.821  15.807  23.272  0.00  0.00    +0.002 A 
ATOM     31  C5  UNL     1      24.279  14.786  22.489  0.00  0.00    +0.023 A 
ATOM     32  C6  UNL     1      23.380  13.865  23.048  0.00  0.00    +0.034 A 
ATOM     33  C24 UNL     1      23.010  13.998  24.398  0.00  0.00    +0.026 A 
ENDBRANCH  23  32
ENDBRANCH  22  24
ENDBRANCH   1  22
TORSDOF 5
ENDMDL
MODEL 8
REMARK VINA RESULT:    -6.785      8.199     12.868
REMARK INTER + INTRA:          -9.441
REMARK INTER:                  -8.751
REMARK INTRA:                  -0.689
REMARK UNBOUND:                -0.673
REMARK  Name = /home/qwerty/github/datacon2025hack/step_04_hit_selection/docking/ligands/lig_30.pdb
REMARK  6 active torsions:
REMARK  status: ('A' for Active; 'I' for Inactive)
REMARK    1  A    between atoms: C1_1  and  C2_2
REMARK    2  A    between atoms: C6_6  and  N1_7
REMARK    3  A    between atoms: C7_8  and  C8_10
REMARK    4  A    between atoms: C8_10  and  N2_11
REMARK    5  A    between atoms: N4_17  and  C12_18
REMARK    6  A    between atoms: C16_22  and  N5_23
REMARK                            x       y       z     vdW  Elec       q    Type
REMARK                         _______ _______ _______ _____ _____    ______ ____
ROOT
ATOM      1  N2  UNL     1      22.219   2.814  28.151  0.00  0.00    -0.291 NA
ATOM      2  C9  UNL     1      21.334   3.953  28.505  0.00  0.00    +0.104 C 
ATOM      3  C10 UNL     1      20.767   3.863  29.933  0.00  0.00    +0.124 C 
ATOM      4  N3  UNL     1      21.737   3.230  30.832  0.00  0.00    -0.283 N 
ATOM      5  C11 UNL     1      21.949   3.732  32.162  0.00  0.00    +0.307 C 
ATOM      6  O2  UNL     1      21.974   2.924  33.130  0.00  0.00    -0.252 OA
ATOM      7  N4  UNL     1      22.123   5.142  32.389  0.00  0.00    -0.269 N 
ATOM      8  C22 UNL     1      22.338   1.946  30.449  0.00  0.00    +0.124 C 
ATOM      9  C23 UNL     1      22.030   1.611  28.987  0.00  0.00    +0.104 C 
ATOM     10  H14 UNL     1      22.054   5.791  31.574  0.00  0.00    +0.156 HD
ENDROOT
BRANCH   7  11
ATOM     11  C12 UNL     1      22.310   5.735  33.685  0.00  0.00    +0.037 A 
ATOM     12  C13 UNL     1      23.606   5.848  34.202  0.00  0.00    +0.023 A 
ATOM     13  C14 UNL     1      23.815   6.397  35.469  0.00  0.00    +0.004 A 
ATOM     14  C15 UNL     1      22.732   6.825  36.237  0.00  0.00    +0.023 A 
ATOM     15  C16 UNL     1      21.416   6.703  35.752  0.00  0.00    +0.031 A 
ATOM     16  C21 UNL     1      21.218   6.143  34.473  0.00  0.00    +0.046 A 
BRANCH  15  17
ATOM     17  N5  UNL     1      20.290   7.138  36.551  0.00  0.00    -0.330 N 
ATOM     18  C17 UNL     1      19.853   8.522  36.655  0.00  0.00    +0.105 C 
ATOM     19  C18 UNL     1      18.747   8.532  37.700  0.00  0.00    +0.020 C 
ATOM     20  C19 UNL     1      18.286   7.085  37.825  0.00  0.00    +0.020 C 
ATOM     21  C20 UNL     1      19.451   6.240  37.330  0.00  0.00    +0.105 C 
ENDBRANCH  15  17
ENDBRANCH   7  11
BRANCH   1  22
ATOM     22  C8  UNL     1      22.284   2.552  26.692  0.00  0.00    +0.180 C 
BRANCH  22  24
ATOM     23  N1  UNL     1      20.464   0.840  26.113  0.00  0.00    -0.284 N 
ATOM     24  C7  UNL     1      20.957   2.188  26.065  0.00  0.00    +0.231 C 
ATOM     25  O1  UNL     1      20.303   3.082  25.462  0.00  0.00    -0.274 OA
ATOM     26  H7  UNL     1      21.129   0.074  26.354  0.00  0.00    +0.155 HD
BRANCH  23  32
ATOM     27  C1  UNL     1      17.276  -0.830  22.651  0.00  0.00    +0.044 C 
ATOM     28  C2  UNL     1      17.556  -0.355  24.046  0.00  0.00    -0.049 A 
ATOM     29  C3  UNL     1      16.506  -0.167  24.957  0.00  0.00    +0.003 A 
ATOM     30  C4  UNL     1      16.767   0.332  26.237  0.00  0.00    +0.002 A 
ATOM     31  C5  UNL     1      18.073   0.649  26.615  0.00  0.00    +0.023 A 
ATOM     32  C6  UNL     1      19.135   0.464  25.717  0.00  0.00    +0.034 A 
ATOM     33  C24 UNL     1      18.867  -0.018  24.424  0.00  0.00    +0.026 A 
ENDBRANCH  23  32
ENDBRANCH  22  24
ENDBRANCH   1  22
TORSDOF 5
ENDMDL
MODEL 9
REMARK VINA RESULT:    -6.757     12.743     18.231
REMARK INTER + INTRA:          -9.405
REMARK INTER:                  -8.653
REMARK INTRA:                  -0.752
REMARK UNBOUND:                -0.673
REMARK  Name = /home/qwerty/github/datacon2025hack/step_04_hit_selection/docking/ligands/lig_30.pdb
REMARK  6 active torsions:
REMARK  status: ('A' for Active; 'I' for Inactive)
REMARK    1  A    between atoms: C1_1  and  C2_2
REMARK    2  A    between atoms: C6_6  and  N1_7
REMARK    3  A    between atoms: C7_8  and  C8_10
REMARK    4  A    between atoms: C8_10  and  N2_11
REMARK    5  A    between atoms: N4_17  and  C12_18
REMARK    6  A    between atoms: C16_22  and  N5_23
REMARK                            x       y       z     vdW  Elec       q    Type
REMARK                         _______ _______ _______ _____ _____    ______ ____
ROOT
ATOM      1  N2  UNL     1      11.992   3.624  21.174  0.00  0.00    -0.291 NA
ATOM      2  C9  UNL     1      11.831   2.408  22.011  0.00  0.00    +0.104 C 
ATOM      3  C10 UNL     1      12.910   1.342  21.751  0.00  0.00    +0.124 C 
ATOM      4  N3  UNL     1      14.188   1.976  21.411  0.00  0.00    -0.283 N 
ATOM      5  C11 UNL     1      15.426   1.474  21.941  0.00  0.00    +0.307 C 
ATOM      6  O2  UNL     1      16.405   1.303  21.165  0.00  0.00    -0.252 OA
ATOM      7  N4  UNL     1      15.546   1.160  23.341  0.00  0.00    -0.269 N 
ATOM      8  C22 UNL     1      14.224   2.995  20.356  0.00  0.00    +0.124 C 
ATOM      9  C23 UNL     1      12.809   3.426  19.960  0.00  0.00    +0.104 C 
ATOM     10  H14 UNL     1      14.706   1.271  23.951  0.00  0.00    +0.156 HD
ENDROOT
BRANCH   7  11
ATOM     11  C12 UNL     1      16.734   0.627  23.950  0.00  0.00    +0.037 A 
ATOM     12  C13 UNL     1      16.776  -0.731  24.287  0.00  0.00    +0.023 A 
ATOM     13  C14 UNL     1      17.907  -1.271  24.902  0.00  0.00    +0.004 A 
ATOM     14  C15 UNL     1      19.001  -0.458  25.200  0.00  0.00    +0.023 A 
ATOM     15  C16 UNL     1      18.977   0.917  24.893  0.00  0.00    +0.031 A 
ATOM     16  C21 UNL     1      17.827   1.450  24.276  0.00  0.00    +0.046 A 
BRANCH  15  17
ATOM     17  N5  UNL     1      20.107   1.764  25.210  0.00  0.00    -0.330 N 
ATOM     18  C17 UNL     1      20.511   2.913  24.412  0.00  0.00    +0.105 C 
ATOM     19  C18 UNL     1      21.813   3.409  25.026  0.00  0.00    +0.020 C 
ATOM     20  C19 UNL     1      21.865   2.803  26.423  0.00  0.00    +0.020 C 
ATOM     21  C20 UNL     1      20.960   1.581  26.375  0.00  0.00    +0.105 C 
ENDBRANCH  15  17
ENDBRANCH   7  11
BRANCH   1  22
ATOM     22  C8  UNL     1      10.721   4.359  20.955  0.00  0.00    +0.180 C 
BRANCH  22  24
ATOM     23  N1  UNL     1      10.235   6.743  20.145  0.00  0.00    -0.284 N 
ATOM     24  C7  UNL     1      10.835   5.858  21.105  0.00  0.00    +0.231 C 
ATOM     25  O1  UNL     1      11.500   6.325  22.069  0.00  0.00    -0.274 OA
ATOM     26  H7  UNL     1       9.944   6.354  19.223  0.00  0.00    +0.155 HD
BRANCH  23  32
ATOM     27  C1  UNL     1       7.897  10.718  22.061  0.00  0.00    +0.044 C 
ATOM     28  C2  UNL     1       9.014  10.124  21.255  0.00  0.00    -0.049 A 
ATOM     29  C3  UNL     1       9.919  10.954  20.575  0.00  0.00    +0.003 A 
ATOM     30  C4  UNL     1      10.922  10.395  19.778  0.00  0.00    +0.002 A 
ATOM     31  C5  UNL     1      11.028   9.009  19.651  0.00  0.00    +0.023 A 
ATOM     32  C6  UNL     1      10.134   8.165  20.327  0.00  0.00    +0.034 A 
ATOM     33  C24 UNL     1       9.113   8.730  21.111  0.00  0.00    +0.026 A 
ENDBRANCH  23  32
ENDBRANCH  22  24
ENDBRANCH   1  22
TORSDOF 5
ENDMDL
