MODEL 1
REMARK VINA RESULT:    -6.774      0.000      0.000
REMARK INTER + INTRA:          -8.461
REMARK INTER:                  -7.963
REMARK INTRA:                  -0.498
REMARK UNBOUND:                -0.498
REMARK  Name = /home/qwerty/github/datacon2025hack/step_04_hit_selection/docking/ligands/lig_440.pdb
REMARK  5 active torsions:
REMARK  status: ('A' for Active; 'I' for Inactive)
REMARK    1  A    between atoms: C1_1  and  C2_2
REMARK    2  A    between atoms: C4_4  and  C5_5
REMARK    3  A    between atoms: C9_11  and  N2_12
REMARK    4  A    between atoms: C10_13  and  C11_15
REMARK    5  A    between atoms: N3_25  and  C20_26
REMARK                            x       y       z     vdW  Elec       q    Type
REMARK                         _______ _______ _______ _____ _____    ______ ____
ROOT
ATOM      1  C5  UNL     1      21.451   1.191  27.964  0.00  0.00    +0.265 C 
ATOM      2  O1  UNL     1      21.609  -0.034  27.713  0.00  0.00    -0.268 OA
ATOM      3  N1  UNL     1      21.064   1.600  29.289  0.00  0.00    -0.295 N 
ATOM      4  C6  UNL     1      21.532   0.839  30.457  0.00  0.00    +0.108 C 
ATOM      5  C7  UNL     1      20.352   0.276  31.267  0.00  0.00    +0.021 C 
ATOM      6  C8  UNL     1      19.067   1.121  31.159  0.00  0.00    +0.025 C 
ATOM      7  C9  UNL     1      19.350   2.596  30.821  0.00  0.00    +0.091 C 
ATOM      8  C19 UNL     1      20.082   2.684  29.464  0.00  0.00    +0.130 C 
ENDROOT
BRANCH   1  12
ATOM      9  C1  UNL     1      23.279   4.965  25.191  0.00  0.00    +0.067 C 
ATOM     10  C2  UNL     1      22.454   3.828  25.690  0.00  0.00    +0.061 A 
ATOM     11  C3  UNL     1      22.571   3.229  26.930  0.00  0.00    +0.057 A 
ATOM     12  C4  UNL     1      21.671   2.182  26.888  0.00  0.00    +0.123 A 
ATOM     13  N3  UNL     1      21.077   2.173  25.672  0.00  0.00    -0.262 N 
ATOM     14  C20 UNL     1      20.083   1.223  25.183  0.00  0.00    +0.173 C 
ATOM     15  N4  UNL     1      21.557   3.163  24.936  0.00  0.00    -0.176 NA
ENDBRANCH   1  12
BRANCH   7  16
ATOM     16  N2  UNL     1      20.125   3.242  31.888  0.00  0.00    -0.304 N 
ATOM     17  C10 UNL     1      19.928   4.614  32.259  0.00  0.00    +0.280 C 
ATOM     18  O2  UNL     1      19.133   5.341  31.603  0.00  0.00    -0.267 OA
ATOM     19  H12 UNL     1      20.890   2.710  32.362  0.00  0.00    +0.149 HD
BRANCH  17  20
ATOM     20  C11 UNL     1      20.657   5.183  33.402  0.00  0.00    +0.190 A 
ATOM     21  C12 UNL     1      22.037   5.133  33.589  0.00  0.00    +0.063 A 
ATOM     22  C13 UNL     1      22.242   5.794  34.778  0.00  0.00    +0.021 A 
ATOM     23  C14 UNL     1      23.413   6.068  35.480  0.00  0.00    +0.011 A 
ATOM     24  C15 UNL     1      23.300   6.781  36.688  0.00  0.00    +0.001 A 
ATOM     25  C16 UNL     1      22.033   7.196  37.158  0.00  0.00    +0.004 A 
ATOM     26  C17 UNL     1      20.869   6.902  36.423  0.00  0.00    +0.047 A 
ATOM     27  C18 UNL     1      21.014   6.196  35.231  0.00  0.00    +0.136 A 
ATOM     28  O3  UNL     1      20.073   5.825  34.400  0.00  0.00    -0.450 OA
ENDBRANCH  17  20
ENDBRANCH   7  16
TORSDOF 3
ENDMDL
MODEL 2
REMARK VINA RESULT:    -6.659      4.505      9.616
REMARK INTER + INTRA:          -8.325
REMARK INTER:                  -7.616
REMARK INTRA:                  -0.709
REMARK UNBOUND:                -0.498
REMARK  Name = /home/qwerty/github/datacon2025hack/step_04_hit_selection/docking/ligands/lig_440.pdb
REMARK  5 active torsions:
REMARK  status: ('A' for Active; 'I' for Inactive)
REMARK    1  A    between atoms: C1_1  and  C2_2
REMARK    2  A    between atoms: C4_4  and  C5_5
REMARK    3  A    between atoms: C9_11  and  N2_12
REMARK    4  A    between atoms: C10_13  and  C11_15
REMARK    5  A    between atoms: N3_25  and  C20_26
REMARK                            x       y       z     vdW  Elec       q    Type
REMARK                         _______ _______ _______ _____ _____    ______ ____
ROOT
ATOM      1  C5  UNL     1      19.198   9.855  36.686  0.00  0.00    +0.265 C 
ATOM      2  O1  UNL     1      18.910   9.995  37.905  0.00  0.00    -0.268 OA
ATOM      3  N1  UNL     1      19.950   8.702  36.262  0.00  0.00    -0.295 N 
ATOM      4  C6  UNL     1      19.773   7.417  36.953  0.00  0.00    +0.108 C 
ATOM      5  C7  UNL     1      21.094   6.926  37.568  0.00  0.00    +0.021 C 
ATOM      6  C8  UNL     1      22.347   7.414  36.814  0.00  0.00    +0.025 C 
ATOM      7  C9  UNL     1      22.067   7.734  35.334  0.00  0.00    +0.091 C 
ATOM      8  C19 UNL     1      21.002   8.848  35.241  0.00  0.00    +0.130 C 
ENDROOT
BRANCH   1  12
ATOM      9  C1  UNL     1      16.483  12.509  33.391  0.00  0.00    +0.067 C 
ATOM     10  C2  UNL     1      17.580  12.024  34.276  0.00  0.00    +0.061 A 
ATOM     11  C3  UNL     1      17.581  10.837  34.983  0.00  0.00    +0.057 A 
ATOM     12  C4  UNL     1      18.751  10.878  35.717  0.00  0.00    +0.123 A 
ATOM     13  N3  UNL     1      19.383  12.045  35.452  0.00  0.00    -0.262 N 
ATOM     14  C20 UNL     1      20.637  12.519  36.028  0.00  0.00    +0.173 C 
ATOM     15  N4  UNL     1      18.671  12.750  34.587  0.00  0.00    -0.176 NA
ENDBRANCH   1  12
BRANCH   7  16
ATOM     16  N2  UNL     1      21.645   6.531  34.606  0.00  0.00    -0.304 N 
ATOM     17  C10 UNL     1      22.583   5.645  33.978  0.00  0.00    +0.280 C 
ATOM     18  O2  UNL     1      23.811   5.931  33.956  0.00  0.00    -0.267 OA
ATOM     19  H12 UNL     1      20.626   6.333  34.486  0.00  0.00    +0.149 HD
BRANCH  17  20
ATOM     20  C11 UNL     1      22.117   4.399  33.350  0.00  0.00    +0.190 A 
ATOM     21  C12 UNL     1      21.162   3.534  33.879  0.00  0.00    +0.063 A 
ATOM     22  C13 UNL     1      21.059   2.530  32.944  0.00  0.00    +0.021 A 
ATOM     23  C14 UNL     1      20.264   1.387  32.916  0.00  0.00    +0.011 A 
ATOM     24  C15 UNL     1      20.381   0.536  31.802  0.00  0.00    +0.001 A 
ATOM     25  C16 UNL     1      21.281   0.846  30.756  0.00  0.00    +0.004 A 
ATOM     26  C17 UNL     1      22.070   2.011  30.817  0.00  0.00    +0.047 A 
ATOM     27  C18 UNL     1      21.930   2.832  31.932  0.00  0.00    +0.136 A 
ATOM     28  O3  UNL     1      22.558   3.953  32.186  0.00  0.00    -0.450 OA
ENDBRANCH  17  20
ENDBRANCH   7  16
TORSDOF 3
ENDMDL
MODEL 3
REMARK VINA RESULT:    -6.623      5.635      8.024
REMARK INTER + INTRA:          -8.283
REMARK INTER:                  -7.599
REMARK INTRA:                  -0.683
REMARK UNBOUND:                -0.498
REMARK  Name = /home/qwerty/github/datacon2025hack/step_04_hit_selection/docking/ligands/lig_440.pdb
REMARK  5 active torsions:
REMARK  status: ('A' for Active; 'I' for Inactive)
REMARK    1  A    between atoms: C1_1  and  C2_2
REMARK    2  A    between atoms: C4_4  and  C5_5
REMARK    3  A    between atoms: C9_11  and  N2_12
REMARK    4  A    between atoms: C10_13  and  C11_15
REMARK    5  A    between atoms: N3_25  and  C20_26
REMARK                            x       y       z     vdW  Elec       q    Type
REMARK                         _______ _______ _______ _____ _____    ______ ____
ROOT
ATOM      1  C5  UNL     1      15.273   0.372  23.520  0.00  0.00    +0.265 C 
ATOM      2  O1  UNL     1      14.106   0.077  23.893  0.00  0.00    -0.268 OA
ATOM      3  N1  UNL     1      16.243   0.801  24.493  0.00  0.00    -0.295 N 
ATOM      4  C6  UNL     1      16.208   0.249  25.855  0.00  0.00    +0.108 C 
ATOM      5  C7  UNL     1      16.007   1.357  26.903  0.00  0.00    +0.021 C 
ATOM      6  C8  UNL     1      16.559   2.729  26.466  0.00  0.00    +0.025 C 
ATOM      7  C9  UNL     1      17.694   2.615  25.433  0.00  0.00    +0.091 C 
ATOM      8  C19 UNL     1      17.172   1.898  24.169  0.00  0.00    +0.130 C 
ENDROOT
BRANCH   1  12
ATOM      9  C1  UNL     1      16.990  -1.266  19.087  0.00  0.00    +0.067 C 
ATOM     10  C2  UNL     1      16.376  -0.437  20.164  0.00  0.00    +0.061 A 
ATOM     11  C3  UNL     1      16.381  -0.736  21.513  0.00  0.00    +0.057 A 
ATOM     12  C4  UNL     1      15.620   0.265  22.086  0.00  0.00    +0.123 A 
ATOM     13  N3  UNL     1      15.187   1.091  21.105  0.00  0.00    -0.262 N 
ATOM     14  C20 UNL     1      14.332   2.264  21.253  0.00  0.00    +0.173 C 
ATOM     15  N4  UNL     1      15.634   0.663  19.935  0.00  0.00    -0.176 NA
ENDBRANCH   1  12
BRANCH   7  16
ATOM     16  N2  UNL     1      18.854   1.915  26.001  0.00  0.00    -0.304 N 
ATOM     17  C10 UNL     1      19.930   2.612  26.648  0.00  0.00    +0.280 C 
ATOM     18  O2  UNL     1      19.952   3.872  26.665  0.00  0.00    -0.267 OA
ATOM     19  H12 UNL     1      18.938   0.880  25.885  0.00  0.00    +0.149 HD
BRANCH  17  20
ATOM     20  C11 UNL     1      21.017   1.858  27.291  0.00  0.00    +0.190 A 
ATOM     21  C12 UNL     1      22.206   2.404  27.772  0.00  0.00    +0.063 A 
ATOM     22  C13 UNL     1      22.891   1.325  28.282  0.00  0.00    +0.021 A 
ATOM     23  C14 UNL     1      24.137   1.243  28.899  0.00  0.00    +0.011 A 
ATOM     24  C15 UNL     1      24.574  -0.024  29.325  0.00  0.00    +0.001 A 
ATOM     25  C16 UNL     1      23.764  -1.165  29.125  0.00  0.00    +0.004 A 
ATOM     26  C17 UNL     1      22.509  -1.047  28.498  0.00  0.00    +0.047 A 
ATOM     27  C18 UNL     1      22.105   0.221  28.088  0.00  0.00    +0.136 A 
ATOM     28  O3  UNL     1      20.985   0.552  27.495  0.00  0.00    -0.450 OA
ENDBRANCH  17  20
ENDBRANCH   7  16
TORSDOF 3
ENDMDL
MODEL 4
REMARK VINA RESULT:    -6.562      2.614      8.525
REMARK INTER + INTRA:          -8.211
REMARK INTER:                  -7.569
REMARK INTRA:                  -0.643
REMARK UNBOUND:                -0.498
REMARK  Name = /home/qwerty/github/datacon2025hack/step_04_hit_selection/docking/ligands/lig_440.pdb
REMARK  5 active torsions:
REMARK  status: ('A' for Active; 'I' for Inactive)
REMARK    1  A    between atoms: C1_1  and  C2_2
REMARK    2  A    between atoms: C4_4  and  C5_5
REMARK    3  A    between atoms: C9_11  and  N2_12
REMARK    4  A    between atoms: C10_13  and  C11_15
REMARK    5  A    between atoms: N3_25  and  C20_26
REMARK                            x       y       z     vdW  Elec       q    Type
REMARK                         _______ _______ _______ _____ _____    ______ ____
ROOT
ATOM      1  C5  UNL     1      21.355   6.035  33.760  0.00  0.00    +0.265 C 
ATOM      2  O1  UNL     1      20.513   6.307  34.658  0.00  0.00    -0.268 OA
ATOM      3  N1  UNL     1      21.135   4.902  32.899  0.00  0.00    -0.295 N 
ATOM      4  C6  UNL     1      19.765   4.523  32.523  0.00  0.00    +0.108 C 
ATOM      5  C7  UNL     1      19.435   3.093  32.981  0.00  0.00    +0.021 C 
ATOM      6  C8  UNL     1      20.667   2.170  33.066  0.00  0.00    +0.025 C 
ATOM      7  C9  UNL     1      21.811   2.613  32.136  0.00  0.00    +0.091 C 
ATOM      8  C19 UNL     1      22.266   4.037  32.520  0.00  0.00    +0.130 C 
ENDROOT
BRANCH   1  12
ATOM      9  C1  UNL     1      24.653   9.463  32.131  0.00  0.00    +0.067 C 
ATOM     10  C2  UNL     1      23.989   8.369  32.896  0.00  0.00    +0.061 A 
ATOM     11  C3  UNL     1      22.793   7.762  32.565  0.00  0.00    +0.057 A 
ATOM     12  C4  UNL     1      22.552   6.891  33.610  0.00  0.00    +0.123 A 
ATOM     13  N3  UNL     1      23.558   7.007  34.507  0.00  0.00    -0.262 N 
ATOM     14  C20 UNL     1      23.697   6.296  35.774  0.00  0.00    +0.173 C 
ATOM     15  N4  UNL     1      24.429   7.910  34.084  0.00  0.00    -0.176 NA
ENDBRANCH   1  12
BRANCH   7  16
ATOM     16  N2  UNL     1      21.399   2.547  30.728  0.00  0.00    -0.304 N 
ATOM     17  C10 UNL     1      22.187   1.884  29.728  0.00  0.00    +0.280 C 
ATOM     18  O2  UNL     1      23.319   1.411  30.020  0.00  0.00    -0.267 OA
ATOM     19  H12 UNL     1      20.534   3.045  30.420  0.00  0.00    +0.149 HD
BRANCH  17  20
ATOM     20  C11 UNL     1      21.680   1.756  28.353  0.00  0.00    +0.190 A 
ATOM     21  C12 UNL     1      20.834   0.749  27.892  0.00  0.00    +0.063 A 
ATOM     22  C13 UNL     1      20.638   1.054  26.565  0.00  0.00    +0.021 A 
ATOM     23  C14 UNL     1      19.884   0.415  25.583  0.00  0.00    +0.011 A 
ATOM     24  C15 UNL     1      19.876   0.978  24.294  0.00  0.00    +0.001 A 
ATOM     25  C16 UNL     1      20.614   2.153  24.022  0.00  0.00    +0.004 A 
ATOM     26  C17 UNL     1      21.365   2.774  25.037  0.00  0.00    +0.047 A 
ATOM     27  C18 UNL     1      21.353   2.192  26.303  0.00  0.00    +0.136 A 
ATOM     28  O3  UNL     1      21.972   2.603  27.381  0.00  0.00    -0.450 OA
ENDBRANCH  17  20
ENDBRANCH   7  16
TORSDOF 3
ENDMDL
MODEL 5
REMARK VINA RESULT:    -6.528     13.163     15.986
REMARK INTER + INTRA:          -8.171
REMARK INTER:                  -7.582
REMARK INTRA:                  -0.589
REMARK UNBOUND:                -0.498
REMARK  Name = /home/qwerty/github/datacon2025hack/step_04_hit_selection/docking/ligands/lig_440.pdb
REMARK  5 active torsions:
REMARK  status: ('A' for Active; 'I' for Inactive)
REMARK    1  A    between atoms: C1_1  and  C2_2
REMARK    2  A    between atoms: C4_4  and  C5_5
REMARK    3  A    between atoms: C9_11  and  N2_12
REMARK    4  A    between atoms: C10_13  and  C11_15
REMARK    5  A    between atoms: N3_25  and  C20_26
REMARK                            x       y       z     vdW  Elec       q    Type
REMARK                         _______ _______ _______ _____ _____    ______ ____
ROOT
ATOM      1  C5  UNL     1       9.141  12.791  29.281  0.00  0.00    +0.265 C 
ATOM      2  O1  UNL     1       8.235  13.384  29.927  0.00  0.00    -0.268 OA
ATOM      3  N1  UNL     1       8.951  11.419  28.889  0.00  0.00    -0.295 N 
ATOM      4  C6  UNL     1       7.606  10.932  28.551  0.00  0.00    +0.108 C 
ATOM      5  C7  UNL     1       7.180   9.780  29.476  0.00  0.00    +0.021 C 
ATOM      6  C8  UNL     1       8.362   8.952  30.018  0.00  0.00    +0.025 C 
ATOM      7  C9  UNL     1       9.600   9.008  29.104  0.00  0.00    +0.091 C 
ATOM      8  C19 UNL     1      10.076  10.471  28.971  0.00  0.00    +0.130 C 
ENDROOT
BRANCH   1  12
ATOM      9  C1  UNL     1      12.731  15.287  26.799  0.00  0.00    +0.067 C 
ATOM     10  C2  UNL     1      11.944  14.595  27.859  0.00  0.00    +0.061 A 
ATOM     11  C3  UNL     1      10.770  13.893  27.665  0.00  0.00    +0.057 A 
ATOM     12  C4  UNL     1      10.379  13.524  28.938  0.00  0.00    +0.123 A 
ATOM     13  N3  UNL     1      11.282  14.008  29.822  0.00  0.00    -0.262 N 
ATOM     14  C20 UNL     1      11.249  13.880  31.275  0.00  0.00    +0.173 C 
ATOM     15  N4  UNL     1      12.228  14.668  29.174  0.00  0.00    -0.176 NA
ENDBRANCH   1  12
BRANCH   7  16
ATOM     16  N2  UNL     1       9.311   8.420  27.790  0.00  0.00    -0.304 N 
ATOM     17  C10 UNL     1       9.337   7.003  27.560  0.00  0.00    +0.280 C 
ATOM     18  O2  UNL     1       9.705   6.218  28.475  0.00  0.00    -0.267 OA
ATOM     19  H12 UNL     1       9.135   9.047  26.973  0.00  0.00    +0.149 HD
BRANCH  17  20
ATOM     20  C11 UNL     1       8.939   6.459  26.253  0.00  0.00    +0.190 A 
ATOM     21  C12 UNL     1       8.305   5.236  26.044  0.00  0.00    +0.063 A 
ATOM     22  C13 UNL     1       8.136   5.171  24.680  0.00  0.00    +0.021 A 
ATOM     23  C14 UNL     1       7.559   4.190  23.877  0.00  0.00    +0.011 A 
ATOM     24  C15 UNL     1       7.529   4.415  22.489  0.00  0.00    +0.001 A 
ATOM     25  C16 UNL     1       8.070   5.602  21.944  0.00  0.00    +0.004 A 
ATOM     26  C17 UNL     1       8.645   6.574  22.785  0.00  0.00    +0.047 A 
ATOM     27  C18 UNL     1       8.660   6.322  24.155  0.00  0.00    +0.136 A 
ATOM     28  O3  UNL     1       9.137   7.085  25.105  0.00  0.00    -0.450 OA
ENDBRANCH  17  20
ENDBRANCH   7  16
TORSDOF 3
ENDMDL
MODEL 6
REMARK VINA RESULT:    -6.527     12.325     14.134
REMARK INTER + INTRA:          -8.171
REMARK INTER:                  -7.506
REMARK INTRA:                  -0.664
REMARK UNBOUND:                -0.498
REMARK  Name = /home/qwerty/github/datacon2025hack/step_04_hit_selection/docking/ligands/lig_440.pdb
REMARK  5 active torsions:
REMARK  status: ('A' for Active; 'I' for Inactive)
REMARK    1  A    between atoms: C1_1  and  C2_2
REMARK    2  A    between atoms: C4_4  and  C5_5
REMARK    3  A    between atoms: C9_11  and  N2_12
REMARK    4  A    between atoms: C10_13  and  C11_15
REMARK    5  A    between atoms: N3_25  and  C20_26
REMARK                            x       y       z     vdW  Elec       q    Type
REMARK                         _______ _______ _______ _____ _____    ______ ____
ROOT
ATOM      1  C5  UNL     1      10.662   3.375  21.915  0.00  0.00    +0.265 C 
ATOM      2  O1  UNL     1      10.226   2.208  21.724  0.00  0.00    -0.268 OA
ATOM      3  N1  UNL     1       9.785   4.383  22.451  0.00  0.00    -0.295 N 
ATOM      4  C6  UNL     1       8.739   4.006  23.413  0.00  0.00    +0.108 C 
ATOM      5  C7  UNL     1       7.339   4.360  22.883  0.00  0.00    +0.021 C 
ATOM      6  C8  UNL     1       7.329   5.560  21.915  0.00  0.00    +0.025 C 
ATOM      7  C9  UNL     1       8.513   6.518  22.139  0.00  0.00    +0.091 C 
ATOM      8  C19 UNL     1       9.839   5.758  21.925  0.00  0.00    +0.130 C 
ENDROOT
BRANCH   1  12
ATOM      9  C1  UNL     1      14.854   4.781  19.520  0.00  0.00    +0.067 C 
ATOM     10  C2  UNL     1      13.893   4.277  20.543  0.00  0.00    +0.061 A 
ATOM     11  C3  UNL     1      12.547   4.042  20.339  0.00  0.00    +0.057 A 
ATOM     12  C4  UNL     1      12.072   3.680  21.585  0.00  0.00    +0.123 A 
ATOM     13  N3  UNL     1      13.098   3.722  22.465  0.00  0.00    -0.262 N 
ATOM     14  C20 UNL     1      13.044   3.443  23.896  0.00  0.00    +0.173 C 
ATOM     15  N4  UNL     1      14.204   4.094  21.841  0.00  0.00    -0.176 NA
ENDBRANCH   1  12
BRANCH   7  16
ATOM     16  N2  UNL     1       8.455   7.123  23.476  0.00  0.00    -0.304 N 
ATOM     17  C10 UNL     1       8.337   8.540  23.674  0.00  0.00    +0.280 C 
ATOM     18  O2  UNL     1       8.373   9.325  22.687  0.00  0.00    -0.267 OA
ATOM     19  H12 UNL     1       8.560   6.517  24.321  0.00  0.00    +0.149 HD
BRANCH  17  20
ATOM     20  C11 UNL     1       8.179   9.087  25.030  0.00  0.00    +0.190 A 
ATOM     21  C12 UNL     1       8.558  10.364  25.437  0.00  0.00    +0.063 A 
ATOM     22  C13 UNL     1       8.209  10.412  26.768  0.00  0.00    +0.021 A 
ATOM     23  C14 UNL     1       8.338  11.431  27.709  0.00  0.00    +0.011 A 
ATOM     24  C15 UNL     1       7.877  11.178  29.014  0.00  0.00    +0.001 A 
ATOM     25  C16 UNL     1       7.305   9.927  29.341  0.00  0.00    +0.004 A 
ATOM     26  C17 UNL     1       7.190   8.919  28.365  0.00  0.00    +0.047 A 
ATOM     27  C18 UNL     1       7.656   9.201  27.083  0.00  0.00    +0.136 A 
ATOM     28  O3  UNL     1       7.642   8.415  26.035  0.00  0.00    -0.450 OA
ENDBRANCH  17  20
ENDBRANCH   7  16
TORSDOF 3
ENDMDL
MODEL 7
REMARK VINA RESULT:    -6.521      3.218      4.246
REMARK INTER + INTRA:          -8.163
REMARK INTER:                  -7.475
REMARK INTRA:                  -0.688
REMARK UNBOUND:                -0.498
REMARK  Name = /home/qwerty/github/datacon2025hack/step_04_hit_selection/docking/ligands/lig_440.pdb
REMARK  5 active torsions:
REMARK  status: ('A' for Active; 'I' for Inactive)
REMARK    1  A    between atoms: C1_1  and  C2_2
REMARK    2  A    between atoms: C4_4  and  C5_5
REMARK    3  A    between atoms: C9_11  and  N2_12
REMARK    4  A    between atoms: C10_13  and  C11_15
REMARK    5  A    between atoms: N3_25  and  C20_26
REMARK                            x       y       z     vdW  Elec       q    Type
REMARK                         _______ _______ _______ _____ _____    ______ ____
ROOT
ATOM      1  C5  UNL     1      19.800   1.355  26.887  0.00  0.00    +0.265 C 
ATOM      2  O1  UNL     1      20.295   0.497  26.107  0.00  0.00    -0.268 OA
ATOM      3  N1  UNL     1      20.626   1.950  27.904  0.00  0.00    -0.295 N 
ATOM      4  C6  UNL     1      22.056   2.179  27.647  0.00  0.00    +0.108 C 
ATOM      5  C7  UNL     1      22.934   1.419  28.656  0.00  0.00    +0.021 C 
ATOM      6  C8  UNL     1      22.256   1.197  30.023  0.00  0.00    +0.025 C 
ATOM      7  C9  UNL     1      21.175   2.249  30.331  0.00  0.00    +0.091 C 
ATOM      8  C19 UNL     1      20.074   2.190  29.249  0.00  0.00    +0.130 C 
ENDROOT
BRANCH   1  12
ATOM      9  C1  UNL     1      14.778   1.416  27.128  0.00  0.00    +0.067 C 
ATOM     10  C2  UNL     1      16.199   1.753  26.825  0.00  0.00    +0.061 A 
ATOM     11  C3  UNL     1      17.295   0.963  27.111  0.00  0.00    +0.057 A 
ATOM     12  C4  UNL     1      18.378   1.733  26.734  0.00  0.00    +0.123 A 
ATOM     13  N3  UNL     1      17.922   2.918  26.267  0.00  0.00    -0.262 N 
ATOM     14  C20 UNL     1      18.718   4.043  25.788  0.00  0.00    +0.173 C 
ATOM     15  N4  UNL     1      16.600   2.941  26.331  0.00  0.00    -0.176 NA
ENDBRANCH   1  12
BRANCH   7  16
ATOM     16  N2  UNL     1      21.759   3.593  30.424  0.00  0.00    -0.304 N 
ATOM     17  C10 UNL     1      21.867   4.300  31.669  0.00  0.00    +0.280 C 
ATOM     18  O2  UNL     1      21.369   3.814  32.721  0.00  0.00    -0.267 OA
ATOM     19  H12 UNL     1      22.059   4.086  29.552  0.00  0.00    +0.149 HD
BRANCH  17  20
ATOM     20  C11 UNL     1      22.554   5.599  31.725  0.00  0.00    +0.190 A 
ATOM     21  C12 UNL     1      22.297   6.687  30.892  0.00  0.00    +0.063 A 
ATOM     22  C13 UNL     1      23.171   7.657  31.325  0.00  0.00    +0.021 A 
ATOM     23  C14 UNL     1      23.380   8.961  30.881  0.00  0.00    +0.011 A 
ATOM     24  C15 UNL     1      24.361   9.726  31.538  0.00  0.00    +0.001 A 
ATOM     25  C16 UNL     1      25.101   9.174  32.609  0.00  0.00    +0.004 A 
ATOM     26  C17 UNL     1      24.864   7.853  33.032  0.00  0.00    +0.047 A 
ATOM     27  C18 UNL     1      23.886   7.121  32.362  0.00  0.00    +0.136 A 
ATOM     28  O3  UNL     1      23.508   5.889  32.593  0.00  0.00    -0.450 OA
ENDBRANCH  17  20
ENDBRANCH   7  16
TORSDOF 3
ENDMDL
MODEL 8
REMARK VINA RESULT:    -6.496      3.580      9.010
REMARK INTER + INTRA:          -8.134
REMARK INTER:                  -7.438
REMARK INTRA:                  -0.696
REMARK UNBOUND:                -0.498
REMARK  Name = /home/qwerty/github/datacon2025hack/step_04_hit_selection/docking/ligands/lig_440.pdb
REMARK  5 active torsions:
REMARK  status: ('A' for Active; 'I' for Inactive)
REMARK    1  A    between atoms: C1_1  and  C2_2
REMARK    2  A    between atoms: C4_4  and  C5_5
REMARK    3  A    between atoms: C9_11  and  N2_12
REMARK    4  A    between atoms: C10_13  and  C11_15
REMARK    5  A    between atoms: N3_25  and  C20_26
REMARK                            x       y       z     vdW  Elec       q    Type
REMARK                         _______ _______ _______ _____ _____    ______ ____
ROOT
ATOM      1  C5  UNL     1      21.667   3.312  31.063  0.00  0.00    +0.265 C 
ATOM      2  O1  UNL     1      22.550   2.910  31.868  0.00  0.00    -0.268 OA
ATOM      3  N1  UNL     1      21.194   2.429  30.029  0.00  0.00    -0.295 N 
ATOM      4  C6  UNL     1      21.113   0.983  30.280  0.00  0.00    +0.108 C 
ATOM      5  C7  UNL     1      21.992   0.194  29.295  0.00  0.00    +0.021 C 
ATOM      6  C8  UNL     1      22.179   0.895  27.935  0.00  0.00    +0.025 C 
ATOM      7  C9  UNL     1      21.027   1.858  27.595  0.00  0.00    +0.091 C 
ATOM      8  C19 UNL     1      20.935   2.955  28.677  0.00  0.00    +0.130 C 
ENDROOT
BRANCH   1  12
ATOM      9  C1  UNL     1      21.050   8.294  30.775  0.00  0.00    +0.067 C 
ATOM     10  C2  UNL     1      20.873   6.848  31.092  0.00  0.00    +0.061 A 
ATOM     11  C3  UNL     1      21.780   5.843  30.814  0.00  0.00    +0.057 A 
ATOM     12  C4  UNL     1      21.135   4.685  31.204  0.00  0.00    +0.123 A 
ATOM     13  N3  UNL     1      19.907   5.012  31.669  0.00  0.00    -0.262 N 
ATOM     14  C20 UNL     1      18.878   4.101  32.159  0.00  0.00    +0.173 C 
ATOM     15  N4  UNL     1      19.738   6.323  31.594  0.00  0.00    -0.176 NA
ENDBRANCH   1  12
BRANCH   7  16
ATOM     16  N2  UNL     1      19.756   1.132  27.463  0.00  0.00    -0.304 N 
ATOM     17  C10 UNL     1      19.200   0.782  26.187  0.00  0.00    +0.280 C 
ATOM     18  O2  UNL     1      19.752   1.176  25.124  0.00  0.00    -0.267 OA
ATOM     19  H12 UNL     1      19.201   0.908  28.319  0.00  0.00    +0.149 HD
BRANCH  17  20
ATOM     20  C11 UNL     1      17.979  -0.034  26.111  0.00  0.00    +0.190 A 
ATOM     21  C12 UNL     1      16.831   0.155  26.877  0.00  0.00    +0.063 A 
ATOM     22  C13 UNL     1      15.974  -0.834  26.451  0.00  0.00    +0.021 A 
ATOM     23  C14 UNL     1      14.676  -1.149  26.845  0.00  0.00    +0.011 A 
ATOM     24  C15 UNL     1      14.045  -2.236  26.212  0.00  0.00    +0.001 A 
ATOM     25  C16 UNL     1      14.722  -2.972  25.211  0.00  0.00    +0.004 A 
ATOM     26  C17 UNL     1      16.034  -2.625  24.837  0.00  0.00    +0.047 A 
ATOM     27  C18 UNL     1      16.630  -1.545  25.483  0.00  0.00    +0.136 A 
ATOM     28  O3  UNL     1      17.830  -1.057  25.287  0.00  0.00    -0.450 OA
ENDBRANCH  17  20
ENDBRANCH   7  16
TORSDOF 3
ENDMDL
MODEL 9
REMARK VINA RESULT:    -6.372     12.898     16.064
REMARK INTER + INTRA:          -7.988
REMARK INTER:                  -7.354
REMARK INTRA:                  -0.634
REMARK UNBOUND:                -0.498
REMARK  Name = /home/qwerty/github/datacon2025hack/step_04_hit_selection/docking/ligands/lig_440.pdb
REMARK  5 active torsions:
REMARK  status: ('A' for Active; 'I' for Inactive)
REMARK    1  A    between atoms: C1_1  and  C2_2
REMARK    2  A    between atoms: C4_4  and  C5_5
REMARK    3  A    between atoms: C9_11  and  N2_12
REMARK    4  A    between atoms: C10_13  and  C11_15
REMARK    5  A    between atoms: N3_25  and  C20_26
REMARK                            x       y       z     vdW  Elec       q    Type
REMARK                         _______ _______ _______ _____ _____    ______ ____
ROOT
ATOM      1  C5  UNL     1      12.187  13.874  31.320  0.00  0.00    +0.265 C 
ATOM      2  O1  UNL     1      13.234  14.542  31.104  0.00  0.00    -0.268 OA
ATOM      3  N1  UNL     1      11.456  13.321  30.209  0.00  0.00    -0.295 N 
ATOM      4  C6  UNL     1      12.177  12.871  29.009  0.00  0.00    +0.108 C 
ATOM      5  C7  UNL     1      11.716  13.639  27.759  0.00  0.00    +0.021 C 
ATOM      6  C8  UNL     1      10.259  14.137  27.841  0.00  0.00    +0.025 C 
ATOM      7  C9  UNL     1       9.391  13.291  28.790  0.00  0.00    +0.091 C 
ATOM      8  C19 UNL     1       9.983  13.346  30.216  0.00  0.00    +0.130 C 
ENDROOT
BRANCH   1  12
ATOM      9  C1  UNL     1       9.977  14.447  35.800  0.00  0.00    +0.067 C 
ATOM     10  C2  UNL     1      10.788  13.926  34.662  0.00  0.00    +0.061 A 
ATOM     11  C3  UNL     1      11.023  14.583  33.470  0.00  0.00    +0.057 A 
ATOM     12  C4  UNL     1      11.735  13.672  32.713  0.00  0.00    +0.123 A 
ATOM     13  N3  UNL     1      11.887  12.538  33.436  0.00  0.00    -0.262 N 
ATOM     14  C20 UNL     1      12.550  11.307  33.018  0.00  0.00    +0.173 C 
ATOM     15  N4  UNL     1      11.305  12.682  34.616  0.00  0.00    -0.176 NA
ENDBRANCH   1  12
BRANCH   7  16
ATOM     16  N2  UNL     1       9.281  11.907  28.311  0.00  0.00    -0.304 N 
ATOM     17  C10 UNL     1       8.235  11.025  28.745  0.00  0.00    +0.280 C 
ATOM     18  O2  UNL     1       7.422  11.394  29.636  0.00  0.00    -0.267 OA
ATOM     19  H12 UNL     1      10.016  11.522  27.677  0.00  0.00    +0.149 HD
BRANCH  17  20
ATOM     20  C11 UNL     1       8.109   9.683  28.157  0.00  0.00    +0.190 A 
ATOM     21  C12 UNL     1       8.524   9.318  26.878  0.00  0.00    +0.063 A 
ATOM     22  C13 UNL     1       8.206   7.982  26.788  0.00  0.00    +0.021 A 
ATOM     23  C14 UNL     1       8.383   7.069  25.751  0.00  0.00    +0.011 A 
ATOM     24  C15 UNL     1       7.951   5.747  25.963  0.00  0.00    +0.001 A 
ATOM     25  C16 UNL     1       7.360   5.375  27.192  0.00  0.00    +0.004 A 
ATOM     26  C17 UNL     1       7.196   6.323  28.219  0.00  0.00    +0.047 A 
ATOM     27  C18 UNL     1       7.634   7.624  27.979  0.00  0.00    +0.136 A 
ATOM     28  O3  UNL     1       7.581   8.650  28.791  0.00  0.00    -0.450 OA
ENDBRANCH  17  20
ENDBRANCH   7  16
TORSDOF 3
ENDMDL
