REMARK  Name = /home/qwerty/github/datacon2025hack/step_04_hit_selection/docking/ligands/lig_263.pdb
REMARK  4 active torsions:
REMARK  status: ('A' for Active; 'I' for Inactive)
REMARK    1  A    between atoms: C1_2  and  C14_19
REMARK    2  A    between atoms: N1_3  and  C2_4
REMARK    3  A    between atoms: C7_10  and  C8_11
REMARK    4  A    between atoms: C18_23  and  C19_24
REMARK                            x       y       z     vdW  Elec       q    Type
REMARK                         _______ _______ _______ _____ _____    ______ ____
ROOT
ATOM      1  O1  UNL     1       0.852  -0.801  -1.808  0.00  0.00    -0.270 OA
ATOM      2  C1  UNL     1       0.485  -0.396  -0.672  0.00  0.00    +0.248 C 
ATOM      3  N1  UNL     1      -0.839  -0.702  -0.196  0.00  0.00    -0.281 N 
ATOM      4  H1  UNL     1      -1.140  -0.360   0.743  0.00  0.00    +0.155 HD
ENDROOT
BRANCH   3   5
ATOM      5  C2  UNL     1      -1.798  -1.443  -0.969  0.00  0.00    +0.047 A 
ATOM      6  C3  UNL     1      -1.428  -2.665  -1.558  0.00  0.00    +0.044 A 
ATOM      7  C4  UNL     1      -2.365  -3.432  -2.254  0.00  0.00    +0.043 A 
ATOM      8 CL1  UNL     1      -1.888  -4.955  -2.981  0.00  0.00    -0.083 Cl
ATOM      9  C5  UNL     1      -3.685  -2.992  -2.360  0.00  0.00    +0.021 A 
ATOM     10  C6  UNL     1      -4.070  -1.787  -1.771  0.00  0.00    +0.016 A 
ATOM     11  C7  UNL     1      -3.139  -1.003  -1.066  0.00  0.00    +0.058 A 
BRANCH  11  12
ATOM     12  C8  UNL     1      -3.579   0.292  -0.491  0.00  0.00    +0.248 C 
ATOM     13  O2  UNL     1      -2.799   1.283  -0.526  0.00  0.00    -0.270 OA
ATOM     14  N2  UNL     1      -4.900   0.447   0.059  0.00  0.00    -0.297 N 
ATOM     15  C9  UNL     1      -5.419  -0.542   1.014  0.00  0.00    +0.108 C 
ATOM     16  C10 UNL     1      -6.925  -0.734   0.812  0.00  0.00    +0.019 C 
ATOM     17  C11 UNL     1      -7.654   0.614   0.838  0.00  0.00    +0.003 C 
ATOM     18  C12 UNL     1      -7.073   1.567  -0.213  0.00  0.00    +0.019 C 
ATOM     19  C13 UNL     1      -5.567   1.753  -0.007  0.00  0.00    +0.108 C 
ENDBRANCH  11  12
ENDBRANCH   3   5
BRANCH   2  20
ATOM     20  C14 UNL     1       1.430   0.399   0.149  0.00  0.00    +0.038 A 
ATOM     21  C15 UNL     1       0.968   1.366   1.058  0.00  0.00    +0.013 A 
ATOM     22  C16 UNL     1       1.873   2.117   1.810  0.00  0.00    +0.001 A 
ATOM     23  C17 UNL     1       3.246   1.920   1.661  0.00  0.00    +0.010 A 
ATOM     24  C18 UNL     1       3.735   0.966   0.752  0.00  0.00    -0.001 A 
ATOM     25  C27 UNL     1       2.816   0.214  -0.004  0.00  0.00    +0.023 A 
BRANCH  24  26
ATOM     26  C19 UNL     1       5.196   0.757   0.589  0.00  0.00    +0.047 A 
ATOM     27  C20 UNL     1       6.188   1.689   0.907  0.00  0.00    +0.036 A 
ATOM     28  C21 UNL     1       7.378   1.069   0.594  0.00  0.00    +0.000 A 
ATOM     29  C22 UNL     1       8.691   1.521   0.703  0.00  0.00    +0.010 A 
ATOM     30  C23 UNL     1       9.719   0.647   0.306  0.00  0.00    +0.001 A 
ATOM     31  C24 UNL     1       9.413  -0.641  -0.187  0.00  0.00    +0.002 A 
ATOM     32  C25 UNL     1       8.076  -1.066  -0.286  0.00  0.00    +0.026 A 
ATOM     33  C26 UNL     1       7.079  -0.178   0.114  0.00  0.00    +0.047 A 
ATOM     34  N3  UNL     1       5.752  -0.382   0.103  0.00  0.00    -0.354 N 
ATOM     35  H23 UNL     1       5.265  -1.256  -0.195  0.00  0.00    +0.166 HD
ENDBRANCH  24  26
ENDBRANCH   2  20
TORSDOF 4
