MODEL 1
REMARK VINA RESULT:    -7.624      0.000      0.000
REMARK INTER + INTRA:         -10.752
REMARK INTER:                 -10.299
REMARK INTRA:                  -0.454
REMARK UNBOUND:                -0.454
REMARK  Name = /home/qwerty/github/datacon2025hack/step_04_hit_selection/docking/ligands/lig_99.pdb
REMARK  8 active torsions:
REMARK  status: ('A' for Active; 'I' for Inactive)
REMARK    1  A    between atoms: C1_1  and  C2_2
REMARK    2  A    between atoms: C2_2  and  C3_3
REMARK    3  A    between atoms: C2_2  and  N1_4
REMARK    4  A    between atoms: N2_7  and  C5_8
REMARK    5  A    between atoms: C8_11  and  C9_12
REMARK    6  A    between atoms: C9_12  and  N3_13
REMARK    7  A    between atoms: N4_16  and  C11_17
REMARK    8  A    between atoms: C14_20  and  C15_21
REMARK                            x       y       z     vdW  Elec       q    Type
REMARK                         _______ _______ _______ _____ _____    ______ ____
ROOT
ATOM      1  N3  UNL     1      22.383   6.299  23.535  0.00  0.00    -0.295 N 
ATOM      2  C10 UNL     1      21.917   5.297  24.451  0.00  0.00    +0.304 C 
ATOM      3  O2  UNL     1      21.218   4.337  24.032  0.00  0.00    -0.252 OA
ATOM      4  N4  UNL     1      22.211   5.426  25.847  0.00  0.00    -0.269 N 
ATOM      5  H14 UNL     1      22.917   7.110  23.916  0.00  0.00    +0.151 HD
ATOM      6  H15 UNL     1      22.541   6.357  26.180  0.00  0.00    +0.156 HD
ENDROOT
BRANCH   4   7
ATOM      7  C11 UNL     1      22.021   4.389  26.829  0.00  0.00    +0.035 A 
ATOM      8  C12 UNL     1      22.704   3.162  26.755  0.00  0.00    +0.024 A 
ATOM      9  C13 UNL     1      22.532   2.194  27.750  0.00  0.00    +0.015 A 
ATOM     10  C14 UNL     1      21.701   2.449  28.854  0.00  0.00    +0.037 A 
ATOM     11  C20 UNL     1      21.020   3.676  28.930  0.00  0.00    +0.015 A 
ATOM     12  C21 UNL     1      21.186   4.638  27.930  0.00  0.00    +0.024 A 
BRANCH  10  13
ATOM     13  C15 UNL     1      21.545   1.440  29.925  0.00  0.00    +0.247 C 
ATOM     14  O3  UNL     1      21.538   0.214  29.627  0.00  0.00    -0.270 OA
ATOM     15  N5  UNL     1      21.393   1.836  31.300  0.00  0.00    -0.293 N 
ATOM     16  C16 UNL     1      22.356   2.761  31.906  0.00  0.00    +0.136 C 
ATOM     17  C17 UNL     1      21.678   3.521  33.051  0.00  0.00    +0.179 C 
ATOM     18  O4  UNL     1      21.086   2.618  33.971  0.00  0.00    -0.377 OA
ATOM     19  C18 UNL     1      20.036   1.909  33.340  0.00  0.00    +0.179 C 
ATOM     20  C19 UNL     1      20.579   1.025  32.208  0.00  0.00    +0.136 C 
ENDBRANCH  10  13
ENDBRANCH   4   7
BRANCH   1  21
ATOM     21  C9  UNL     1      22.393   6.100  22.088  0.00  0.00    +0.141 C 
BRANCH  21  25
ATOM     22  C5  UNL     1      23.610   9.805  20.228  0.00  0.00    +0.035 A 
ATOM     23  C6  UNL     1      22.249   9.489  20.362  0.00  0.00    +0.023 A 
ATOM     24  C7  UNL     1      21.855   8.279  20.944  0.00  0.00    +0.007 A 
ATOM     25  C8  UNL     1      22.819   7.371  21.408  0.00  0.00    -0.030 A 
ATOM     26  C22 UNL     1      24.179   7.700  21.311  0.00  0.00    +0.007 A 
ATOM     27  C23 UNL     1      24.573   8.907  20.722  0.00  0.00    +0.023 A 
BRANCH  22  31
ATOM     28  N1  UNL     1      23.874  13.537  19.496  0.00  0.00    -0.297 N 
ATOM     29  C4  UNL     1      23.723  12.339  20.266  0.00  0.00    +0.304 C 
ATOM     30  O1  UNL     1      23.397  12.404  21.483  0.00  0.00    -0.253 OA
ATOM     31  N2  UNL     1      23.987  11.067  19.653  0.00  0.00    -0.269 N 
ATOM     32  H8  UNL     1      24.221  13.455  18.513  0.00  0.00    +0.151 HD
ATOM     33  H9  UNL     1      24.554  11.059  18.776  0.00  0.00    +0.156 HD
BRANCH  28  35
ATOM     34  C1  UNL     1      22.290  15.377  19.844  0.00  0.00    +0.027 C 
ATOM     35  C2  UNL     1      23.716  14.871  20.078  0.00  0.00    +0.068 C 
ATOM     36  C3  UNL     1      24.742  15.823  19.466  0.00  0.00    +0.027 C 
ENDBRANCH  28  35
ENDBRANCH  22  31
ENDBRANCH  21  25
ENDBRANCH   1  21
TORSDOF 6
ENDMDL
MODEL 2
REMARK VINA RESULT:    -7.384     11.995     14.174
REMARK INTER + INTRA:         -10.427
REMARK INTER:                 -10.105
REMARK INTRA:                  -0.322
REMARK UNBOUND:                -0.454
REMARK  Name = /home/qwerty/github/datacon2025hack/step_04_hit_selection/docking/ligands/lig_99.pdb
REMARK  8 active torsions:
REMARK  status: ('A' for Active; 'I' for Inactive)
REMARK    1  A    between atoms: C1_1  and  C2_2
REMARK    2  A    between atoms: C2_2  and  C3_3
REMARK    3  A    between atoms: C2_2  and  N1_4
REMARK    4  A    between atoms: N2_7  and  C5_8
REMARK    5  A    between atoms: C8_11  and  C9_12
REMARK    6  A    between atoms: C9_12  and  N3_13
REMARK    7  A    between atoms: N4_16  and  C11_17
REMARK    8  A    between atoms: C14_20  and  C15_21
REMARK                            x       y       z     vdW  Elec       q    Type
REMARK                         _______ _______ _______ _____ _____    ______ ____
ROOT
ATOM      1  N3  UNL     1       9.724   7.632  20.024  0.00  0.00    -0.295 N 
ATOM      2  C10 UNL     1      10.837   6.730  20.110  0.00  0.00    +0.304 C 
ATOM      3  O2  UNL     1      11.998   7.179  20.302  0.00  0.00    -0.252 OA
ATOM      4  N4  UNL     1      10.623   5.325  19.926  0.00  0.00    -0.269 N 
ATOM      5  H14 UNL     1       8.781   7.238  19.814  0.00  0.00    +0.151 HD
ATOM      6  H15 UNL     1       9.718   5.033  19.501  0.00  0.00    +0.156 HD
ENDROOT
BRANCH   4   7
ATOM      7  C11 UNL     1      11.589   4.298  20.222  0.00  0.00    +0.035 A 
ATOM      8  C12 UNL     1      11.275   3.199  21.043  0.00  0.00    +0.024 A 
ATOM      9  C13 UNL     1      12.221   2.195  21.273  0.00  0.00    +0.015 A 
ATOM     10  C14 UNL     1      13.485   2.254  20.660  0.00  0.00    +0.037 A 
ATOM     11  C20 UNL     1      13.797   3.350  19.839  0.00  0.00    +0.015 A 
ATOM     12  C21 UNL     1      12.854   4.357  19.618  0.00  0.00    +0.024 A 
BRANCH  10  13
ATOM     13  C15 UNL     1      14.474   1.174  20.875  0.00  0.00    +0.247 C 
ATOM     14  O3  UNL     1      14.986   0.594  19.878  0.00  0.00    -0.270 OA
ATOM     15  N5  UNL     1      14.854   0.769  22.202  0.00  0.00    -0.293 N 
ATOM     16  C16 UNL     1      15.300   1.773  23.174  0.00  0.00    +0.136 C 
ATOM     17  C17 UNL     1      15.013   1.268  24.592  0.00  0.00    +0.179 C 
ATOM     18  O4  UNL     1      15.576  -0.019  24.790  0.00  0.00    -0.377 OA
ATOM     19  C18 UNL     1      14.941  -0.956  23.941  0.00  0.00    +0.179 C 
ATOM     20  C19 UNL     1      15.212  -0.626  22.466  0.00  0.00    +0.136 C 
ENDBRANCH  10  13
ENDBRANCH   4   7
BRANCH   1  21
ATOM     21  C9  UNL     1       9.793   9.015  20.487  0.00  0.00    +0.141 C 
BRANCH  21  25
ATOM     22  C5  UNL     1       7.742   9.445  24.266  0.00  0.00    +0.035 A 
ATOM     23  C6  UNL     1       8.572   8.338  24.028  0.00  0.00    +0.023 A 
ATOM     24  C7  UNL     1       9.218   8.187  22.796  0.00  0.00    +0.007 A 
ATOM     25  C8  UNL     1       9.050   9.148  21.787  0.00  0.00    -0.030 A 
ATOM     26  C22 UNL     1       8.253  10.274  22.035  0.00  0.00    +0.007 A 
ATOM     27  C23 UNL     1       7.600  10.422  23.264  0.00  0.00    +0.023 A 
BRANCH  22  31
ATOM     28  N1  UNL     1       7.134   9.570  28.028  0.00  0.00    -0.297 N 
ATOM     29  C4  UNL     1       7.833   9.719  26.787  0.00  0.00    +0.304 C 
ATOM     30  O1  UNL     1       9.064   9.996  26.781  0.00  0.00    -0.253 OA
ATOM     31  N2  UNL     1       7.114   9.591  25.550  0.00  0.00    -0.269 N 
ATOM     32  H8  UNL     1       6.100   9.418  28.000  0.00  0.00    +0.151 HD
ATOM     33  H9  UNL     1       6.074   9.687  25.581  0.00  0.00    +0.156 HD
BRANCH  28  35
ATOM     34  C1  UNL     1       7.056   8.976  30.406  0.00  0.00    +0.027 C 
ATOM     35  C2  UNL     1       7.781   9.781  29.324  0.00  0.00    +0.068 C 
ATOM     36  C3  UNL     1       7.783  11.272  29.660  0.00  0.00    +0.027 C 
ENDBRANCH  28  35
ENDBRANCH  22  31
ENDBRANCH  21  25
ENDBRANCH   1  21
TORSDOF 6
ENDMDL
MODEL 3
REMARK VINA RESULT:    -7.275      5.977      8.731
REMARK INTER + INTRA:         -10.281
REMARK INTER:                  -9.613
REMARK INTRA:                  -0.667
REMARK UNBOUND:                -0.454
REMARK  Name = /home/qwerty/github/datacon2025hack/step_04_hit_selection/docking/ligands/lig_99.pdb
REMARK  8 active torsions:
REMARK  status: ('A' for Active; 'I' for Inactive)
REMARK    1  A    between atoms: C1_1  and  C2_2
REMARK    2  A    between atoms: C2_2  and  C3_3
REMARK    3  A    between atoms: C2_2  and  N1_4
REMARK    4  A    between atoms: N2_7  and  C5_8
REMARK    5  A    between atoms: C8_11  and  C9_12
REMARK    6  A    between atoms: C9_12  and  N3_13
REMARK    7  A    between atoms: N4_16  and  C11_17
REMARK    8  A    between atoms: C14_20  and  C15_21
REMARK                            x       y       z     vdW  Elec       q    Type
REMARK                         _______ _______ _______ _____ _____    ______ ____
ROOT
ATOM      1  N3  UNL     1      20.369   4.253  21.888  0.00  0.00    -0.295 N 
ATOM      2  C10 UNL     1      20.600   4.081  23.294  0.00  0.00    +0.304 C 
ATOM      3  O2  UNL     1      20.222   4.965  24.106  0.00  0.00    -0.252 OA
ATOM      4  N4  UNL     1      21.305   2.923  23.758  0.00  0.00    -0.269 N 
ATOM      5  H14 UNL     1      20.737   3.529  21.233  0.00  0.00    +0.151 HD
ATOM      6  H15 UNL     1      21.834   2.372  23.048  0.00  0.00    +0.156 HD
ENDROOT
BRANCH   4   7
ATOM      7  C11 UNL     1      21.393   2.507  25.134  0.00  0.00    +0.035 A 
ATOM      8  C12 UNL     1      20.530   1.532  25.670  0.00  0.00    +0.024 A 
ATOM      9  C13 UNL     1      20.672   1.117  26.998  0.00  0.00    +0.015 A 
ATOM     10  C14 UNL     1      21.698   1.641  27.802  0.00  0.00    +0.037 A 
ATOM     11  C20 UNL     1      22.561   2.611  27.265  0.00  0.00    +0.015 A 
ATOM     12  C21 UNL     1      22.412   3.032  25.942  0.00  0.00    +0.024 A 
BRANCH  10  13
ATOM     13  C15 UNL     1      21.870   1.175  29.197  0.00  0.00    +0.247 C 
ATOM     14  O3  UNL     1      22.944   0.604  29.532  0.00  0.00    -0.270 OA
ATOM     15  N5  UNL     1      20.830   1.356  30.173  0.00  0.00    -0.293 N 
ATOM     16  C16 UNL     1      20.240   2.683  30.378  0.00  0.00    +0.136 C 
ATOM     17  C17 UNL     1      18.811   2.527  30.908  0.00  0.00    +0.179 C 
ATOM     18  O4  UNL     1      18.791   1.701  32.061  0.00  0.00    -0.377 OA
ATOM     19  C18 UNL     1      19.192   0.388  31.719  0.00  0.00    +0.179 C 
ATOM     20  C19 UNL     1      20.651   0.370  31.241  0.00  0.00    +0.136 C 
ENDBRANCH  10  13
ENDBRANCH   4   7
BRANCH   1  21
ATOM     21  C9  UNL     1      19.416   5.225  21.359  0.00  0.00    +0.141 C 
BRANCH  21  25
ATOM     22  C5  UNL     1      15.592   3.330  20.686  0.00  0.00    +0.035 A 
ATOM     23  C6  UNL     1      16.513   2.773  21.586  0.00  0.00    +0.023 A 
ATOM     24  C7  UNL     1      17.761   3.374  21.787  0.00  0.00    +0.007 A 
ATOM     25  C8  UNL     1      18.101   4.547  21.096  0.00  0.00    -0.030 A 
ATOM     26  C22 UNL     1      17.167   5.128  20.224  0.00  0.00    +0.007 A 
ATOM     27  C23 UNL     1      15.922   4.523  20.017  0.00  0.00    +0.023 A 
BRANCH  22  31
ATOM     28  N1  UNL     1      12.119   1.913  21.368  0.00  0.00    -0.297 N 
ATOM     29  C4  UNL     1      13.245   2.790  21.484  0.00  0.00    +0.304 C 
ATOM     30  O1  UNL     1      13.287   3.651  22.406  0.00  0.00    -0.253 OA
ATOM     31  N2  UNL     1      14.306   2.709  20.520  0.00  0.00    -0.269 N 
ATOM     32  H8  UNL     1      12.077   1.264  20.549  0.00  0.00    +0.151 HD
ATOM     33  H9  UNL     1      14.102   2.235  19.612  0.00  0.00    +0.156 HD
BRANCH  28  35
ATOM     34  C1  UNL     1      10.344   0.614  22.453  0.00  0.00    +0.027 C 
ATOM     35  C2  UNL     1      10.958   2.002  22.256  0.00  0.00    +0.068 C 
ATOM     36  C3  UNL     1       9.936   2.975  21.668  0.00  0.00    +0.027 C 
ENDBRANCH  28  35
ENDBRANCH  22  31
ENDBRANCH  21  25
ENDBRANCH   1  21
TORSDOF 6
ENDMDL
MODEL 4
REMARK VINA RESULT:    -7.237      7.002     12.652
REMARK INTER + INTRA:         -10.230
REMARK INTER:                  -9.544
REMARK INTRA:                  -0.686
REMARK UNBOUND:                -0.454
REMARK  Name = /home/qwerty/github/datacon2025hack/step_04_hit_selection/docking/ligands/lig_99.pdb
REMARK  8 active torsions:
REMARK  status: ('A' for Active; 'I' for Inactive)
REMARK    1  A    between atoms: C1_1  and  C2_2
REMARK    2  A    between atoms: C2_2  and  C3_3
REMARK    3  A    between atoms: C2_2  and  N1_4
REMARK    4  A    between atoms: N2_7  and  C5_8
REMARK    5  A    between atoms: C8_11  and  C9_12
REMARK    6  A    between atoms: C9_12  and  N3_13
REMARK    7  A    between atoms: N4_16  and  C11_17
REMARK    8  A    between atoms: C14_20  and  C15_21
REMARK                            x       y       z     vdW  Elec       q    Type
REMARK                         _______ _______ _______ _____ _____    ______ ____
ROOT
ATOM      1  N3  UNL     1      18.159   2.254  36.141  0.00  0.00    -0.295 N 
ATOM      2  C10 UNL     1      18.514   2.087  34.761  0.00  0.00    +0.304 C 
ATOM      3  O2  UNL     1      17.679   2.359  33.858  0.00  0.00    -0.252 OA
ATOM      4  N4  UNL     1      19.803   1.562  34.421  0.00  0.00    -0.269 N 
ATOM      5  H14 UNL     1      18.852   1.973  36.869  0.00  0.00    +0.151 HD
ATOM      6  H15 UNL     1      20.343   1.097  35.182  0.00  0.00    +0.156 HD
ENDROOT
BRANCH   4   7
ATOM      7  C11 UNL     1      20.376   1.571  33.099  0.00  0.00    +0.035 A 
ATOM      8  C12 UNL     1      21.246   2.591  32.674  0.00  0.00    +0.024 A 
ATOM      9  C13 UNL     1      21.821   2.545  31.399  0.00  0.00    +0.015 A 
ATOM     10  C14 UNL     1      21.564   1.462  30.541  0.00  0.00    +0.037 A 
ATOM     11  C20 UNL     1      20.697   0.442  30.968  0.00  0.00    +0.015 A 
ATOM     12  C21 UNL     1      20.116   0.494  32.237  0.00  0.00    +0.024 A 
BRANCH  10  13
ATOM     13  C15 UNL     1      22.200   1.394  29.207  0.00  0.00    +0.247 C 
ATOM     14  O3  UNL     1      23.171   0.611  29.021  0.00  0.00    -0.270 OA
ATOM     15  N5  UNL     1      21.734   2.215  28.121  0.00  0.00    -0.293 N 
ATOM     16  C16 UNL     1      20.310   2.222  27.767  0.00  0.00    +0.136 C 
ATOM     17  C17 UNL     1      19.958   3.560  27.108  0.00  0.00    +0.179 C 
ATOM     18  O4  UNL     1      20.826   3.826  26.018  0.00  0.00    -0.377 OA
ATOM     19  C18 UNL     1      22.150   3.996  26.488  0.00  0.00    +0.179 C 
ATOM     20  C19 UNL     1      22.679   2.695  27.110  0.00  0.00    +0.136 C 
ENDBRANCH  10  13
ENDBRANCH   4   7
BRANCH   1  21
ATOM     21  C9  UNL     1      17.011   3.047  36.569  0.00  0.00    +0.141 C 
BRANCH  21  25
ATOM     22  C5  UNL     1      18.270   7.088  37.437  0.00  0.00    +0.035 A 
ATOM     23  C6  UNL     1      19.140   6.194  36.795  0.00  0.00    +0.023 A 
ATOM     24  C7  UNL     1      18.741   4.878  36.533  0.00  0.00    +0.007 A 
ATOM     25  C8  UNL     1      17.459   4.442  36.905  0.00  0.00    -0.030 A 
ATOM     26  C22 UNL     1      16.574   5.344  37.512  0.00  0.00    +0.007 A 
ATOM     27  C23 UNL     1      16.976   6.657  37.779  0.00  0.00    +0.023 A 
BRANCH  22  31
ATOM     28  N1  UNL     1      19.407  10.687  36.898  0.00  0.00    -0.297 N 
ATOM     29  C4  UNL     1      18.706   9.462  36.656  0.00  0.00    +0.304 C 
ATOM     30  O1  UNL     1      18.072   9.297  35.577  0.00  0.00    -0.253 OA
ATOM     31  N2  UNL     1      18.695   8.442  37.666  0.00  0.00    -0.269 N 
ATOM     32  H8  UNL     1      19.857  10.825  37.831  0.00  0.00    +0.151 HD
ATOM     33  H9  UNL     1      18.938   8.723  38.642  0.00  0.00    +0.156 HD
BRANCH  28  35
ATOM     34  C1  UNL     1      20.680  12.611  36.066  0.00  0.00    +0.027 C 
ATOM     35  C2  UNL     1      19.383  11.807  35.956  0.00  0.00    +0.068 C 
ATOM     36  C3  UNL     1      18.166  12.689  36.238  0.00  0.00    +0.027 C 
ENDBRANCH  28  35
ENDBRANCH  22  31
ENDBRANCH  21  25
ENDBRANCH   1  21
TORSDOF 6
ENDMDL
MODEL 5
REMARK VINA RESULT:    -7.205      3.641     13.527
REMARK INTER + INTRA:         -10.186
REMARK INTER:                  -9.543
REMARK INTRA:                  -0.643
REMARK UNBOUND:                -0.454
REMARK  Name = /home/qwerty/github/datacon2025hack/step_04_hit_selection/docking/ligands/lig_99.pdb
REMARK  8 active torsions:
REMARK  status: ('A' for Active; 'I' for Inactive)
REMARK    1  A    between atoms: C1_1  and  C2_2
REMARK    2  A    between atoms: C2_2  and  C3_3
REMARK    3  A    between atoms: C2_2  and  N1_4
REMARK    4  A    between atoms: N2_7  and  C5_8
REMARK    5  A    between atoms: C8_11  and  C9_12
REMARK    6  A    between atoms: C9_12  and  N3_13
REMARK    7  A    between atoms: N4_16  and  C11_17
REMARK    8  A    between atoms: C14_20  and  C15_21
REMARK                            x       y       z     vdW  Elec       q    Type
REMARK                         _______ _______ _______ _____ _____    ______ ____
ROOT
ATOM      1  N3  UNL     1      21.636   3.201  27.644  0.00  0.00    -0.295 N 
ATOM      2  C10 UNL     1      21.983   3.528  26.290  0.00  0.00    +0.304 C 
ATOM      3  O2  UNL     1      22.916   2.910  25.712  0.00  0.00    -0.252 OA
ATOM      4  N4  UNL     1      21.295   4.592  25.622  0.00  0.00    -0.269 N 
ATOM      5  H14 UNL     1      20.894   3.762  28.115  0.00  0.00    +0.151 HD
ATOM      6  H15 UNL     1      20.739   5.245  26.215  0.00  0.00    +0.156 HD
ENDROOT
BRANCH   4   7
ATOM      7  C11 UNL     1      21.368   4.864  24.210  0.00  0.00    +0.035 A 
ATOM      8  C12 UNL     1      20.603   4.142  23.274  0.00  0.00    +0.024 A 
ATOM      9  C13 UNL     1      20.663   4.462  21.914  0.00  0.00    +0.015 A 
ATOM     10  C14 UNL     1      21.461   5.529  21.468  0.00  0.00    +0.037 A 
ATOM     11  C20 UNL     1      22.222   6.252  22.403  0.00  0.00    +0.015 A 
ATOM     12  C21 UNL     1      22.168   5.925  23.760  0.00  0.00    +0.024 A 
BRANCH  10  13
ATOM     13  C15 UNL     1      21.497   5.891  20.034  0.00  0.00    +0.247 C 
ATOM     14  O3  UNL     1      22.117   5.151  19.222  0.00  0.00    -0.270 OA
ATOM     15  N5  UNL     1      20.844   7.079  19.552  0.00  0.00    -0.293 N 
ATOM     16  C16 UNL     1      19.435   7.324  19.880  0.00  0.00    +0.136 C 
ATOM     17  C17 UNL     1      19.165   8.832  19.860  0.00  0.00    +0.179 C 
ATOM     18  O4  UNL     1      19.578   9.399  18.627  0.00  0.00    -0.377 OA
ATOM     19  C18 UNL     1      20.982   9.285  18.493  0.00  0.00    +0.179 C 
ATOM     20  C19 UNL     1      21.405   7.811  18.414  0.00  0.00    +0.136 C 
ENDBRANCH  10  13
ENDBRANCH   4   7
BRANCH   1  21
ATOM     21  C9  UNL     1      22.062   1.961  28.288  0.00  0.00    +0.141 C 
BRANCH  21  25
ATOM     22  C5  UNL     1      18.946   0.627  30.967  0.00  0.00    +0.035 A 
ATOM     23  C6  UNL     1      20.287   0.291  31.212  0.00  0.00    +0.023 A 
ATOM     24  C7  UNL     1      21.293   0.705  30.332  0.00  0.00    +0.007 A 
ATOM     25  C8  UNL     1      20.973   1.467  29.198  0.00  0.00    -0.030 A 
ATOM     26  C22 UNL     1      19.639   1.837  28.972  0.00  0.00    +0.007 A 
ATOM     27  C23 UNL     1      18.631   1.418  29.847  0.00  0.00    +0.023 A 
BRANCH  22  31
ATOM     28  N1  UNL     1      17.036  -0.060  34.194  0.00  0.00    -0.297 N 
ATOM     29  C4  UNL     1      17.902   0.620  33.279  0.00  0.00    +0.304 C 
ATOM     30  O1  UNL     1      18.604   1.592  33.674  0.00  0.00    -0.253 OA
ATOM     31  N2  UNL     1      17.935   0.215  31.902  0.00  0.00    -0.269 N 
ATOM     32  H8  UNL     1      16.410  -0.809  33.821  0.00  0.00    +0.151 HD
ATOM     33  H9  UNL     1      17.133  -0.350  31.543  0.00  0.00    +0.156 HD
BRANCH  28  35
ATOM     34  C1  UNL     1      16.455  -0.835  36.447  0.00  0.00    +0.027 C 
ATOM     35  C2  UNL     1      16.879   0.359  35.588  0.00  0.00    +0.068 C 
ATOM     36  C3  UNL     1      15.852   1.487  35.673  0.00  0.00    +0.027 C 
ENDBRANCH  28  35
ENDBRANCH  22  31
ENDBRANCH  21  25
ENDBRANCH   1  21
TORSDOF 6
ENDMDL
MODEL 6
REMARK VINA RESULT:    -7.187     14.310     16.729
REMARK INTER + INTRA:         -10.162
REMARK INTER:                  -9.675
REMARK INTRA:                  -0.487
REMARK UNBOUND:                -0.454
REMARK  Name = /home/qwerty/github/datacon2025hack/step_04_hit_selection/docking/ligands/lig_99.pdb
REMARK  8 active torsions:
REMARK  status: ('A' for Active; 'I' for Inactive)
REMARK    1  A    between atoms: C1_1  and  C2_2
REMARK    2  A    between atoms: C2_2  and  C3_3
REMARK    3  A    between atoms: C2_2  and  N1_4
REMARK    4  A    between atoms: N2_7  and  C5_8
REMARK    5  A    between atoms: C8_11  and  C9_12
REMARK    6  A    between atoms: C9_12  and  N3_13
REMARK    7  A    between atoms: N4_16  and  C11_17
REMARK    8  A    between atoms: C14_20  and  C15_21
REMARK                            x       y       z     vdW  Elec       q    Type
REMARK                         _______ _______ _______ _____ _____    ______ ____
ROOT
ATOM      1  N3  UNL     1       9.831  13.755  29.804  0.00  0.00    -0.295 N 
ATOM      2  C10 UNL     1      10.611  13.431  30.963  0.00  0.00    +0.304 C 
ATOM      3  O2  UNL     1      11.291  12.372  30.990  0.00  0.00    -0.252 OA
ATOM      4  N4  UNL     1      10.571  14.295  32.106  0.00  0.00    -0.269 N 
ATOM      5  H14 UNL     1       9.238  14.613  29.828  0.00  0.00    +0.151 HD
ATOM      6  H15 UNL     1       9.798  14.993  32.147  0.00  0.00    +0.156 HD
ENDROOT
BRANCH   4   7
ATOM      7  C11 UNL     1      11.474  14.226  33.226  0.00  0.00    +0.035 A 
ATOM      8  C12 UNL     1      11.017  13.975  34.533  0.00  0.00    +0.024 A 
ATOM      9  C13 UNL     1      11.925  13.868  35.591  0.00  0.00    +0.015 A 
ATOM     10  C14 UNL     1      13.307  13.976  35.357  0.00  0.00    +0.037 A 
ATOM     11  C20 UNL     1      13.763  14.223  34.052  0.00  0.00    +0.015 A 
ATOM     12  C21 UNL     1      12.854  14.339  32.997  0.00  0.00    +0.024 A 
BRANCH  10  13
ATOM     13  C15 UNL     1      14.270  13.827  36.471  0.00  0.00    +0.247 C 
ATOM     14  O3  UNL     1      14.536  14.822  37.199  0.00  0.00    -0.270 OA
ATOM     15  N5  UNL     1      14.916  12.568  36.730  0.00  0.00    -0.293 N 
ATOM     16  C16 UNL     1      14.112  11.349  36.873  0.00  0.00    +0.136 C 
ATOM     17  C17 UNL     1      14.960  10.134  36.484  0.00  0.00    +0.179 C 
ATOM     18  O4  UNL     1      16.175  10.115  37.217  0.00  0.00    -0.377 OA
ATOM     19  C18 UNL     1      16.967  11.233  36.863  0.00  0.00    +0.179 C 
ATOM     20  C19 UNL     1      16.276  12.542  37.271  0.00  0.00    +0.136 C 
ENDBRANCH  10  13
ENDBRANCH   4   7
BRANCH   1  21
ATOM     21  C9  UNL     1      10.040  13.111  28.509  0.00  0.00    +0.141 C 
BRANCH  21  25
ATOM     22  C5  UNL     1       7.525   9.608  28.234  0.00  0.00    +0.035 A 
ATOM     23  C6  UNL     1       8.571   9.808  27.320  0.00  0.00    +0.023 A 
ATOM     24  C7  UNL     1       9.371  10.953  27.395  0.00  0.00    +0.007 A 
ATOM     25  C8  UNL     1       9.141  11.912  28.393  0.00  0.00    -0.030 A 
ATOM     26  C22 UNL     1       8.122  11.698  29.332  0.00  0.00    +0.007 A 
ATOM     27  C23 UNL     1       7.317  10.556  29.253  0.00  0.00    +0.023 A 
BRANCH  22  31
ATOM     28  N1  UNL     1       6.323   6.010  28.616  0.00  0.00    -0.297 N 
ATOM     29  C4  UNL     1       6.963   7.244  28.962  0.00  0.00    +0.304 C 
ATOM     30  O1  UNL     1       7.690   7.315  29.992  0.00  0.00    -0.253 OA
ATOM     31  N2  UNL     1       6.738   8.409  28.153  0.00  0.00    -0.269 N 
ATOM     32  H8  UNL     1       5.666   6.003  27.803  0.00  0.00    +0.151 HD
ATOM     33  H9  UNL     1       5.904   8.409  27.524  0.00  0.00    +0.156 HD
BRANCH  28  35
ATOM     34  C1  UNL     1       6.291   3.559  28.575  0.00  0.00    +0.027 C 
ATOM     35  C2  UNL     1       6.430   4.809  29.446  0.00  0.00    +0.068 C 
ATOM     36  C3  UNL     1       5.357   4.840  30.535  0.00  0.00    +0.027 C 
ENDBRANCH  28  35
ENDBRANCH  22  31
ENDBRANCH  21  25
ENDBRANCH   1  21
TORSDOF 6
ENDMDL
MODEL 7
REMARK VINA RESULT:    -7.161     11.627     14.367
REMARK INTER + INTRA:         -10.127
REMARK INTER:                  -9.630
REMARK INTRA:                  -0.496
REMARK UNBOUND:                -0.454
REMARK  Name = /home/qwerty/github/datacon2025hack/step_04_hit_selection/docking/ligands/lig_99.pdb
REMARK  8 active torsions:
REMARK  status: ('A' for Active; 'I' for Inactive)
REMARK    1  A    between atoms: C1_1  and  C2_2
REMARK    2  A    between atoms: C2_2  and  C3_3
REMARK    3  A    between atoms: C2_2  and  N1_4
REMARK    4  A    between atoms: N2_7  and  C5_8
REMARK    5  A    between atoms: C8_11  and  C9_12
REMARK    6  A    between atoms: C9_12  and  N3_13
REMARK    7  A    between atoms: N4_16  and  C11_17
REMARK    8  A    between atoms: C14_20  and  C15_21
REMARK                            x       y       z     vdW  Elec       q    Type
REMARK                         _______ _______ _______ _____ _____    ______ ____
ROOT
ATOM      1  N3  UNL     1      15.536  14.160  36.329  0.00  0.00    -0.295 N 
ATOM      2  C10 UNL     1      16.573  13.171  36.251  0.00  0.00    +0.304 C 
ATOM      3  O2  UNL     1      16.447  12.076  36.859  0.00  0.00    -0.252 OA
ATOM      4  N4  UNL     1      17.771  13.460  35.518  0.00  0.00    -0.269 N 
ATOM      5  H14 UNL     1      15.689  15.078  35.857  0.00  0.00    +0.151 HD
ATOM      6  H15 UNL     1      17.950  14.458  35.273  0.00  0.00    +0.156 HD
ENDROOT
BRANCH   4   7
ATOM      7  C11 UNL     1      18.772  12.490  35.157  0.00  0.00    +0.035 A 
ATOM      8  C12 UNL     1      19.996  12.396  35.845  0.00  0.00    +0.024 A 
ATOM      9  C13 UNL     1      20.928  11.412  35.499  0.00  0.00    +0.015 A 
ATOM     10  C14 UNL     1      20.639  10.484  34.484  0.00  0.00    +0.037 A 
ATOM     11  C20 UNL     1      19.416  10.576  33.800  0.00  0.00    +0.015 A 
ATOM     12  C21 UNL     1      18.490  11.565  34.140  0.00  0.00    +0.024 A 
BRANCH  10  13
ATOM     13  C15 UNL     1      21.610   9.420  34.142  0.00  0.00    +0.247 C 
ATOM     14  O3  UNL     1      21.738   8.427  34.909  0.00  0.00    -0.270 OA
ATOM     15  N5  UNL     1      22.415   9.506  32.953  0.00  0.00    -0.293 N 
ATOM     16  C16 UNL     1      21.779   9.752  31.654  0.00  0.00    +0.136 C 
ATOM     17  C17 UNL     1      22.782  10.436  30.720  0.00  0.00    +0.179 C 
ATOM     18  O4  UNL     1      23.986   9.690  30.642  0.00  0.00    -0.377 OA
ATOM     19  C18 UNL     1      24.625   9.675  31.905  0.00  0.00    +0.179 C 
ATOM     20  C19 UNL     1      23.765   8.938  32.942  0.00  0.00    +0.136 C 
ENDBRANCH  10  13
ENDBRANCH   4   7
BRANCH   1  21
ATOM     21  C9  UNL     1      14.185  13.849  36.786  0.00  0.00    +0.141 C 
BRANCH  21  25
ATOM     22  C5  UNL     1      11.436  14.211  33.472  0.00  0.00    +0.035 A 
ATOM     23  C6  UNL     1      12.779  14.592  33.328  0.00  0.00    +0.023 A 
ATOM     24  C7  UNL     1      13.664  14.496  34.408  0.00  0.00    +0.007 A 
ATOM     25  C8  UNL     1      13.219  14.008  35.646  0.00  0.00    -0.030 A 
ATOM     26  C22 UNL     1      11.887  13.591  35.783  0.00  0.00    +0.007 A 
ATOM     27  C23 UNL     1      11.000  13.693  34.705  0.00  0.00    +0.023 A 
BRANCH  22  31
ATOM     28  N1  UNL     1       9.976  13.877  29.966  0.00  0.00    -0.297 N 
ATOM     29  C4  UNL     1      10.722  13.524  31.137  0.00  0.00    +0.304 C 
ATOM     30  O1  UNL     1      11.492  12.524  31.121  0.00  0.00    -0.253 OA
ATOM     31  N2  UNL     1      10.556  14.291  32.339  0.00  0.00    -0.269 N 
ATOM     32  H8  UNL     1       9.289  14.662  30.034  0.00  0.00    +0.151 HD
ATOM     33  H9  UNL     1       9.701  14.886  32.422  0.00  0.00    +0.156 HD
BRANCH  28  35
ATOM     34  C1  UNL     1      10.965  13.743  27.726  0.00  0.00    +0.027 C 
ATOM     35  C2  UNL     1      10.022  13.084  28.736  0.00  0.00    +0.068 C 
ATOM     36  C3  UNL     1       8.612  12.948  28.161  0.00  0.00    +0.027 C 
ENDBRANCH  28  35
ENDBRANCH  22  31
ENDBRANCH  21  25
ENDBRANCH   1  21
TORSDOF 6
ENDMDL
MODEL 8
REMARK VINA RESULT:    -6.951     10.996     14.119
REMARK INTER + INTRA:          -9.843
REMARK INTER:                  -9.835
REMARK INTRA:                  -0.008
REMARK UNBOUND:                -0.454
REMARK  Name = /home/qwerty/github/datacon2025hack/step_04_hit_selection/docking/ligands/lig_99.pdb
REMARK  8 active torsions:
REMARK  status: ('A' for Active; 'I' for Inactive)
REMARK    1  A    between atoms: C1_1  and  C2_2
REMARK    2  A    between atoms: C2_2  and  C3_3
REMARK    3  A    between atoms: C2_2  and  N1_4
REMARK    4  A    between atoms: N2_7  and  C5_8
REMARK    5  A    between atoms: C8_11  and  C9_12
REMARK    6  A    between atoms: C9_12  and  N3_13
REMARK    7  A    between atoms: N4_16  and  C11_17
REMARK    8  A    between atoms: C14_20  and  C15_21
REMARK                            x       y       z     vdW  Elec       q    Type
REMARK                         _______ _______ _______ _____ _____    ______ ____
ROOT
ATOM      1  N3  UNL     1      15.625  12.966  36.726  0.00  0.00    -0.295 N 
ATOM      2  C10 UNL     1      16.554  11.932  37.079  0.00  0.00    +0.304 C 
ATOM      3  O2  UNL     1      16.248  11.082  37.955  0.00  0.00    -0.252 OA
ATOM      4  N4  UNL     1      17.848  11.905  36.464  0.00  0.00    -0.269 N 
ATOM      5  H14 UNL     1      15.924  13.687  36.033  0.00  0.00    +0.151 HD
ATOM      6  H15 UNL     1      18.157  12.768  35.967  0.00  0.00    +0.156 HD
ENDROOT
BRANCH   4   7
ATOM      7  C11 UNL     1      18.775  10.806  36.540  0.00  0.00    +0.035 A 
ATOM      8  C12 UNL     1      19.988  10.807  35.827  0.00  0.00    +0.024 A 
ATOM      9  C13 UNL     1      20.888   9.744  35.958  0.00  0.00    +0.015 A 
ATOM     10  C14 UNL     1      20.607   8.678  36.830  0.00  0.00    +0.037 A 
ATOM     11  C20 UNL     1      19.398   8.678  37.544  0.00  0.00    +0.015 A 
ATOM     12  C21 UNL     1      18.496   9.737  37.404  0.00  0.00    +0.024 A 
BRANCH  10  13
ATOM     13  C15 UNL     1      21.575   7.571  36.996  0.00  0.00    +0.247 C 
ATOM     14  O3  UNL     1      21.920   7.217  38.157  0.00  0.00    -0.270 OA
ATOM     15  N5  UNL     1      22.135   6.897  35.855  0.00  0.00    -0.293 N 
ATOM     16  C16 UNL     1      21.250   6.360  34.815  0.00  0.00    +0.136 C 
ATOM     17  C17 UNL     1      22.006   6.309  33.483  0.00  0.00    +0.179 C 
ATOM     18  O4  UNL     1      23.227   5.602  33.626  0.00  0.00    -0.377 OA
ATOM     19  C18 UNL     1      24.090   6.304  34.501  0.00  0.00    +0.179 C 
ATOM     20  C19 UNL     1      23.498   6.366  35.917  0.00  0.00    +0.136 C 
ENDBRANCH  10  13
ENDBRANCH   4   7
BRANCH   1  21
ATOM     21  C9  UNL     1      14.206  12.900  37.065  0.00  0.00    +0.141 C 
BRANCH  21  25
ATOM     22  C5  UNL     1      11.793  13.854  33.610  0.00  0.00    +0.035 A 
ATOM     23  C6  UNL     1      11.284  13.034  34.629  0.00  0.00    +0.023 A 
ATOM     24  C7  UNL     1      12.074  12.707  35.738  0.00  0.00    +0.007 A 
ATOM     25  C8  UNL     1      13.382  13.203  35.845  0.00  0.00    -0.030 A 
ATOM     26  C22 UNL     1      13.880  14.054  34.848  0.00  0.00    +0.007 A 
ATOM     27  C23 UNL     1      13.093  14.376  33.736  0.00  0.00    +0.023 A 
BRANCH  22  31
ATOM     28  N1  UNL     1      10.274  14.052  30.119  0.00  0.00    -0.297 N 
ATOM     29  C4  UNL     1      10.921  13.474  31.259  0.00  0.00    +0.304 C 
ATOM     30  O1  UNL     1      11.427  12.321  31.183  0.00  0.00    -0.253 OA
ATOM     31  N2  UNL     1      10.951  14.199  32.498  0.00  0.00    -0.269 N 
ATOM     32  H8  UNL     1       9.797  14.975  30.234  0.00  0.00    +0.151 HD
ATOM     33  H9  UNL     1      10.265  14.976  32.623  0.00  0.00    +0.156 HD
BRANCH  28  35
ATOM     34  C1  UNL     1      10.929  14.031  27.755  0.00  0.00    +0.027 C 
ATOM     35  C2  UNL     1      10.121  13.334  28.853  0.00  0.00    +0.068 C 
ATOM     36  C3  UNL     1       8.640  13.260  28.480  0.00  0.00    +0.027 C 
ENDBRANCH  28  35
ENDBRANCH  22  31
ENDBRANCH  21  25
ENDBRANCH   1  21
TORSDOF 6
ENDMDL
MODEL 9
REMARK VINA RESULT:    -6.913      8.189      9.679
REMARK INTER + INTRA:          -9.791
REMARK INTER:                  -9.018
REMARK INTRA:                  -0.773
REMARK UNBOUND:                -0.454
REMARK  Name = /home/qwerty/github/datacon2025hack/step_04_hit_selection/docking/ligands/lig_99.pdb
REMARK  8 active torsions:
REMARK  status: ('A' for Active; 'I' for Inactive)
REMARK    1  A    between atoms: C1_1  and  C2_2
REMARK    2  A    between atoms: C2_2  and  C3_3
REMARK    3  A    between atoms: C2_2  and  N1_4
REMARK    4  A    between atoms: N2_7  and  C5_8
REMARK    5  A    between atoms: C8_11  and  C9_12
REMARK    6  A    between atoms: C9_12  and  N3_13
REMARK    7  A    between atoms: N4_16  and  C11_17
REMARK    8  A    between atoms: C14_20  and  C15_21
REMARK                            x       y       z     vdW  Elec       q    Type
REMARK                         _______ _______ _______ _____ _____    ______ ____
ROOT
ATOM      1  N3  UNL     1      14.554   0.752  22.084  0.00  0.00    -0.295 N 
ATOM      2  C10 UNL     1      15.583   1.289  22.928  0.00  0.00    +0.304 C 
ATOM      3  O2  UNL     1      15.289   2.116  23.831  0.00  0.00    -0.252 OA
ATOM      4  N4  UNL     1      16.948   0.915  22.703  0.00  0.00    -0.269 N 
ATOM      5  H14 UNL     1      14.832   0.108  21.312  0.00  0.00    +0.151 HD
ATOM      6  H15 UNL     1      17.173   0.462  21.792  0.00  0.00    +0.156 HD
ENDROOT
BRANCH   4   7
ATOM      7  C11 UNL     1      18.036   1.180  23.609  0.00  0.00    +0.035 A 
ATOM      8  C12 UNL     1      18.633   2.451  23.700  0.00  0.00    +0.024 A 
ATOM      9  C13 UNL     1      19.658   2.686  24.623  0.00  0.00    +0.015 A 
ATOM     10  C14 UNL     1      20.080   1.667  25.494  0.00  0.00    +0.037 A 
ATOM     11  C20 UNL     1      19.481   0.399  25.405  0.00  0.00    +0.015 A 
ATOM     12  C21 UNL     1      18.465   0.163  24.476  0.00  0.00    +0.024 A 
BRANCH  10  13
ATOM     13  C15 UNL     1      21.138   1.926  26.495  0.00  0.00    +0.247 C 
ATOM     14  O3  UNL     1      22.233   2.433  26.124  0.00  0.00    -0.270 OA
ATOM     15  N5  UNL     1      20.943   1.601  27.882  0.00  0.00    -0.293 N 
ATOM     16  C16 UNL     1      19.750   2.083  28.587  0.00  0.00    +0.136 C 
ATOM     17  C17 UNL     1      19.424   1.131  29.742  0.00  0.00    +0.179 C 
ATOM     18  O4  UNL     1      20.555   0.951  30.578  0.00  0.00    -0.377 OA
ATOM     19  C18 UNL     1      21.586   0.301  29.859  0.00  0.00    +0.179 C 
ATOM     20  C19 UNL     1      22.082   1.180  28.702  0.00  0.00    +0.136 C 
ENDBRANCH  10  13
ENDBRANCH   4   7
BRANCH   1  21
ATOM     21  C9  UNL     1      13.136   0.835  22.421  0.00  0.00    +0.141 C 
BRANCH  21  25
ATOM     22  C5  UNL     1      11.401   4.411  20.725  0.00  0.00    +0.035 A 
ATOM     23  C6  UNL     1      12.436   3.736  20.059  0.00  0.00    +0.023 A 
ATOM     24  C7  UNL     1      13.013   2.591  20.619  0.00  0.00    +0.007 A 
ATOM     25  C8  UNL     1      12.556   2.099  21.851  0.00  0.00    -0.030 A 
ATOM     26  C22 UNL     1      11.496   2.748  22.501  0.00  0.00    +0.007 A 
ATOM     27  C23 UNL     1      10.924   3.898  21.945  0.00  0.00    +0.023 A 
BRANCH  22  31
ATOM     28  N1  UNL     1      10.223   7.974  20.057  0.00  0.00    -0.297 N 
ATOM     29  C4  UNL     1      11.069   6.918  20.525  0.00  0.00    +0.304 C 
ATOM     30  O1  UNL     1      12.060   7.177  21.262  0.00  0.00    -0.253 OA
ATOM     31  N2  UNL     1      10.806   5.567  20.114  0.00  0.00    -0.269 N 
ATOM     32  H8  UNL     1       9.458   7.737  19.385  0.00  0.00    +0.151 HD
ATOM     33  H9  UNL     1      10.205   5.424  19.272  0.00  0.00    +0.156 HD
BRANCH  28  35
ATOM     34  C1  UNL     1       9.196  10.070  20.811  0.00  0.00    +0.027 C 
ATOM     35  C2  UNL     1      10.486   9.383  20.356  0.00  0.00    +0.068 C 
ATOM     36  C3  UNL     1      11.066  10.071  19.120  0.00  0.00    +0.027 C 
ENDBRANCH  28  35
ENDBRANCH  22  31
ENDBRANCH  21  25
ENDBRANCH   1  21
TORSDOF 6
ENDMDL
