REMARK  Name = /home/qwerty/github/datacon2025hack/step_04_hit_selection/docking/ligands/lig_201.pdb
REMARK  6 active torsions:
REMARK  status: ('A' for Active; 'I' for Inactive)
REMARK    1  A    between atoms: C1_1  and  C2_2
REMARK    2  A    between atoms: C2_2  and  C3_3
REMARK    3  A    between atoms: C3_3  and  N1_4
REMARK    4  A    between atoms: C3_3  and  C16_19
REMARK    5  A    between atoms: C7_10  and  C8_11
REMARK    6  A    between atoms: C13_16  and  C14_17
REMARK                            x       y       z     vdW  Elec       q    Type
REMARK                         _______ _______ _______ _____ _____    ______ ____
ROOT
ATOM      1  N1  UNL     1      -0.605  -1.303   0.156  0.00  0.00    -0.292 N 
ATOM      2  C4  UNL     1       0.125  -0.859   1.312  0.00  0.00    +0.303 C 
ATOM      3  O1  UNL     1      -0.296  -1.147   2.466  0.00  0.00    -0.253 OA
ATOM      4  N2  UNL     1       1.331  -0.085   1.175  0.00  0.00    -0.285 N 
ATOM      5  C5  UNL     1       2.106   0.364   2.318  0.00  0.00    +0.110 C 
ATOM      6  C6  UNL     1       3.181   1.291   1.761  0.00  0.00    +0.029 C 
ATOM      7  C7  UNL     1       3.174   1.105   0.233  0.00  0.00    +0.038 C 
ATOM      8  C15 UNL     1       1.872   0.362  -0.098  0.00  0.00    +0.117 C 
ATOM      9  H7  UNL     1      -0.240  -1.083  -0.799  0.00  0.00    +0.151 HD
ENDROOT
BRANCH   7  10
ATOM     10  C8  UNL     1       4.410   0.342  -0.248  0.00  0.00    -0.040 A 
ATOM     11  C9  UNL     1       4.632  -0.969   0.225  0.00  0.00    +0.004 A 
ATOM     12  C10 UNL     1       5.756  -1.698  -0.174  0.00  0.00    +0.000 A 
ATOM     13  C11 UNL     1       6.677  -1.135  -1.054  0.00  0.00    +0.000 A 
ATOM     14  C12 UNL     1       6.478   0.159  -1.541  0.00  0.00    +0.003 A 
ATOM     15  C13 UNL     1       5.352   0.911  -1.152  0.00  0.00    -0.047 A 
ATOM     16  C14 UNL     1       5.186   2.301  -1.712  0.00  0.00    +0.044 C 
ENDBRANCH   7  10
BRANCH   1  17
ATOM     17  C3  UNL     1      -1.887  -2.005   0.273  0.00  0.00    +0.105 C 
BRANCH  17  18
ATOM     18  C16 UNL     1      -2.973  -1.016   0.649  0.00  0.00    -0.023 A 
ATOM     19  C17 UNL     1      -3.736  -1.209   1.816  0.00  0.00    +0.009 A 
ATOM     20  C18 UNL     1      -4.744  -0.302   2.161  0.00  0.00    +0.050 A 
ATOM     21  C19 UNL     1      -5.000   0.801   1.342  0.00  0.00    +0.162 A 
ATOM     22  C20 UNL     1      -4.225   1.020   0.195  0.00  0.00    +0.162 A 
ATOM     23  C21 UNL     1      -3.225   0.111  -0.159  0.00  0.00    +0.055 A 
ATOM     24  O2  UNL     1      -4.467   2.158  -0.584  0.00  0.00    -0.485 OA
ATOM     25  C22 UNL     1      -5.285   3.226  -0.096  0.00  0.00    +0.270 C 
ATOM     26  C23 UNL     1      -6.474   2.667   0.695  0.00  0.00    +0.270 C 
ATOM     27  O3  UNL     1      -6.024   1.702   1.652  0.00  0.00    -0.485 OA
ENDBRANCH  17  18
BRANCH  17  29
ATOM     28  C1  UNL     1      -3.466  -3.612  -0.927  0.00  0.00    +0.006 C 
ATOM     29  C2  UNL     1      -2.218  -2.736  -1.046  0.00  0.00    +0.024 C 
ENDBRANCH  17  29
ENDBRANCH   1  17
TORSDOF 4
