REMARK  Name = /home/qwerty/github/datacon2025hack/step_04_hit_selection/docking/ligands/lig_555.pdb
REMARK  7 active torsions:
REMARK  status: ('A' for Active; 'I' for Inactive)
REMARK    1  A    between atoms: C1_1  and  O1_2
REMARK    2  A    between atoms: O1_2  and  C2_3
REMARK    3  A    between atoms: C2_3  and  C3_5
REMARK    4  A    between atoms: C6_9  and  C7_10
REMARK    5  A    between atoms: C11_14  and  C12_15
REMARK    6  A    between atoms: N2_17  and  C13_18
REMARK    7  A    between atoms: C21_29  and  N5_30
REMARK                            x       y       z     vdW  Elec       q    Type
REMARK                         _______ _______ _______ _____ _____    ______ ____
ROOT
ATOM      1  C7  UNL     1       0.261  -2.767   0.954  0.00  0.00    -0.012 A 
ATOM      2  C8  UNL     1       0.670  -3.879   1.709  0.00  0.00    +0.009 A 
ATOM      3  C9  UNL     1       1.980  -3.968   2.183  0.00  0.00    +0.001 A 
ATOM      4  C10 UNL     1       2.899  -2.957   1.903  0.00  0.00    +0.013 A 
ATOM      5  C11 UNL     1       2.521  -1.844   1.132  0.00  0.00    +0.038 A 
ATOM      6  C19 UNL     1       1.196  -1.756   0.666  0.00  0.00    +0.021 A 
ENDROOT
BRANCH   1  11
ATOM      7  C3  UNL     1      -3.756   0.347  -0.489  0.00  0.00    +0.116 A 
ATOM      8  C4  UNL     1      -2.462   0.702  -0.037  0.00  0.00    +0.131 A 
ATOM      9  N1  UNL     1      -1.546  -0.254   0.285  0.00  0.00    -0.235 NA
ATOM     10  C5  UNL     1      -1.886  -1.557   0.162  0.00  0.00    +0.165 A 
ATOM     11  C6  UNL     1      -1.136  -2.677   0.463  0.00  0.00    +0.046 A 
ATOM     12  C20 UNL     1      -2.021  -3.728   0.219  0.00  0.00    +0.145 A 
ATOM     13  N3  UNL     1      -3.214  -3.245  -0.203  0.00  0.00    -0.171 NA
ATOM     14  N4  UNL     1      -3.109  -1.927  -0.232  0.00  0.00    -0.199 N 
ATOM     15  C21 UNL     1      -4.081  -1.034  -0.558  0.00  0.00    +0.136 A 
BRANCH  15  16
ATOM     16  N5  UNL     1      -5.397  -1.499  -0.887  0.00  0.00    -0.342 N 
ATOM     17  H15 UNL     1      -5.573  -2.516  -1.048  0.00  0.00    +0.144 HD
ATOM     18  H16 UNL     1      -6.231  -0.875  -0.847  0.00  0.00    +0.144 HD
ENDBRANCH  15  16
BRANCH   7  19
ATOM     19  C2  UNL     1      -4.686   1.423  -0.899  0.00  0.00    +0.344 C 
ATOM     20  O2  UNL     1      -5.537   1.221  -1.808  0.00  0.00    -0.245 OA
BRANCH  19  22
ATOM     21  C1  UNL     1      -5.419   3.776  -0.668  0.00  0.00    +0.280 C 
ATOM     22  O1  UNL     1      -4.578   2.687  -0.309  0.00  0.00    -0.464 OA
ENDBRANCH  19  22
ENDBRANCH   7  19
ENDBRANCH   1  11
BRANCH   5  23
ATOM     23  C12 UNL     1       3.506  -0.774   0.836  0.00  0.00    +0.248 C 
ATOM     24  O3  UNL     1       4.551  -0.682   1.537  0.00  0.00    -0.270 OA
ATOM     25  N2  UNL     1       3.306   0.125  -0.267  0.00  0.00    -0.282 N 
ATOM     26  H8  UNL     1       2.762  -0.220  -1.089  0.00  0.00    +0.155 HD
BRANCH  25  27
ATOM     27  C13 UNL     1       3.936   1.415  -0.370  0.00  0.00    +0.034 A 
ATOM     28  C14 UNL     1       4.196   1.955  -1.640  0.00  0.00    +0.026 A 
ATOM     29  C15 UNL     1       4.787   3.217  -1.765  0.00  0.00    +0.040 A 
ATOM     30  C16 UNL     1       5.110   3.955  -0.624  0.00  0.00    +0.124 A 
ATOM     31  F1  UNL     1       5.680   5.179  -0.747  0.00  0.00    -0.205 F 
ATOM     32  C17 UNL     1       4.836   3.436   0.644  0.00  0.00    +0.040 A 
ATOM     33  C18 UNL     1       4.246   2.174   0.774  0.00  0.00    +0.026 A 
ENDBRANCH  25  27
ENDBRANCH   5  23
TORSDOF 6
