MODEL 1
REMARK VINA RESULT:    -6.342      0.000      0.000
REMARK INTER + INTRA:          -8.317
REMARK INTER:                  -7.825
REMARK INTRA:                  -0.492
REMARK UNBOUND:                -0.492
REMARK  Name = /home/qwerty/github/datacon2025hack/step_04_hit_selection/docking/ligands/lig_682.pdb
REMARK  5 active torsions:
REMARK  status: ('A' for Active; 'I' for Inactive)
REMARK    1  A    between atoms: C2_2  and  C3_3
REMARK    2  A    between atoms: C3_3  and  N1_4
REMARK    3  A    between atoms: C4_5  and  C5_6
REMARK    4  A    between atoms: C14_20  and  N6_21
REMARK    5  A    between atoms: N7_24  and  C16_25
REMARK                            x       y       z     vdW  Elec       q    Type
REMARK                         _______ _______ _______ _____ _____    ______ ____
ROOT
ATOM      1  N1  UNL     1       9.013   7.848  24.361  0.00  0.00    -0.290 N 
ATOM      2  C4  UNL     1       8.355   9.004  24.621  0.00  0.00    +0.182 A 
ATOM      3  N3  UNL     1       7.906   9.574  23.483  0.00  0.00    -0.126 NA
ATOM      4  N4  UNL     1       8.279   8.799  22.476  0.00  0.00    -0.113 NA
ATOM      5  C11 UNL     1       8.955   7.767  23.012  0.00  0.00    +0.220 A 
ATOM      6  N5  UNL     1       9.491   6.689  22.226  0.00  0.00    -0.300 N 
ATOM      7  C12 UNL     1      10.881   6.253  22.418  0.00  0.00    +0.110 C 
ATOM      8  C13 UNL     1      11.507   5.868  21.074  0.00  0.00    +0.041 C 
ATOM      9  C14 UNL     1      10.706   4.758  20.350  0.00  0.00    +0.077 C 
ATOM     10  C17 UNL     1       9.193   4.796  20.675  0.00  0.00    +0.041 C 
ATOM     11  C18 UNL     1       8.714   6.193  21.081  0.00  0.00    +0.110 C 
ENDROOT
BRANCH   2  12
ATOM     12  C5  UNL     1       8.097   9.604  25.948  0.00  0.00    +0.088 A 
ATOM     13  C6  UNL     1       7.375   9.012  27.011  0.00  0.00    +0.077 A 
ATOM     14  C7  UNL     1       7.506   9.940  28.010  0.00  0.00    +0.153 A 
ATOM     15  O1  UNL     1       7.157  10.075  29.260  0.00  0.00    -0.461 OA
ATOM     16  C8  UNL     1       7.679  11.240  29.646  0.00  0.00    +0.198 A 
ATOM     17  C9  UNL     1       8.384  11.858  28.596  0.00  0.00    +0.067 A 
ATOM     18  C10 UNL     1       8.218  10.954  27.583  0.00  0.00    +0.085 A 
ATOM     19  N2  UNL     1       8.629  10.808  26.319  0.00  0.00    -0.349 N 
ATOM     20  H9  UNL     1       9.226  11.456  25.759  0.00  0.00    +0.166 HD
ENDBRANCH   2  12
BRANCH   9  21
ATOM     21  N6  UNL     1      11.249   3.432  20.679  0.00  0.00    -0.296 N 
ATOM     22  C15 UNL     1      12.570   3.023  20.289  0.00  0.00    +0.300 C 
ATOM     23  O2  UNL     1      13.329   3.827  19.679  0.00  0.00    -0.253 OA
ATOM     24  N7  UNL     1      13.027   1.701  20.598  0.00  0.00    -0.302 N 
ATOM     25  C16 UNL     1      14.374   1.256  20.260  0.00  0.00    +0.129 C 
ATOM     26  H15 UNL     1      10.661   2.753  21.217  0.00  0.00    +0.151 HD
ATOM     27  H16 UNL     1      12.382   1.038  21.086  0.00  0.00    +0.150 HD
ENDBRANCH   9  21
BRANCH   1  28
ATOM     28  C3  UNL     1       9.477   6.818  25.297  0.00  0.00    +0.153 C 
BRANCH  28  30
ATOM     29  C1  UNL     1       8.247   4.709  24.922  0.00  0.00    +0.005 C 
ATOM     30  C2  UNL     1       8.373   5.847  25.608  0.00  0.00    -0.013 C 
ENDBRANCH  28  30
ENDBRANCH   1  28
TORSDOF 4
ENDMDL
MODEL 2
REMARK VINA RESULT:    -6.181     15.115     16.002
REMARK INTER + INTRA:          -8.119
REMARK INTER:                  -7.462
REMARK INTRA:                  -0.657
REMARK UNBOUND:                -0.492
REMARK  Name = /home/qwerty/github/datacon2025hack/step_04_hit_selection/docking/ligands/lig_682.pdb
REMARK  5 active torsions:
REMARK  status: ('A' for Active; 'I' for Inactive)
REMARK    1  A    between atoms: C2_2  and  C3_3
REMARK    2  A    between atoms: C3_3  and  N1_4
REMARK    3  A    between atoms: C4_5  and  C5_6
REMARK    4  A    between atoms: C14_20  and  N6_21
REMARK    5  A    between atoms: N7_24  and  C16_25
REMARK                            x       y       z     vdW  Elec       q    Type
REMARK                         _______ _______ _______ _____ _____    ______ ____
ROOT
ATOM      1  N1  UNL     1      18.037  11.391  36.245  0.00  0.00    -0.290 N 
ATOM      2  C4  UNL     1      16.808  11.747  36.692  0.00  0.00    +0.182 A 
ATOM      3  N3  UNL     1      16.211  10.725  37.339  0.00  0.00    -0.126 NA
ATOM      4  N4  UNL     1      17.043   9.695  37.309  0.00  0.00    -0.113 NA
ATOM      5  C11 UNL     1      18.136  10.100  36.638  0.00  0.00    +0.220 A 
ATOM      6  N5  UNL     1      19.283   9.259  36.430  0.00  0.00    -0.300 N 
ATOM      7  C12 UNL     1      19.874   9.133  35.090  0.00  0.00    +0.110 C 
ATOM      8  C13 UNL     1      20.354   7.697  34.855  0.00  0.00    +0.041 C 
ATOM      9  C14 UNL     1      21.378   7.238  35.923  0.00  0.00    +0.077 C 
ATOM     10  C17 UNL     1      21.158   7.914  37.298  0.00  0.00    +0.041 C 
ATOM     11  C18 UNL     1      19.707   8.358  37.510  0.00  0.00    +0.110 C 
ENDROOT
BRANCH   2  12
ATOM     12  C5  UNL     1      16.158  13.068  36.552  0.00  0.00    +0.088 A 
ATOM     13  C6  UNL     1      15.060  13.380  35.716  0.00  0.00    +0.077 A 
ATOM     14  C7  UNL     1      14.816  14.692  36.026  0.00  0.00    +0.153 A 
ATOM     15  O1  UNL     1      13.959  15.621  35.701  0.00  0.00    -0.461 OA
ATOM     16  C8  UNL     1      14.289  16.677  36.447  0.00  0.00    +0.198 A 
ATOM     17  C9  UNL     1      15.395  16.396  37.272  0.00  0.00    +0.067 A 
ATOM     18  C10 UNL     1      15.669  15.099  36.933  0.00  0.00    +0.085 A 
ATOM     19  N2  UNL     1      16.521  14.143  37.315  0.00  0.00    -0.349 N 
ATOM     20  H9  UNL     1      17.274  14.205  38.036  0.00  0.00    +0.166 HD
ENDBRANCH   2  12
BRANCH   9  21
ATOM     21  N6  UNL     1      22.751   7.489  35.463  0.00  0.00    -0.296 N 
ATOM     22  C15 UNL     1      23.449   6.580  34.596  0.00  0.00    +0.300 C 
ATOM     23  O2  UNL     1      22.871   5.544  34.164  0.00  0.00    -0.253 OA
ATOM     24  N7  UNL     1      24.804   6.854  34.219  0.00  0.00    -0.302 N 
ATOM     25  C16 UNL     1      25.538   5.983  33.308  0.00  0.00    +0.129 C 
ATOM     26  H15 UNL     1      23.248   8.357  35.771  0.00  0.00    +0.151 HD
ATOM     27  H16 UNL     1      25.278   7.705  34.599  0.00  0.00    +0.150 HD
ENDBRANCH   9  21
BRANCH   1  28
ATOM     28  C3  UNL     1      19.096  12.235  35.682  0.00  0.00    +0.153 C 
BRANCH  28  30
ATOM     29  C1  UNL     1      18.358  13.360  33.610  0.00  0.00    +0.005 C 
ATOM     30  C2  UNL     1      18.968  12.322  34.188  0.00  0.00    -0.013 C 
ENDBRANCH  28  30
ENDBRANCH   1  28
TORSDOF 4
ENDMDL
MODEL 3
REMARK VINA RESULT:    -6.142     10.415     12.288
REMARK INTER + INTRA:          -8.070
REMARK INTER:                  -7.270
REMARK INTRA:                  -0.800
REMARK UNBOUND:                -0.492
REMARK  Name = /home/qwerty/github/datacon2025hack/step_04_hit_selection/docking/ligands/lig_682.pdb
REMARK  5 active torsions:
REMARK  status: ('A' for Active; 'I' for Inactive)
REMARK    1  A    between atoms: C2_2  and  C3_3
REMARK    2  A    between atoms: C3_3  and  N1_4
REMARK    3  A    between atoms: C4_5  and  C5_6
REMARK    4  A    between atoms: C14_20  and  N6_21
REMARK    5  A    between atoms: N7_24  and  C16_25
REMARK                            x       y       z     vdW  Elec       q    Type
REMARK                         _______ _______ _______ _____ _____    ______ ____
ROOT
ATOM      1  N1  UNL     1      20.257  10.834  20.519  0.00  0.00    -0.290 N 
ATOM      2  C4  UNL     1      21.499  11.376  20.496  0.00  0.00    +0.182 A 
ATOM      3  N3  UNL     1      22.407  10.493  20.034  0.00  0.00    -0.126 NA
ATOM      4  N4  UNL     1      21.765   9.367  19.763  0.00  0.00    -0.113 NA
ATOM      5  C11 UNL     1      20.472   9.576  20.069  0.00  0.00    +0.220 A 
ATOM      6  N5  UNL     1      19.450   8.583  19.874  0.00  0.00    -0.300 N 
ATOM      7  C12 UNL     1      18.500   8.278  20.953  0.00  0.00    +0.110 C 
ATOM      8  C13 UNL     1      18.184   6.779  20.973  0.00  0.00    +0.041 C 
ATOM      9  C14 UNL     1      17.617   6.281  19.621  0.00  0.00    +0.077 C 
ATOM     10  C17 UNL     1      18.148   7.087  18.411  0.00  0.00    +0.041 C 
ATOM     11  C18 UNL     1      19.514   7.725  18.684  0.00  0.00    +0.110 C 
ENDROOT
BRANCH   2  12
ATOM     12  C5  UNL     1      21.877  12.754  20.882  0.00  0.00    +0.088 A 
ATOM     13  C6  UNL     1      22.009  13.862  20.013  0.00  0.00    +0.077 A 
ATOM     14  C7  UNL     1      22.291  14.885  20.880  0.00  0.00    +0.153 A 
ATOM     15  O1  UNL     1      22.495  16.173  20.826  0.00  0.00    -0.461 OA
ATOM     16  C8  UNL     1      22.663  16.554  22.093  0.00  0.00    +0.198 A 
ATOM     17  C9  UNL     1      22.557  15.461  22.975  0.00  0.00    +0.067 A 
ATOM     18  C10 UNL     1      22.320  14.429  22.108  0.00  0.00    +0.085 A 
ATOM     19  N2  UNL     1      22.060  13.121  22.186  0.00  0.00    -0.349 N 
ATOM     20  H9  UNL     1      21.999  12.529  23.044  0.00  0.00    +0.166 HD
ENDBRANCH   2  12
BRANCH   9  21
ATOM     21  N6  UNL     1      16.147   6.319  19.632  0.00  0.00    -0.296 N 
ATOM     22  C15 UNL     1      15.347   5.127  19.577  0.00  0.00    +0.300 C 
ATOM     23  O2  UNL     1      15.899   3.991  19.562  0.00  0.00    -0.253 OA
ATOM     24  N7  UNL     1      13.918   5.229  19.544  0.00  0.00    -0.302 N 
ATOM     25  C16 UNL     1      13.065   4.047  19.531  0.00  0.00    +0.129 C 
ATOM     26  H15 UNL     1      15.656   7.242  19.682  0.00  0.00    +0.151 HD
ATOM     27  H16 UNL     1      13.473   6.176  19.537  0.00  0.00    +0.150 HD
ENDBRANCH   9  21
BRANCH   1  28
ATOM     28  C3  UNL     1      18.966  11.490  20.749  0.00  0.00    +0.153 C 
BRANCH  28  30
ATOM     29  C1  UNL     1      17.079  11.551  19.156  0.00  0.00    +0.005 C 
ATOM     30  C2  UNL     1      18.336  11.895  19.447  0.00  0.00    -0.013 C 
ENDBRANCH  28  30
ENDBRANCH   1  28
TORSDOF 4
ENDMDL
MODEL 4
REMARK VINA RESULT:    -6.136      4.015     10.053
REMARK INTER + INTRA:          -8.063
REMARK INTER:                  -7.330
REMARK INTRA:                  -0.734
REMARK UNBOUND:                -0.492
REMARK  Name = /home/qwerty/github/datacon2025hack/step_04_hit_selection/docking/ligands/lig_682.pdb
REMARK  5 active torsions:
REMARK  status: ('A' for Active; 'I' for Inactive)
REMARK    1  A    between atoms: C2_2  and  C3_3
REMARK    2  A    between atoms: C3_3  and  N1_4
REMARK    3  A    between atoms: C4_5  and  C5_6
REMARK    4  A    between atoms: C14_20  and  N6_21
REMARK    5  A    between atoms: N7_24  and  C16_25
REMARK                            x       y       z     vdW  Elec       q    Type
REMARK                         _______ _______ _______ _____ _____    ______ ____
ROOT
ATOM      1  N1  UNL     1      13.751   2.041  22.144  0.00  0.00    -0.290 N 
ATOM      2  C4  UNL     1      14.675   1.169  21.673  0.00  0.00    +0.182 A 
ATOM      3  N3  UNL     1      14.836   1.305  20.340  0.00  0.00    -0.126 NA
ATOM      4  N4  UNL     1      14.011   2.257  19.935  0.00  0.00    -0.113 NA
ATOM      5  C11 UNL     1      13.351   2.688  21.025  0.00  0.00    +0.220 A 
ATOM      6  N5  UNL     1      12.385   3.752  20.987  0.00  0.00    -0.300 N 
ATOM      7  C12 UNL     1      11.074   3.585  21.630  0.00  0.00    +0.110 C 
ATOM      8  C13 UNL     1       9.984   4.263  20.796  0.00  0.00    +0.041 C 
ATOM      9  C14 UNL     1      10.267   5.769  20.571  0.00  0.00    +0.077 C 
ATOM     10  C17 UNL     1      11.779   6.099  20.539  0.00  0.00    +0.041 C 
ATOM     11  C18 UNL     1      12.633   4.903  20.108  0.00  0.00    +0.110 C 
ENDROOT
BRANCH   2  12
ATOM     12  C5  UNL     1      15.463   0.195  22.459  0.00  0.00    +0.088 A 
ATOM     13  C6  UNL     1      16.699   0.438  23.101  0.00  0.00    +0.077 A 
ATOM     14  C7  UNL     1      16.941  -0.752  23.736  0.00  0.00    +0.153 A 
ATOM     15  O1  UNL     1      17.841  -1.259  24.534  0.00  0.00    -0.461 OA
ATOM     16  C8  UNL     1      17.407  -2.490  24.813  0.00  0.00    +0.198 A 
ATOM     17  C9  UNL     1      16.187  -2.761  24.165  0.00  0.00    +0.067 A 
ATOM     18  C10 UNL     1      15.964  -1.590  23.494  0.00  0.00    +0.085 A 
ATOM     19  N2  UNL     1      15.008  -1.068  22.720  0.00  0.00    -0.349 N 
ATOM     20  H9  UNL     1      14.120  -1.518  22.406  0.00  0.00    +0.166 HD
ENDBRANCH   2  12
BRANCH   9  21
ATOM     21  N6  UNL     1       9.606   6.578  21.604  0.00  0.00    -0.296 N 
ATOM     22  C15 UNL     1       9.277   7.962  21.402  0.00  0.00    +0.300 C 
ATOM     23  O2  UNL     1       9.513   8.516  20.292  0.00  0.00    -0.253 OA
ATOM     24  N7  UNL     1       8.675   8.714  22.464  0.00  0.00    -0.302 N 
ATOM     25  C16 UNL     1       8.285  10.109  22.291  0.00  0.00    +0.129 C 
ATOM     26  H15 UNL     1       9.361   6.142  22.523  0.00  0.00    +0.151 HD
ATOM     27  H16 UNL     1       8.502   8.250  23.385  0.00  0.00    +0.150 HD
ENDBRANCH   9  21
BRANCH   1  28
ATOM     28  C3  UNL     1      13.418   2.374  23.533  0.00  0.00    +0.153 C 
BRANCH  28  30
ATOM     29  C1  UNL     1      12.887   0.574  25.139  0.00  0.00    +0.005 C 
ATOM     30  C2  UNL     1      12.496   1.343  24.121  0.00  0.00    -0.013 C 
ENDBRANCH  28  30
ENDBRANCH   1  28
TORSDOF 4
ENDMDL
MODEL 5
REMARK VINA RESULT:    -6.113      6.134     11.316
REMARK INTER + INTRA:          -8.035
REMARK INTER:                  -7.447
REMARK INTRA:                  -0.587
REMARK UNBOUND:                -0.492
REMARK  Name = /home/qwerty/github/datacon2025hack/step_04_hit_selection/docking/ligands/lig_682.pdb
REMARK  5 active torsions:
REMARK  status: ('A' for Active; 'I' for Inactive)
REMARK    1  A    between atoms: C2_2  and  C3_3
REMARK    2  A    between atoms: C3_3  and  N1_4
REMARK    3  A    between atoms: C4_5  and  C5_6
REMARK    4  A    between atoms: C14_20  and  N6_21
REMARK    5  A    between atoms: N7_24  and  C16_25
REMARK                            x       y       z     vdW  Elec       q    Type
REMARK                         _______ _______ _______ _____ _____    ______ ____
ROOT
ATOM      1  N1  UNL     1      17.571   1.639  23.885  0.00  0.00    -0.290 N 
ATOM      2  C4  UNL     1      18.532   0.835  24.402  0.00  0.00    +0.182 A 
ATOM      3  N3  UNL     1      18.303  -0.458  24.093  0.00  0.00    -0.126 NA
ATOM      4  N4  UNL     1      17.186  -0.505  23.382  0.00  0.00    -0.113 NA
ATOM      5  C11 UNL     1      16.745   0.761  23.271  0.00  0.00    +0.220 A 
ATOM      6  N5  UNL     1      15.564   1.116  22.531  0.00  0.00    -0.300 N 
ATOM      7  C12 UNL     1      14.551   1.995  23.132  0.00  0.00    +0.110 C 
ATOM      8  C13 UNL     1      13.147   1.548  22.717  0.00  0.00    +0.041 C 
ATOM      9  C14 UNL     1      12.970   1.523  21.178  0.00  0.00    +0.077 C 
ATOM     10  C17 UNL     1      14.287   1.215  20.425  0.00  0.00    +0.041 C 
ATOM     11  C18 UNL     1      15.275   0.411  21.275  0.00  0.00    +0.110 C 
ENDROOT
BRANCH   2  12
ATOM     12  C5  UNL     1      19.717   1.253  25.183  0.00  0.00    +0.088 A 
ATOM     13  C6  UNL     1      20.713   2.167  24.771  0.00  0.00    +0.077 A 
ATOM     14  C7  UNL     1      21.515   2.250  25.879  0.00  0.00    +0.153 A 
ATOM     15  O1  UNL     1      22.577   2.905  26.261  0.00  0.00    -0.461 OA
ATOM     16  C8  UNL     1      22.790   2.523  27.521  0.00  0.00    +0.198 A 
ATOM     17  C9  UNL     1      21.821   1.594  27.945  0.00  0.00    +0.067 A 
ATOM     18  C10 UNL     1      21.044   1.476  26.825  0.00  0.00    +0.085 A 
ATOM     19  N2  UNL     1      19.925   0.837  26.469  0.00  0.00    -0.349 N 
ATOM     20  H9  UNL     1      19.345   0.188  27.045  0.00  0.00    +0.166 HD
ENDBRANCH   2  12
BRANCH   9  21
ATOM     21  N6  UNL     1      12.415   2.798  20.701  0.00  0.00    -0.296 N 
ATOM     22  C15 UNL     1      11.045   3.170  20.921  0.00  0.00    +0.300 C 
ATOM     23  O2  UNL     1      10.280   2.414  21.582  0.00  0.00    -0.253 OA
ATOM     24  N7  UNL     1      10.549   4.406  20.391  0.00  0.00    -0.302 N 
ATOM     25  C16 UNL     1       9.178   4.845  20.626  0.00  0.00    +0.129 C 
ATOM     26  H15 UNL     1      13.031   3.466  20.182  0.00  0.00    +0.151 HD
ATOM     27  H16 UNL     1      11.187   5.014  19.829  0.00  0.00    +0.150 HD
ENDBRANCH   9  21
BRANCH   1  28
ATOM     28  C3  UNL     1      17.535   3.103  23.804  0.00  0.00    +0.153 C 
BRANCH  28  30
ATOM     29  C1  UNL     1      17.489   3.905  21.468  0.00  0.00    +0.005 C 
ATOM     30  C2  UNL     1      18.205   3.581  22.547  0.00  0.00    -0.013 C 
ENDBRANCH  28  30
ENDBRANCH   1  28
TORSDOF 4
ENDMDL
MODEL 6
REMARK VINA RESULT:    -6.049     15.367     16.487
REMARK INTER + INTRA:          -7.955
REMARK INTER:                  -8.209
REMARK INTRA:                   0.253
REMARK UNBOUND:                -0.492
REMARK  Name = /home/qwerty/github/datacon2025hack/step_04_hit_selection/docking/ligands/lig_682.pdb
REMARK  5 active torsions:
REMARK  status: ('A' for Active; 'I' for Inactive)
REMARK    1  A    between atoms: C2_2  and  C3_3
REMARK    2  A    between atoms: C3_3  and  N1_4
REMARK    3  A    between atoms: C4_5  and  C5_6
REMARK    4  A    between atoms: C14_20  and  N6_21
REMARK    5  A    between atoms: N7_24  and  C16_25
REMARK                            x       y       z     vdW  Elec       q    Type
REMARK                         _______ _______ _______ _____ _____    ______ ____
ROOT
ATOM      1  N1  UNL     1      19.044   9.349  36.256  0.00  0.00    -0.290 N 
ATOM      2  C4  UNL     1      17.990   9.610  37.067  0.00  0.00    +0.182 A 
ATOM      3  N3  UNL     1      17.951   8.749  38.105  0.00  0.00    -0.126 NA
ATOM      4  N4  UNL     1      18.972   7.917  37.971  0.00  0.00    -0.113 NA
ATOM      5  C11 UNL     1      19.620   8.277  36.848  0.00  0.00    +0.220 A 
ATOM      6  N5  UNL     1      20.813   7.622  36.387  0.00  0.00    -0.300 N 
ATOM      7  C12 UNL     1      20.928   7.193  34.986  0.00  0.00    +0.110 C 
ATOM      8  C13 UNL     1      21.675   5.859  34.899  0.00  0.00    +0.041 C 
ATOM      9  C14 UNL     1      23.083   5.931  35.540  0.00  0.00    +0.077 C 
ATOM     10  C17 UNL     1      23.163   6.948  36.704  0.00  0.00    +0.041 C 
ATOM     11  C18 UNL     1      21.807   7.181  37.376  0.00  0.00    +0.110 C 
ENDROOT
BRANCH   2  12
ATOM     12  C5  UNL     1      16.995  10.694  36.914  0.00  0.00    +0.088 A 
ATOM     13  C6  UNL     1      15.602  10.534  36.726  0.00  0.00    +0.077 A 
ATOM     14  C7  UNL     1      15.154  11.829  36.724  0.00  0.00    +0.153 A 
ATOM     15  O1  UNL     1      14.015  12.461  36.644  0.00  0.00    -0.461 OA
ATOM     16  C8  UNL     1      14.322  13.753  36.767  0.00  0.00    +0.198 A 
ATOM     17  C9  UNL     1      15.708  13.937  36.934  0.00  0.00    +0.067 A 
ATOM     18  C10 UNL     1      16.164  12.647  36.891  0.00  0.00    +0.085 A 
ATOM     19  N2  UNL     1      17.332  12.014  37.028  0.00  0.00    -0.349 N 
ATOM     20  H9  UNL     1      18.274  12.432  37.197  0.00  0.00    +0.166 HD
ENDBRANCH   2  12
BRANCH   9  21
ATOM     21  N6  UNL     1      24.096   6.259  34.527  0.00  0.00    -0.296 N 
ATOM     22  C15 UNL     1      24.197   7.565  33.936  0.00  0.00    +0.300 C 
ATOM     23  O2  UNL     1      23.429   8.494  34.313  0.00  0.00    -0.253 OA
ATOM     24  N7  UNL     1      25.175   7.812  32.918  0.00  0.00    -0.302 N 
ATOM     25  C16 UNL     1      25.343   9.132  32.321  0.00  0.00    +0.129 C 
ATOM     26  H15 UNL     1      24.773   5.523  34.218  0.00  0.00    +0.151 HD
ATOM     27  H16 UNL     1      25.792   7.030  32.601  0.00  0.00    +0.150 HD
ENDBRANCH   9  21
BRANCH   1  28
ATOM     28  C3  UNL     1      19.576  10.147  35.147  0.00  0.00    +0.153 C 
BRANCH  28  30
ATOM     29  C1  UNL     1      20.557  12.357  35.654  0.00  0.00    +0.005 C 
ATOM     30  C2  UNL     1      20.698  11.029  35.617  0.00  0.00    -0.013 C 
ENDBRANCH  28  30
ENDBRANCH   1  28
TORSDOF 4
ENDMDL
MODEL 7
REMARK VINA RESULT:    -5.973      9.368     10.800
REMARK INTER + INTRA:          -7.862
REMARK INTER:                  -7.057
REMARK INTRA:                  -0.806
REMARK UNBOUND:                -0.492
REMARK  Name = /home/qwerty/github/datacon2025hack/step_04_hit_selection/docking/ligands/lig_682.pdb
REMARK  5 active torsions:
REMARK  status: ('A' for Active; 'I' for Inactive)
REMARK    1  A    between atoms: C2_2  and  C3_3
REMARK    2  A    between atoms: C3_3  and  N1_4
REMARK    3  A    between atoms: C4_5  and  C5_6
REMARK    4  A    between atoms: C14_20  and  N6_21
REMARK    5  A    between atoms: N7_24  and  C16_25
REMARK                            x       y       z     vdW  Elec       q    Type
REMARK                         _______ _______ _______ _____ _____    ______ ____
ROOT
ATOM      1  N1  UNL     1       7.854   0.000  31.709  0.00  0.00    -0.290 N 
ATOM      2  C4  UNL     1       7.001   0.027  32.762  0.00  0.00    +0.182 A 
ATOM      3  N3  UNL     1       5.759   0.380  32.372  0.00  0.00    -0.126 NA
ATOM      4  N4  UNL     1       5.798   0.597  31.066  0.00  0.00    -0.113 NA
ATOM      5  C11 UNL     1       7.066   0.377  30.675  0.00  0.00    +0.220 A 
ATOM      6  N5  UNL     1       7.493   0.479  29.306  0.00  0.00    -0.300 N 
ATOM      7  C12 UNL     1       8.698   1.248  28.962  0.00  0.00    +0.110 C 
ATOM      8  C13 UNL     1       8.496   1.985  27.635  0.00  0.00    +0.041 C 
ATOM      9  C14 UNL     1       8.142   1.021  26.476  0.00  0.00    +0.077 C 
ATOM     10  C17 UNL     1       7.370  -0.234  26.950  0.00  0.00    +0.041 C 
ATOM     11  C18 UNL     1       6.591   0.010  28.246  0.00  0.00    +0.110 C 
ENDROOT
BRANCH   2  12
ATOM     12  C5  UNL     1       7.313  -0.306  34.169  0.00  0.00    +0.088 A 
ATOM     13  C6  UNL     1       7.719   0.600  35.175  0.00  0.00    +0.077 A 
ATOM     14  C7  UNL     1       7.795  -0.202  36.283  0.00  0.00    +0.153 A 
ATOM     15  O1  UNL     1       8.057  -0.077  37.555  0.00  0.00    -0.461 OA
ATOM     16  C8  UNL     1       7.890  -1.296  38.069  0.00  0.00    +0.198 A 
ATOM     17  C9  UNL     1       7.506  -2.221  37.079  0.00  0.00    +0.067 A 
ATOM     18  C10 UNL     1       7.472  -1.431  35.963  0.00  0.00    +0.085 A 
ATOM     19  N2  UNL     1       7.150  -1.567  34.673  0.00  0.00    -0.349 N 
ATOM     20  H9  UNL     1       6.835  -2.430  34.177  0.00  0.00    +0.166 HD
ENDBRANCH   2  12
BRANCH   9  21
ATOM     21  N6  UNL     1       9.357   0.611  25.756  0.00  0.00    -0.296 N 
ATOM     22  C15 UNL     1       9.715   1.160  24.478  0.00  0.00    +0.300 C 
ATOM     23  O2  UNL     1       9.002   2.059  23.950  0.00  0.00    -0.253 OA
ATOM     24  N7  UNL     1      10.887   0.687  23.802  0.00  0.00    -0.302 N 
ATOM     25  C16 UNL     1      11.313   1.244  22.523  0.00  0.00    +0.129 C 
ATOM     26  H15 UNL     1       9.991  -0.105  26.182  0.00  0.00    +0.151 HD
ATOM     27  H16 UNL     1      11.458  -0.072  24.240  0.00  0.00    +0.150 HD
ENDBRANCH   9  21
BRANCH   1  28
ATOM     28  C3  UNL     1       9.224  -0.520  31.641  0.00  0.00    +0.153 C 
BRANCH  28  30
ATOM     29  C1  UNL     1       9.839  -2.315  30.060  0.00  0.00    +0.005 C 
ATOM     30  C2  UNL     1       9.227  -1.953  31.190  0.00  0.00    -0.013 C 
ENDBRANCH  28  30
ENDBRANCH   1  28
TORSDOF 4
ENDMDL
MODEL 8
REMARK VINA RESULT:    -5.971     14.137     15.463
REMARK INTER + INTRA:          -7.860
REMARK INTER:                  -7.027
REMARK INTRA:                  -0.834
REMARK UNBOUND:                -0.492
REMARK  Name = /home/qwerty/github/datacon2025hack/step_04_hit_selection/docking/ligands/lig_682.pdb
REMARK  5 active torsions:
REMARK  status: ('A' for Active; 'I' for Inactive)
REMARK    1  A    between atoms: C2_2  and  C3_3
REMARK    2  A    between atoms: C3_3  and  N1_4
REMARK    3  A    between atoms: C4_5  and  C5_6
REMARK    4  A    between atoms: C14_20  and  N6_21
REMARK    5  A    between atoms: N7_24  and  C16_25
REMARK                            x       y       z     vdW  Elec       q    Type
REMARK                         _______ _______ _______ _____ _____    ______ ____
ROOT
ATOM      1  N1  UNL     1      16.929   9.944  36.327  0.00  0.00    -0.290 N 
ATOM      2  C4  UNL     1      16.107  10.530  37.232  0.00  0.00    +0.182 A 
ATOM      3  N3  UNL     1      16.555  10.341  38.490  0.00  0.00    -0.126 NA
ATOM      4  N4  UNL     1      17.665   9.622  38.413  0.00  0.00    -0.113 NA
ATOM      5  C11 UNL     1      17.878   9.377  37.107  0.00  0.00    +0.220 A 
ATOM      6  N5  UNL     1      19.017   8.647  36.623  0.00  0.00    -0.300 N 
ATOM      7  C12 UNL     1      18.840   7.556  35.655  0.00  0.00    +0.110 C 
ATOM      8  C13 UNL     1      19.823   6.419  35.951  0.00  0.00    +0.041 C 
ATOM      9  C14 UNL     1      21.296   6.897  35.935  0.00  0.00    +0.077 C 
ATOM     10  C17 UNL     1      21.454   8.376  36.364  0.00  0.00    +0.041 C 
ATOM     11  C18 UNL     1      20.318   8.848  37.277  0.00  0.00    +0.110 C 
ENDROOT
BRANCH   2  12
ATOM     12  C5  UNL     1      14.885  11.314  36.948  0.00  0.00    +0.088 A 
ATOM     13  C6  UNL     1      14.832  12.622  36.415  0.00  0.00    +0.077 A 
ATOM     14  C7  UNL     1      13.485  12.833  36.283  0.00  0.00    +0.153 A 
ATOM     15  O1  UNL     1      12.688  13.765  35.834  0.00  0.00    -0.461 OA
ATOM     16  C8  UNL     1      11.458  13.267  35.966  0.00  0.00    +0.198 A 
ATOM     17  C9  UNL     1      11.486  11.972  36.517  0.00  0.00    +0.067 A 
ATOM     18  C10 UNL     1      12.828  11.775  36.691  0.00  0.00    +0.085 A 
ATOM     19  N2  UNL     1      13.631  10.790  37.105  0.00  0.00    -0.349 N 
ATOM     20  H9  UNL     1      13.360   9.843  37.451  0.00  0.00    +0.166 HD
ENDBRANCH   2  12
BRANCH   9  21
ATOM     21  N6  UNL     1      21.887   6.703  34.603  0.00  0.00    -0.296 N 
ATOM     22  C15 UNL     1      23.274   6.374  34.419  0.00  0.00    +0.300 C 
ATOM     23  O2  UNL     1      24.023   6.195  35.420  0.00  0.00    -0.253 OA
ATOM     24  N7  UNL     1      23.805   6.243  33.094  0.00  0.00    -0.302 N 
ATOM     25  C16 UNL     1      25.194   5.869  32.858  0.00  0.00    +0.129 C 
ATOM     26  H15 UNL     1      21.287   6.806  33.752  0.00  0.00    +0.151 HD
ATOM     27  H16 UNL     1      23.179   6.413  32.273  0.00  0.00    +0.150 HD
ENDBRANCH   9  21
BRANCH   1  28
ATOM     28  C3  UNL     1      16.936  10.072  34.866  0.00  0.00    +0.153 C 
BRANCH  28  30
ATOM     29  C1  UNL     1      18.992  11.024  33.882  0.00  0.00    +0.005 C 
ATOM     30  C2  UNL     1      17.796  11.228  34.438  0.00  0.00    -0.013 C 
ENDBRANCH  28  30
ENDBRANCH   1  28
TORSDOF 4
ENDMDL
MODEL 9
REMARK VINA RESULT:    -5.971     13.323     14.595
REMARK INTER + INTRA:          -7.860
REMARK INTER:                  -7.088
REMARK INTRA:                  -0.772
REMARK UNBOUND:                -0.492
REMARK  Name = /home/qwerty/github/datacon2025hack/step_04_hit_selection/docking/ligands/lig_682.pdb
REMARK  5 active torsions:
REMARK  status: ('A' for Active; 'I' for Inactive)
REMARK    1  A    between atoms: C2_2  and  C3_3
REMARK    2  A    between atoms: C3_3  and  N1_4
REMARK    3  A    between atoms: C4_5  and  C5_6
REMARK    4  A    between atoms: C14_20  and  N6_21
REMARK    5  A    between atoms: N7_24  and  C16_25
REMARK                            x       y       z     vdW  Elec       q    Type
REMARK                         _______ _______ _______ _____ _____    ______ ____
ROOT
ATOM      1  N1  UNL     1      21.543   4.755  31.437  0.00  0.00    -0.290 N 
ATOM      2  C4  UNL     1      21.832   4.323  32.689  0.00  0.00    +0.182 A 
ATOM      3  N3  UNL     1      22.069   2.995  32.703  0.00  0.00    -0.126 NA
ATOM      4  N4  UNL     1      21.925   2.552  31.464  0.00  0.00    -0.113 NA
ATOM      5  C11 UNL     1      21.597   3.616  30.708  0.00  0.00    +0.220 A 
ATOM      6  N5  UNL     1      21.391   3.534  29.288  0.00  0.00    -0.300 N 
ATOM      7  C12 UNL     1      20.198   4.136  28.677  0.00  0.00    +0.110 C 
ATOM      8  C13 UNL     1      19.689   3.259  27.529  0.00  0.00    +0.041 C 
ATOM      9  C14 UNL     1      20.770   3.027  26.445  0.00  0.00    +0.077 C 
ATOM     10  C17 UNL     1      22.209   3.041  27.015  0.00  0.00    +0.041 C 
ATOM     11  C18 UNL     1      22.258   2.651  28.496  0.00  0.00    +0.110 C 
ENDROOT
BRANCH   2  12
ATOM     12  C5  UNL     1      21.924   5.146  33.915  0.00  0.00    +0.088 A 
ATOM     13  C6  UNL     1      20.846   5.738  34.612  0.00  0.00    +0.077 A 
ATOM     14  C7  UNL     1      21.468   6.307  35.692  0.00  0.00    +0.153 A 
ATOM     15  O1  UNL     1      21.134   6.970  36.765  0.00  0.00    -0.461 OA
ATOM     16  C8  UNL     1      22.276   7.169  37.424  0.00  0.00    +0.198 A 
ATOM     17  C9  UNL     1      23.368   6.605  36.736  0.00  0.00    +0.067 A 
ATOM     18  C10 UNL     1      22.756   6.075  35.634  0.00  0.00    +0.085 A 
ATOM     19  N2  UNL     1      23.109   5.351  34.567  0.00  0.00    -0.349 N 
ATOM     20  H9  UNL     1      24.062   5.013  34.308  0.00  0.00    +0.166 HD
ENDBRANCH   2  12
BRANCH   9  21
ATOM     21  N6  UNL     1      20.653   4.029  25.376  0.00  0.00    -0.296 N 
ATOM     22  C15 UNL     1      20.701   3.677  23.984  0.00  0.00    +0.300 C 
ATOM     23  O2  UNL     1      20.804   2.466  23.638  0.00  0.00    -0.253 OA
ATOM     24  N7  UNL     1      20.629   4.703  22.986  0.00  0.00    -0.302 N 
ATOM     25  C16 UNL     1      20.632   4.390  21.562  0.00  0.00    +0.129 C 
ATOM     26  H15 UNL     1      20.529   5.038  25.626  0.00  0.00    +0.151 HD
ATOM     27  H16 UNL     1      20.564   5.703  23.285  0.00  0.00    +0.150 HD
ENDBRANCH   9  21
BRANCH   1  28
ATOM     28  C3  UNL     1      21.424   6.128  30.937  0.00  0.00    +0.153 C 
BRANCH  28  30
ATOM     29  C1  UNL     1      23.134   7.778  31.611  0.00  0.00    +0.005 C 
ATOM     30  C2  UNL     1      22.778   6.768  30.814  0.00  0.00    -0.013 C 
ENDBRANCH  28  30
ENDBRANCH   1  28
TORSDOF 4
ENDMDL
