MODEL 1
REMARK VINA RESULT:    -6.250      0.000      0.000
REMARK INTER + INTRA:          -7.671
REMARK INTER:                  -7.347
REMARK INTRA:                  -0.324
REMARK UNBOUND:                -0.324
REMARK  Name = /home/qwerty/github/datacon2025hack/step_04_hit_selection/docking/ligands/lig_248.pdb
REMARK  7 active torsions:
REMARK  status: ('A' for Active; 'I' for Inactive)
REMARK    1  A    between atoms: C1_1  and  C2_2
REMARK    2  A    between atoms: C2_2  and  C3_3
REMARK    3  A    between atoms: C2_2  and  C4_4
REMARK    4  A    between atoms: C12_16  and  C13_17
REMARK    5  A    between atoms: C16_22  and  C17_23
REMARK    6  A    between atoms: C17_23  and  C18_24
REMARK    7  A    between atoms: C17_23  and  C19_25
REMARK                            x       y       z     vdW  Elec       q    Type
REMARK                         _______ _______ _______ _____ _____    ______ ____
ROOT
ATOM      1  C4  UNL     1      23.334   8.455  32.861  0.00  0.00    +0.049 A 
ATOM      2  C5  UNL     1      23.049   7.318  32.094  0.00  0.00    +0.067 A 
ATOM      3  C6  UNL     1      22.474   6.203  32.723  0.00  0.00    +0.125 A 
ATOM      4  N1  UNL     1      22.159   5.005  31.985  0.00  0.00    -0.312 N 
ATOM      5  C7  UNL     1      21.802   5.067  30.558  0.00  0.00    +0.125 C 
ATOM      6  C8  UNL     1      20.736   4.018  30.226  0.00  0.00    +0.125 C 
ATOM      7  N2  UNL     1      21.132   2.721  30.783  0.00  0.00    -0.310 N 
ATOM      8  C9  UNL     1      21.638   1.686  29.922  0.00  0.00    +0.158 A 
ATOM      9  N3  UNL     1      22.914   1.241  30.084  0.00  0.00    -0.236 NA
ATOM     10  C10 UNL     1      23.436   0.267  29.294  0.00  0.00    +0.132 A 
ATOM     11  C11 UNL     1      22.645  -0.298  28.294  0.00  0.00    +0.132 A 
ATOM     12  N4  UNL     1      21.365   0.127  28.134  0.00  0.00    -0.240 NA
ATOM     13  C12 UNL     1      20.837   1.102  28.920  0.00  0.00    +0.180 A 
ATOM     14  C14 UNL     1      21.399   2.676  32.221  0.00  0.00    +0.125 C 
ATOM     15  C15 UNL     1      22.485   3.693  32.569  0.00  0.00    +0.125 C 
ATOM     16  N6  UNL     1      22.221   6.254  34.059  0.00  0.00    -0.217 NA
ATOM     17  C16 UNL     1      22.504   7.361  34.795  0.00  0.00    +0.134 A 
ATOM     18  N7  UNL     1      23.055   8.447  34.193  0.00  0.00    -0.236 NA
ENDROOT
BRANCH   1  20
ATOM     19  C1  UNL     1      25.488   9.583  32.283  0.00  0.00    +0.014 C 
ATOM     20  C2  UNL     1      23.959   9.677  32.234  0.00  0.00    +0.032 C 
ATOM     21  C3  UNL     1      23.469   9.849  30.793  0.00  0.00    +0.014 C 
ENDBRANCH   1  20
BRANCH  17  22
ATOM     22  C17 UNL     1      22.210   7.377  36.270  0.00  0.00    +0.051 C 
ATOM     23  C18 UNL     1      20.806   6.826  36.543  0.00  0.00    +0.015 C 
ATOM     24  C19 UNL     1      23.269   6.581  37.039  0.00  0.00    +0.015 C 
ENDBRANCH  17  22
BRANCH  13  25
ATOM     25  C13 UNL     1      19.459   1.477  28.739  0.00  0.00    +0.123 C 
ATOM     26  N5  UNL     1      18.351   1.778  28.592  0.00  0.00    -0.189 NA
ENDBRANCH  13  25
TORSDOF 3
ENDMDL
MODEL 2
REMARK VINA RESULT:    -6.089     12.095     15.224
REMARK INTER + INTRA:          -7.481
REMARK INTER:                  -7.149
REMARK INTRA:                  -0.332
REMARK UNBOUND:                -0.324
REMARK  Name = /home/qwerty/github/datacon2025hack/step_04_hit_selection/docking/ligands/lig_248.pdb
REMARK  7 active torsions:
REMARK  status: ('A' for Active; 'I' for Inactive)
REMARK    1  A    between atoms: C1_1  and  C2_2
REMARK    2  A    between atoms: C2_2  and  C3_3
REMARK    3  A    between atoms: C2_2  and  C4_4
REMARK    4  A    between atoms: C12_16  and  C13_17
REMARK    5  A    between atoms: C16_22  and  C17_23
REMARK    6  A    between atoms: C17_23  and  C18_24
REMARK    7  A    between atoms: C17_23  and  C19_25
REMARK                            x       y       z     vdW  Elec       q    Type
REMARK                         _______ _______ _______ _____ _____    ______ ____
ROOT
ATOM      1  C4  UNL     1      12.025  13.520  28.337  0.00  0.00    +0.049 A 
ATOM      2  C5  UNL     1      12.602  13.665  29.605  0.00  0.00    +0.067 A 
ATOM      3  C6  UNL     1      11.766  13.682  30.732  0.00  0.00    +0.125 A 
ATOM      4  N1  UNL     1      12.303  13.829  32.062  0.00  0.00    -0.312 N 
ATOM      5  C7  UNL     1      13.650  13.334  32.394  0.00  0.00    +0.125 C 
ATOM      6  C8  UNL     1      13.682  12.782  33.822  0.00  0.00    +0.125 C 
ATOM      7  N2  UNL     1      13.056  13.743  34.734  0.00  0.00    -0.310 N 
ATOM      8  C9  UNL     1      13.866  14.548  35.609  0.00  0.00    +0.158 A 
ATOM      9  N3  UNL     1      13.867  15.902  35.469  0.00  0.00    -0.236 NA
ATOM     10  C10 UNL     1      14.618  16.701  36.270  0.00  0.00    +0.132 A 
ATOM     11  C11 UNL     1      15.405  16.125  37.267  0.00  0.00    +0.132 A 
ATOM     12  N4  UNL     1      15.399  14.776  37.426  0.00  0.00    -0.240 NA
ATOM     13  C12 UNL     1      14.651  13.970  36.627  0.00  0.00    +0.180 A 
ATOM     14  C14 UNL     1      11.685  14.151  34.422  0.00  0.00    +0.125 C 
ATOM     15  C15 UNL     1      11.637  14.735  33.011  0.00  0.00    +0.125 C 
ATOM     16  N6  UNL     1      10.421  13.570  30.560  0.00  0.00    -0.217 NA
ATOM     17  C16 UNL     1       9.871  13.433  29.325  0.00  0.00    +0.134 A 
ATOM     18  N7  UNL     1      10.673  13.410  28.228  0.00  0.00    -0.236 NA
ENDROOT
BRANCH   1  20
ATOM     19  C1  UNL     1      12.940  14.899  26.463  0.00  0.00    +0.014 C 
ATOM     20  C2  UNL     1      12.880  13.503  27.092  0.00  0.00    +0.032 C 
ATOM     21  C3  UNL     1      14.286  12.990  27.417  0.00  0.00    +0.014 C 
ENDBRANCH   1  20
BRANCH  17  22
ATOM     22  C17 UNL     1       8.378  13.313  29.177  0.00  0.00    +0.051 C 
ATOM     23  C18 UNL     1       7.937  13.793  27.791  0.00  0.00    +0.015 C 
ATOM     24  C19 UNL     1       7.927  11.871  29.428  0.00  0.00    +0.015 C 
ENDBRANCH  17  22
BRANCH  13  25
ATOM     25  C13 UNL     1      14.644  12.552  36.875  0.00  0.00    +0.123 C 
ATOM     26  N5  UNL     1      14.639  11.412  37.075  0.00  0.00    -0.189 NA
ENDBRANCH  13  25
TORSDOF 3
ENDMDL
MODEL 3
REMARK VINA RESULT:    -6.079     11.391     15.126
REMARK INTER + INTRA:          -7.469
REMARK INTER:                  -7.078
REMARK INTRA:                  -0.391
REMARK UNBOUND:                -0.324
REMARK  Name = /home/qwerty/github/datacon2025hack/step_04_hit_selection/docking/ligands/lig_248.pdb
REMARK  7 active torsions:
REMARK  status: ('A' for Active; 'I' for Inactive)
REMARK    1  A    between atoms: C1_1  and  C2_2
REMARK    2  A    between atoms: C2_2  and  C3_3
REMARK    3  A    between atoms: C2_2  and  C4_4
REMARK    4  A    between atoms: C12_16  and  C13_17
REMARK    5  A    between atoms: C16_22  and  C17_23
REMARK    6  A    between atoms: C17_23  and  C18_24
REMARK    7  A    between atoms: C17_23  and  C19_25
REMARK                            x       y       z     vdW  Elec       q    Type
REMARK                         _______ _______ _______ _____ _____    ______ ____
ROOT
ATOM      1  C4  UNL     1       9.298   5.224  20.975  0.00  0.00    +0.049 A 
ATOM      2  C5  UNL     1      10.328   4.289  21.129  0.00  0.00    +0.067 A 
ATOM      3  C6  UNL     1      11.659   4.721  21.017  0.00  0.00    +0.125 A 
ATOM      4  N1  UNL     1      12.761   3.804  21.166  0.00  0.00    -0.312 N 
ATOM      5  C7  UNL     1      12.648   2.618  22.033  0.00  0.00    +0.125 C 
ATOM      6  C8  UNL     1      13.982   2.332  22.728  0.00  0.00    +0.125 C 
ATOM      7  N2  UNL     1      15.067   2.366  21.743  0.00  0.00    -0.310 N 
ATOM      8  C9  UNL     1      15.668   1.143  21.283  0.00  0.00    +0.158 A 
ATOM      9  N3  UNL     1      15.568   0.797  19.970  0.00  0.00    -0.236 NA
ATOM     10  C10 UNL     1      16.117  -0.349  19.492  0.00  0.00    +0.132 A 
ATOM     11  C11 UNL     1      16.808  -1.193  20.362  0.00  0.00    +0.132 A 
ATOM     12  N4  UNL     1      16.927  -0.848  21.671  0.00  0.00    -0.240 NA
ATOM     13  C12 UNL     1      16.379   0.296  22.157  0.00  0.00    +0.180 A 
ATOM     14  C14 UNL     1      15.204   3.593  20.956  0.00  0.00    +0.125 C 
ATOM     15  C15 UNL     1      13.892   3.879  20.227  0.00  0.00    +0.125 C 
ATOM     16  N6  UNL     1      11.909   6.032  20.751  0.00  0.00    -0.217 NA
ATOM     17  C16 UNL     1      10.901   6.931  20.600  0.00  0.00    +0.134 A 
ATOM     18  N7  UNL     1       9.610   6.522  20.712  0.00  0.00    -0.236 NA
ENDROOT
BRANCH   1  20
ATOM     19  C1  UNL     1       7.518   4.373  22.509  0.00  0.00    +0.014 C 
ATOM     20  C2  UNL     1       7.850   4.809  21.078  0.00  0.00    +0.032 C 
ATOM     21  C3  UNL     1       6.933   5.951  20.629  0.00  0.00    +0.014 C 
ENDBRANCH   1  20
BRANCH  17  22
ATOM     22  C17 UNL     1      11.219   8.372  20.304  0.00  0.00    +0.051 C 
ATOM     23  C18 UNL     1       9.942   9.218  20.327  0.00  0.00    +0.015 C 
ATOM     24  C19 UNL     1      12.251   8.910  21.300  0.00  0.00    +0.015 C 
ENDBRANCH  17  22
BRANCH  13  25
ATOM     25  C13 UNL     1      16.582   0.635  23.541  0.00  0.00    +0.123 C 
ATOM     26  N5  UNL     1      16.744   0.907  24.654  0.00  0.00    -0.189 NA
ENDBRANCH  13  25
TORSDOF 3
ENDMDL
MODEL 4
REMARK VINA RESULT:    -6.052     11.291     14.945
REMARK INTER + INTRA:          -7.438
REMARK INTER:                  -7.047
REMARK INTRA:                  -0.391
REMARK UNBOUND:                -0.324
REMARK  Name = /home/qwerty/github/datacon2025hack/step_04_hit_selection/docking/ligands/lig_248.pdb
REMARK  7 active torsions:
REMARK  status: ('A' for Active; 'I' for Inactive)
REMARK    1  A    between atoms: C1_1  and  C2_2
REMARK    2  A    between atoms: C2_2  and  C3_3
REMARK    3  A    between atoms: C2_2  and  C4_4
REMARK    4  A    between atoms: C12_16  and  C13_17
REMARK    5  A    between atoms: C16_22  and  C17_23
REMARK    6  A    between atoms: C17_23  and  C18_24
REMARK    7  A    between atoms: C17_23  and  C19_25
REMARK                            x       y       z     vdW  Elec       q    Type
REMARK                         _______ _______ _______ _____ _____    ______ ____
ROOT
ATOM      1  C4  UNL     1      10.961   6.846  20.629  0.00  0.00    +0.049 A 
ATOM      2  C5  UNL     1      11.945   5.876  20.855  0.00  0.00    +0.067 A 
ATOM      3  C6  UNL     1      11.547   4.551  21.096  0.00  0.00    +0.125 A 
ATOM      4  N1  UNL     1      12.515   3.509  21.335  0.00  0.00    -0.312 N 
ATOM      5  C7  UNL     1      13.859   3.572  20.736  0.00  0.00    +0.125 C 
ATOM      6  C8  UNL     1      14.342   2.170  20.354  0.00  0.00    +0.125 C 
ATOM      7  N2  UNL     1      14.129   1.253  21.478  0.00  0.00    -0.310 N 
ATOM      8  C9  UNL     1      15.239   0.822  22.285  0.00  0.00    +0.158 A 
ATOM      9  N3  UNL     1      15.280   1.152  23.605  0.00  0.00    -0.236 NA
ATOM     10  C10 UNL     1      16.309   0.770  24.404  0.00  0.00    +0.132 A 
ATOM     11  C11 UNL     1      17.350   0.015  23.864  0.00  0.00    +0.132 A 
ATOM     12  N4  UNL     1      17.312  -0.333  22.551  0.00  0.00    -0.240 NA
ATOM     13  C12 UNL     1      16.286   0.047  21.746  0.00  0.00    +0.180 A 
ATOM     14  C14 UNL     1      12.763   1.152  21.996  0.00  0.00    +0.125 C 
ATOM     15  C15 UNL     1      12.273   2.538  22.414  0.00  0.00    +0.125 C 
ATOM     16  N6  UNL     1      10.220   4.251  21.113  0.00  0.00    -0.217 NA
ATOM     17  C16 UNL     1       9.273   5.202  20.895  0.00  0.00    +0.134 A 
ATOM     18  N7  UNL     1       9.649   6.485  20.656  0.00  0.00    -0.236 NA
ENDROOT
BRANCH   1  20
ATOM     19  C1  UNL     1      10.085   9.171  20.353  0.00  0.00    +0.014 C 
ATOM     20  C2  UNL     1      11.336   8.286  20.373  0.00  0.00    +0.032 C 
ATOM     21  C3  UNL     1      12.332   8.774  21.430  0.00  0.00    +0.014 C 
ENDBRANCH   1  20
BRANCH  17  22
ATOM     22  C17 UNL     1       7.816   4.829  20.925  0.00  0.00    +0.051 C 
ATOM     23  C18 UNL     1       7.412   4.354  22.324  0.00  0.00    +0.015 C 
ATOM     24  C19 UNL     1       6.950   6.011  20.476  0.00  0.00    +0.015 C 
ENDBRANCH  17  22
BRANCH  13  25
ATOM     25  C13 UNL     1      16.272  -0.394  20.376  0.00  0.00    +0.123 C 
ATOM     26  N5  UNL     1      16.262  -0.750  19.274  0.00  0.00    -0.189 NA
ENDBRANCH  13  25
TORSDOF 3
ENDMDL
MODEL 5
REMARK VINA RESULT:    -5.986     11.843     15.084
REMARK INTER + INTRA:          -7.360
REMARK INTER:                  -6.999
REMARK INTRA:                  -0.360
REMARK UNBOUND:                -0.324
REMARK  Name = /home/qwerty/github/datacon2025hack/step_04_hit_selection/docking/ligands/lig_248.pdb
REMARK  7 active torsions:
REMARK  status: ('A' for Active; 'I' for Inactive)
REMARK    1  A    between atoms: C1_1  and  C2_2
REMARK    2  A    between atoms: C2_2  and  C3_3
REMARK    3  A    between atoms: C2_2  and  C4_4
REMARK    4  A    between atoms: C12_16  and  C13_17
REMARK    5  A    between atoms: C16_22  and  C17_23
REMARK    6  A    between atoms: C17_23  and  C18_24
REMARK    7  A    between atoms: C17_23  and  C19_25
REMARK                            x       y       z     vdW  Elec       q    Type
REMARK                         _______ _______ _______ _____ _____    ______ ____
ROOT
ATOM      1  C4  UNL     1      14.983  -0.383  22.465  0.00  0.00    +0.049 A 
ATOM      2  C5  UNL     1      14.117   0.698  22.256  0.00  0.00    +0.067 A 
ATOM      3  C6  UNL     1      13.174   1.012  23.248  0.00  0.00    +0.125 A 
ATOM      4  N1  UNL     1      12.257   2.113  23.089  0.00  0.00    -0.312 N 
ATOM      5  C7  UNL     1      12.628   3.299  22.298  0.00  0.00    +0.125 C 
ATOM      6  C8  UNL     1      12.039   4.567  22.924  0.00  0.00    +0.125 C 
ATOM      7  N2  UNL     1      10.620   4.353  23.225  0.00  0.00    -0.310 N 
ATOM      8  C9  UNL     1       9.605   4.947  22.397  0.00  0.00    +0.158 A 
ATOM      9  N3  UNL     1       8.752   4.147  21.701  0.00  0.00    -0.236 NA
ATOM     10  C10 UNL     1       7.780   4.662  20.905  0.00  0.00    +0.132 A 
ATOM     11  C11 UNL     1       7.645   6.047  20.799  0.00  0.00    +0.132 A 
ATOM     12  N4  UNL     1       8.482   6.854  21.502  0.00  0.00    -0.240 NA
ATOM     13  C12 UNL     1       9.457   6.345  22.299  0.00  0.00    +0.180 A 
ATOM     14  C14 UNL     1      10.294   3.213  24.083  0.00  0.00    +0.125 C 
ATOM     15  C15 UNL     1      10.844   1.932  23.459  0.00  0.00    +0.125 C 
ATOM     16  N6  UNL     1      13.121   0.251  24.375  0.00  0.00    -0.217 NA
ATOM     17  C16 UNL     1      13.963  -0.798  24.566  0.00  0.00    +0.134 A 
ATOM     18  N7  UNL     1      14.883  -1.105  23.614  0.00  0.00    -0.236 NA
ENDROOT
BRANCH   1  20
ATOM     19  C1  UNL     1      16.310   0.420  20.505  0.00  0.00    +0.014 C 
ATOM     20  C2  UNL     1      16.009  -0.767  21.426  0.00  0.00    +0.032 C 
ATOM     21  C3  UNL     1      17.289  -1.271  22.101  0.00  0.00    +0.014 C 
ENDBRANCH   1  20
BRANCH  17  22
ATOM     22  C17 UNL     1      13.871  -1.615  25.825  0.00  0.00    +0.051 C 
ATOM     23  C18 UNL     1      14.271  -3.068  25.552  0.00  0.00    +0.015 C 
ATOM     24  C19 UNL     1      14.742  -1.004  26.928  0.00  0.00    +0.015 C 
ENDBRANCH  17  22
BRANCH  13  25
ATOM     25  C13 UNL     1      10.281   7.249  23.059  0.00  0.00    +0.123 C 
ATOM     26  N5  UNL     1      10.943   7.975  23.671  0.00  0.00    -0.189 NA
ENDBRANCH  13  25
TORSDOF 3
ENDMDL
MODEL 6
REMARK VINA RESULT:    -5.982     12.026     14.032
REMARK INTER + INTRA:          -7.355
REMARK INTER:                  -7.031
REMARK INTRA:                  -0.324
REMARK UNBOUND:                -0.324
REMARK  Name = /home/qwerty/github/datacon2025hack/step_04_hit_selection/docking/ligands/lig_248.pdb
REMARK  7 active torsions:
REMARK  status: ('A' for Active; 'I' for Inactive)
REMARK    1  A    between atoms: C1_1  and  C2_2
REMARK    2  A    between atoms: C2_2  and  C3_3
REMARK    3  A    between atoms: C2_2  and  C4_4
REMARK    4  A    between atoms: C12_16  and  C13_17
REMARK    5  A    between atoms: C16_22  and  C17_23
REMARK    6  A    between atoms: C17_23  and  C18_24
REMARK    7  A    between atoms: C17_23  and  C19_25
REMARK                            x       y       z     vdW  Elec       q    Type
REMARK                         _______ _______ _______ _____ _____    ______ ____
ROOT
ATOM      1  C4  UNL     1      12.229  11.789  36.465  0.00  0.00    +0.049 A 
ATOM      2  C5  UNL     1      11.733  11.749  35.155  0.00  0.00    +0.067 A 
ATOM      3  C6  UNL     1      12.270  12.626  34.200  0.00  0.00    +0.125 A 
ATOM      4  N1  UNL     1      11.799  12.631  32.837  0.00  0.00    -0.312 N 
ATOM      5  C7  UNL     1      11.276  11.404  32.213  0.00  0.00    +0.125 C 
ATOM      6  C8  UNL     1      11.662  11.349  30.732  0.00  0.00    +0.125 C 
ATOM      7  N2  UNL     1      11.354  12.633  30.096  0.00  0.00    -0.310 N 
ATOM      8  C9  UNL     1      10.211  12.760  29.231  0.00  0.00    +0.158 A 
ATOM      9  N3  UNL     1       9.197  13.600  29.576  0.00  0.00    -0.236 NA
ATOM     10  C10 UNL     1       8.098  13.750  28.792  0.00  0.00    +0.132 A 
ATOM     11  C11 UNL     1       8.004  13.031  27.601  0.00  0.00    +0.132 A 
ATOM     12  N4  UNL     1       9.017  12.201  27.241  0.00  0.00    -0.240 NA
ATOM     13  C12 UNL     1      10.119  12.045  28.020  0.00  0.00    +0.180 A 
ATOM     14  C14 UNL     1      11.959  13.825  30.692  0.00  0.00    +0.125 C 
ATOM     15  C15 UNL     1      11.559  13.917  32.164  0.00  0.00    +0.125 C 
ATOM     16  N6  UNL     1      13.247  13.496  34.576  0.00  0.00    -0.217 NA
ATOM     17  C16 UNL     1      13.719  13.529  35.850  0.00  0.00    +0.134 A 
ATOM     18  N7  UNL     1      13.209  12.679  36.779  0.00  0.00    -0.236 NA
ENDROOT
BRANCH   1  20
ATOM     19  C1  UNL     1      10.515  11.543  38.267  0.00  0.00    +0.014 C 
ATOM     20  C2  UNL     1      11.680  10.872  37.531  0.00  0.00    +0.032 C 
ATOM     21  C3  UNL     1      11.241   9.540  36.915  0.00  0.00    +0.014 C 
ENDBRANCH   1  20
BRANCH  17  22
ATOM     22  C17 UNL     1      14.799  14.506  36.225  0.00  0.00    +0.051 C 
ATOM     23  C18 UNL     1      16.071  14.237  35.415  0.00  0.00    +0.015 C 
ATOM     24  C19 UNL     1      14.316  15.946  36.023  0.00  0.00    +0.015 C 
ENDBRANCH  17  22
BRANCH  13  25
ATOM     25  C13 UNL     1      11.184  11.191  27.562  0.00  0.00    +0.123 C 
ATOM     26  N5  UNL     1      12.041  10.505  27.194  0.00  0.00    -0.189 NA
ENDBRANCH  13  25
TORSDOF 3
ENDMDL
MODEL 7
REMARK VINA RESULT:    -5.957      4.317      8.282
REMARK INTER + INTRA:          -7.325
REMARK INTER:                  -6.948
REMARK INTRA:                  -0.377
REMARK UNBOUND:                -0.324
REMARK  Name = /home/qwerty/github/datacon2025hack/step_04_hit_selection/docking/ligands/lig_248.pdb
REMARK  7 active torsions:
REMARK  status: ('A' for Active; 'I' for Inactive)
REMARK    1  A    between atoms: C1_1  and  C2_2
REMARK    2  A    between atoms: C2_2  and  C3_3
REMARK    3  A    between atoms: C2_2  and  C4_4
REMARK    4  A    between atoms: C12_16  and  C13_17
REMARK    5  A    between atoms: C16_22  and  C17_23
REMARK    6  A    between atoms: C17_23  and  C18_24
REMARK    7  A    between atoms: C17_23  and  C19_25
REMARK                            x       y       z     vdW  Elec       q    Type
REMARK                         _______ _______ _______ _____ _____    ______ ____
ROOT
ATOM      1  C4  UNL     1      20.879   2.902  29.254  0.00  0.00    +0.049 A 
ATOM      2  C5  UNL     1      19.830   2.514  28.412  0.00  0.00    +0.067 A 
ATOM      3  C6  UNL     1      19.985   1.364  27.621  0.00  0.00    +0.125 A 
ATOM      4  N1  UNL     1      18.940   0.916  26.735  0.00  0.00    -0.312 N 
ATOM      5  C7  UNL     1      17.523   1.174  27.044  0.00  0.00    +0.125 C 
ATOM      6  C8  UNL     1      16.653  -0.003  26.594  0.00  0.00    +0.125 C 
ATOM      7  N2  UNL     1      17.003  -0.376  25.220  0.00  0.00    -0.310 N 
ATOM      8  C9  UNL     1      16.135  -0.023  24.129  0.00  0.00    +0.158 A 
ATOM      9  N3  UNL     1      16.583   0.822  23.160  0.00  0.00    -0.236 NA
ATOM     10  C10 UNL     1      15.798   1.185  22.112  0.00  0.00    +0.132 A 
ATOM     11  C11 UNL     1      14.502   0.676  22.020  0.00  0.00    +0.132 A 
ATOM     12  N4  UNL     1      14.052  -0.180  22.973  0.00  0.00    -0.240 NA
ATOM     13  C12 UNL     1      14.831  -0.546  24.024  0.00  0.00    +0.180 A 
ATOM     14  C14 UNL     1      18.406  -0.707  24.965  0.00  0.00    +0.125 C 
ATOM     15  C15 UNL     1      19.290   0.468  25.378  0.00  0.00    +0.125 C 
ATOM     16  N6  UNL     1      21.153   0.669  27.687  0.00  0.00    -0.217 NA
ATOM     17  C16 UNL     1      22.166   1.056  28.506  0.00  0.00    +0.134 A 
ATOM     18  N7  UNL     1      22.022   2.164  29.279  0.00  0.00    -0.236 NA
ENDROOT
BRANCH   1  20
ATOM     19  C1  UNL     1      21.719   4.042  31.314  0.00  0.00    +0.014 C 
ATOM     20  C2  UNL     1      20.765   4.135  30.118  0.00  0.00    +0.032 C 
ATOM     21  C3  UNL     1      21.046   5.394  29.292  0.00  0.00    +0.014 C 
ENDBRANCH   1  20
BRANCH  17  22
ATOM     22  C17 UNL     1      23.442   0.260  28.548  0.00  0.00    +0.051 C 
ATOM     23  C18 UNL     1      24.421   0.870  29.557  0.00  0.00    +0.015 C 
ATOM     24  C19 UNL     1      23.151  -1.206  28.885  0.00  0.00    +0.015 C 
ENDBRANCH  17  22
BRANCH  13  25
ATOM     25  C13 UNL     1      14.318  -1.497  24.976  0.00  0.00    +0.123 C 
ATOM     26  N5  UNL     1      13.907  -2.262  25.742  0.00  0.00    -0.189 NA
ENDBRANCH  13  25
TORSDOF 3
ENDMDL
MODEL 8
REMARK VINA RESULT:    -5.954     13.958     17.303
REMARK INTER + INTRA:          -7.322
REMARK INTER:                  -7.006
REMARK INTRA:                  -0.316
REMARK UNBOUND:                -0.324
REMARK  Name = /home/qwerty/github/datacon2025hack/step_04_hit_selection/docking/ligands/lig_248.pdb
REMARK  7 active torsions:
REMARK  status: ('A' for Active; 'I' for Inactive)
REMARK    1  A    between atoms: C1_1  and  C2_2
REMARK    2  A    between atoms: C2_2  and  C3_3
REMARK    3  A    between atoms: C2_2  and  C4_4
REMARK    4  A    between atoms: C12_16  and  C13_17
REMARK    5  A    between atoms: C16_22  and  C17_23
REMARK    6  A    between atoms: C17_23  and  C18_24
REMARK    7  A    between atoms: C17_23  and  C19_25
REMARK                            x       y       z     vdW  Elec       q    Type
REMARK                         _______ _______ _______ _____ _____    ______ ____
ROOT
ATOM      1  C4  UNL     1      10.062   9.060  21.021  0.00  0.00    +0.049 A 
ATOM      2  C5  UNL     1      10.099   9.637  22.297  0.00  0.00    +0.067 A 
ATOM      3  C6  UNL     1       9.309   9.083  23.316  0.00  0.00    +0.125 A 
ATOM      4  N1  UNL     1       9.306   9.634  24.647  0.00  0.00    -0.312 N 
ATOM      5  C7  UNL     1      10.499  10.306  25.191  0.00  0.00    +0.125 C 
ATOM      6  C8  UNL     1      10.640  10.019  26.689  0.00  0.00    +0.125 C 
ATOM      7  N2  UNL     1       9.354  10.247  27.356  0.00  0.00    -0.310 N 
ATOM      8  C9  UNL     1       9.150  11.425  28.156  0.00  0.00    +0.158 A 
ATOM      9  N3  UNL     1       8.207  12.334  27.786  0.00  0.00    -0.236 NA
ATOM     10  C10 UNL     1       7.981  13.461  28.509  0.00  0.00    +0.132 A 
ATOM     11  C11 UNL     1       8.728  13.695  29.664  0.00  0.00    +0.132 A 
ATOM     12  N4  UNL     1       9.661  12.786  30.050  0.00  0.00    -0.240 NA
ATOM     13  C12 UNL     1       9.893  11.657  29.331  0.00  0.00    +0.180 A 
ATOM     14  C14 UNL     1       8.205   9.500  26.843  0.00  0.00    +0.125 C 
ATOM     15  C15 UNL     1       8.026   9.797  25.356  0.00  0.00    +0.125 C 
ATOM     16  N6  UNL     1       8.523   8.009  23.032  0.00  0.00    -0.217 NA
ATOM     17  C16 UNL     1       8.492   7.458  21.790  0.00  0.00    +0.134 A 
ATOM     18  N7  UNL     1       9.258   7.985  20.800  0.00  0.00    -0.236 NA
ENDROOT
BRANCH   1  20
ATOM     19  C1  UNL     1      10.161  10.801  19.230  0.00  0.00    +0.014 C 
ATOM     20  C2  UNL     1      10.887   9.624  19.890  0.00  0.00    +0.032 C 
ATOM     21  C3  UNL     1      12.269  10.049  20.396  0.00  0.00    +0.014 C 
ENDBRANCH   1  20
BRANCH  17  22
ATOM     22  C17 UNL     1       7.608   6.271  21.518  0.00  0.00    +0.051 C 
ATOM     23  C18 UNL     1       6.407   6.684  20.661  0.00  0.00    +0.015 C 
ATOM     24  C19 UNL     1       8.404   5.151  20.841  0.00  0.00    +0.015 C 
ENDBRANCH  17  22
BRANCH  13  25
ATOM     25  C13 UNL     1      10.858  10.705  29.817  0.00  0.00    +0.123 C 
ATOM     26  N5  UNL     1      11.633   9.940  30.208  0.00  0.00    -0.189 NA
ENDBRANCH  13  25
TORSDOF 3
ENDMDL
MODEL 9
REMARK VINA RESULT:    -5.938      2.476      8.130
REMARK INTER + INTRA:          -7.303
REMARK INTER:                  -6.960
REMARK INTRA:                  -0.343
REMARK UNBOUND:                -0.324
REMARK  Name = /home/qwerty/github/datacon2025hack/step_04_hit_selection/docking/ligands/lig_248.pdb
REMARK  7 active torsions:
REMARK  status: ('A' for Active; 'I' for Inactive)
REMARK    1  A    between atoms: C1_1  and  C2_2
REMARK    2  A    between atoms: C2_2  and  C3_3
REMARK    3  A    between atoms: C2_2  and  C4_4
REMARK    4  A    between atoms: C12_16  and  C13_17
REMARK    5  A    between atoms: C16_22  and  C17_23
REMARK    6  A    between atoms: C17_23  and  C18_24
REMARK    7  A    between atoms: C17_23  and  C19_25
REMARK                            x       y       z     vdW  Elec       q    Type
REMARK                         _______ _______ _______ _____ _____    ______ ____
ROOT
ATOM      1  C4  UNL     1      22.566   1.471  29.523  0.00  0.00    +0.049 A 
ATOM      2  C5  UNL     1      22.234   2.132  30.712  0.00  0.00    +0.067 A 
ATOM      3  C6  UNL     1      21.670   3.415  30.639  0.00  0.00    +0.125 A 
ATOM      4  N1  UNL     1      21.308   4.145  31.829  0.00  0.00    -0.312 N 
ATOM      5  C7  UNL     1      20.891   3.439  33.052  0.00  0.00    +0.125 C 
ATOM      6  C8  UNL     1      19.798   4.226  33.780  0.00  0.00    +0.125 C 
ATOM      7  N2  UNL     1      20.199   5.631  33.896  0.00  0.00    -0.310 N 
ATOM      8  C9  UNL     1      20.653   6.155  35.156  0.00  0.00    +0.158 A 
ATOM      9  N3  UNL     1      21.929   6.616  35.272  0.00  0.00    -0.236 NA
ATOM     10  C10 UNL     1      22.403   7.116  36.442  0.00  0.00    +0.132 A 
ATOM     11  C11 UNL     1      21.563   7.166  37.555  0.00  0.00    +0.132 A 
ATOM     12  N4  UNL     1      20.284   6.723  37.446  0.00  0.00    -0.240 NA
ATOM     13  C12 UNL     1      19.803   6.220  36.279  0.00  0.00    +0.180 A 
ATOM     14  C14 UNL     1      20.525   6.328  32.651  0.00  0.00    +0.125 C 
ATOM     15  C15 UNL     1      21.639   5.576  31.924  0.00  0.00    +0.125 C 
ATOM     16  N6  UNL     1      21.474   3.983  29.418  0.00  0.00    -0.217 NA
ATOM     17  C16 UNL     1      21.803   3.334  28.270  0.00  0.00    +0.134 A 
ATOM     18  N7  UNL     1      22.344   2.089  28.332  0.00  0.00    -0.236 NA
ENDROOT
BRANCH   1  20
ATOM     19  C1  UNL     1      22.422  -0.852  28.611  0.00  0.00    +0.014 C 
ATOM     20  C2  UNL     1      23.182   0.093  29.548  0.00  0.00    +0.032 C 
ATOM     21  C3  UNL     1      24.664   0.163  29.167  0.00  0.00    +0.014 C 
ENDBRANCH   1  20
BRANCH  17  22
ATOM     22  C17 UNL     1      21.571   3.997  26.940  0.00  0.00    +0.051 C 
ATOM     23  C18 UNL     1      22.444   3.352  25.860  0.00  0.00    +0.015 C 
ATOM     24  C19 UNL     1      20.089   3.932  26.557  0.00  0.00    +0.015 C 
ENDBRANCH  17  22
BRANCH  13  25
ATOM     25  C13 UNL     1      18.424   5.813  36.208  0.00  0.00    +0.123 C 
ATOM     26  N5  UNL     1      17.315   5.487  36.152  0.00  0.00    -0.189 NA
ENDBRANCH  13  25
TORSDOF 3
ENDMDL
