REMARK  Name = /home/qwerty/github/datacon2025hack/step_04_hit_selection/docking/ligands/lig_138.pdb
REMARK  8 active torsions:
REMARK  status: ('A' for Active; 'I' for Inactive)
REMARK    1  A    between atoms: C1_1  and  O1_2
REMARK    2  A    between atoms: O1_2  and  C2_3
REMARK    3  A    between atoms: C2_3  and  C3_5
REMARK    4  A    between atoms: C6_10  and  N2_11
REMARK    5  A    between atoms: C7_12  and  C8_14
REMARK    6  A    between atoms: C11_19  and  C12_20
REMARK    7  A    between atoms: C12_20  and  O6_22
REMARK    8  A    between atoms: C13_23  and  C14_24
REMARK                            x       y       z     vdW  Elec       q    Type
REMARK                         _______ _______ _______ _____ _____    ______ ____
ROOT
ATOM      1  N2  UNL     1       1.627   2.143   0.395  0.00  0.00    -0.275 N 
ATOM      2  C7  UNL     1       0.401   1.409   0.244  0.00  0.00    +0.303 C 
ATOM      3  O3  UNL     1       0.358   0.394  -0.501  0.00  0.00    -0.265 OA
ATOM      4  H5  UNL     1       1.580   3.103   0.805  0.00  0.00    +0.155 HD
ENDROOT
BRANCH   2   5
ATOM      5  C8  UNL     1      -0.818   1.843   0.955  0.00  0.00    +0.302 C 
ATOM      6  O4  UNL     1      -0.724   2.699   1.876  0.00  0.00    -0.265 OA
ATOM      7  N3  UNL     1      -2.103   1.277   0.641  0.00  0.00    -0.293 N 
ATOM      8  C9  UNL     1      -3.085   1.088   1.717  0.00  0.00    +0.109 C 
ATOM      9  C10 UNL     1      -3.941  -0.155   1.451  0.00  0.00    +0.034 C 
ATOM     10  C11 UNL     1      -4.533  -0.124   0.026  0.00  0.00    +0.103 C 
ATOM     11  C13 UNL     1      -3.431   0.055  -1.053  0.00  0.00    +0.017 C 
ATOM     12  C14 UNL     1      -2.512  -1.171  -1.207  0.00  0.00    +0.010 C 
ATOM     13  C15 UNL     1      -2.601   1.315  -0.741  0.00  0.00    +0.112 C 
BRANCH  10  14
ATOM     14  C12 UNL     1      -5.403  -1.323  -0.250  0.00  0.00    +0.308 C 
ATOM     15  O5  UNL     1      -5.133  -2.448   0.253  0.00  0.00    -0.251 OA
BRANCH  14  16
ATOM     16  O6  UNL     1      -6.490  -1.196  -1.110  0.00  0.00    -0.480 OA
ATOM     17  H11 UNL     1      -7.078  -1.992  -1.325  0.00  0.00    +0.295 HD
ENDBRANCH  14  16
ENDBRANCH  10  14
ENDBRANCH   2   5
BRANCH   1  23
ATOM     18  C3  UNL     1       4.513  -0.144  -0.359  0.00  0.00    +0.079 A 
ATOM     19  C4  UNL     1       5.398   0.780  -0.933  0.00  0.00    +0.127 A 
ATOM     20  N1  UNL     1       5.042   2.085  -1.055  0.00  0.00    -0.241 NA
ATOM     21  C5  UNL     1       3.834   2.548  -0.640  0.00  0.00    +0.150 A 
ATOM     22 CL1  UNL     1       3.467   4.251  -0.865  0.00  0.00    -0.060 Cl
ATOM     23  C6  UNL     1       2.900   1.663  -0.073  0.00  0.00    +0.072 A 
ATOM     24  C16 UNL     1       3.259   0.314   0.077  0.00  0.00    +0.042 A 
BRANCH  18  25
ATOM     25  C2  UNL     1       4.900  -1.564  -0.210  0.00  0.00    +0.340 C 
ATOM     26  O2  UNL     1       4.096  -2.389   0.306  0.00  0.00    -0.245 OA
BRANCH  25  28
ATOM     27  C1  UNL     1       6.593  -3.342  -0.531  0.00  0.00    +0.280 C 
ATOM     28  O1  UNL     1       6.160  -1.992  -0.644  0.00  0.00    -0.464 OA
ENDBRANCH  25  28
ENDBRANCH  18  25
ENDBRANCH   1  23
TORSDOF 6
