REMARK  Name = /home/qwerty/github/datacon2025hack/step_04_hit_selection/docking/ligands/lig_489.pdb
REMARK  7 active torsions:
REMARK  status: ('A' for Active; 'I' for Inactive)
REMARK    1  A    between atoms: C1_1  and  C2_2
REMARK    2  A    between atoms: C2_2  and  C3_3
REMARK    3  A    between atoms: C2_2  and  C4_4
REMARK    4  A    between atoms: C9_12  and  C10_13
REMARK    5  A    between atoms: C10_13  and  N4_14
REMARK    6  A    between atoms: C15_19  and  C16_20
REMARK    7  A    between atoms: N5_22  and  C18_23
REMARK                            x       y       z     vdW  Elec       q    Type
REMARK                         _______ _______ _______ _____ _____    ______ ____
ROOT
ATOM      1  C4  UNL     1      -4.428   0.254  -0.822  0.00  0.00    +0.138 A 
ATOM      2  N1  UNL     1      -4.172   0.550  -2.113  0.00  0.00    -0.132 NA
ATOM      3  N2  UNL     1      -2.872   0.777  -2.217  0.00  0.00    -0.113 NA
ATOM      4  C5  UNL     1      -2.350   0.602  -0.988  0.00  0.00    +0.220 A 
ATOM      5  N3  UNL     1      -0.938   0.646  -0.726  0.00  0.00    -0.299 N 
ATOM      6  C6  UNL     1      -0.138   1.746  -1.272  0.00  0.00    +0.108 C 
ATOM      7  C7  UNL     1       0.950   1.229  -2.230  0.00  0.00    +0.019 C 
ATOM      8  C8  UNL     1       1.286  -0.260  -2.035  0.00  0.00    +0.008 C 
ATOM      9  C9  UNL     1       1.162  -0.719  -0.567  0.00  0.00    +0.020 C 
ATOM     10  C17 UNL     1      -0.281  -0.487  -0.053  0.00  0.00    +0.112 C 
ATOM     11  N5  UNL     1      -3.298   0.291  -0.079  0.00  0.00    -0.296 N 
ENDROOT
BRANCH   1  13
ATOM     12  C1  UNL     1      -6.907   0.584  -0.980  0.00  0.00    +0.015 C 
ATOM     13  C2  UNL     1      -5.775  -0.219  -0.331  0.00  0.00    +0.051 C 
ATOM     14  C3  UNL     1      -5.936  -1.715  -0.615  0.00  0.00    +0.015 C 
ENDBRANCH   1  13
BRANCH  11  15
ATOM     15  C18 UNL     1      -3.137  -0.015   1.345  0.00  0.00    +0.092 C 
ATOM     16  C19 UNL     1      -3.880   0.942   2.269  0.00  0.00    +0.027 C 
ATOM     17  C20 UNL     1      -2.374   1.045   2.131  0.00  0.00    +0.027 C 
ENDBRANCH  11  15
BRANCH   9  18
ATOM     18  C10 UNL     1       2.216  -0.067   0.356  0.00  0.00    +0.089 C 
BRANCH  18  19
ATOM     19  N4  UNL     1       3.584  -0.370  -0.135  0.00  0.00    -0.299 NA
ATOM     20  C11 UNL     1       4.463   0.822  -0.251  0.00  0.00    +0.084 C 
ATOM     21  C12 UNL     1       5.345   1.078   0.988  0.00  0.00    +0.015 C 
ATOM     22  C13 UNL     1       4.823   0.361   2.227  0.00  0.00    +0.003 C 
ATOM     23  C14 UNL     1       4.725  -1.150   1.986  0.00  0.00    +0.018 C 
ATOM     24  C15 UNL     1       4.207  -1.519   0.566  0.00  0.00    +0.054 C 
ATOM     25  C16 UNL     1       5.316  -2.130  -0.304  0.00  0.00    +0.024 C 
ENDBRANCH  18  19
ENDBRANCH   9  18
TORSDOF 4
