REMARK  Name = /home/qwerty/github/datacon2025hack/step_04_hit_selection/docking/ligands/lig_686.pdb
REMARK  4 active torsions:
REMARK  status: ('A' for Active; 'I' for Inactive)
REMARK    1  A    between atoms: C1_2  and  C18_25
REMARK    2  A    between atoms: N1_3  and  C2_4
REMARK    3  A    between atoms: C5_7  and  C6_8
REMARK    4  A    between atoms: N3_12  and  C9_13
REMARK                            x       y       z     vdW  Elec       q    Type
REMARK                         _______ _______ _______ _____ _____    ______ ____
ROOT
ATOM      1  C2  UNL     1       2.687   0.540   0.584  0.00  0.00    +0.034 A 
ATOM      2  C3  UNL     1       1.964   0.887   1.734  0.00  0.00    +0.024 A 
ATOM      3  C4  UNL     1       0.569   0.954   1.702  0.00  0.00    +0.010 A 
ATOM      4  C5  UNL     1      -0.134   0.659   0.521  0.00  0.00    -0.015 A 
ATOM      5  C16 UNL     1       0.592   0.290  -0.626  0.00  0.00    +0.010 A 
ATOM      6  C17 UNL     1       1.988   0.226  -0.594  0.00  0.00    +0.024 A 
ENDROOT
BRANCH   4   7
ATOM      7  C6  UNL     1      -1.617   0.729   0.487  0.00  0.00    +0.018 A 
ATOM      8  C7  UNL     1      -2.313   1.746   1.158  0.00  0.00    +0.124 A 
ATOM      9  N2  UNL     1      -3.669   1.793   1.111  0.00  0.00    -0.222 NA
ATOM     10  C8  UNL     1      -4.383   0.859   0.430  0.00  0.00    +0.219 A 
ATOM     11  N3  UNL     1      -5.813   0.961   0.380  0.00  0.00    -0.283 N 
ATOM     12  N4  UNL     1      -3.730  -0.130  -0.238  0.00  0.00    -0.222 NA
ATOM     13  C15 UNL     1      -2.376  -0.215  -0.221  0.00  0.00    +0.124 A 
ATOM     14  H5  UNL     1      -6.241   1.878   0.643  0.00  0.00    +0.155 HD
BRANCH  11  15
ATOM     15  C9  UNL     1      -6.680  -0.073  -0.117  0.00  0.00    +0.039 A 
ATOM     16  C10 UNL     1      -6.408  -1.433   0.120  0.00  0.00    +0.061 A 
ATOM     17  C11 UNL     1      -7.282  -2.419  -0.351  0.00  0.00    +0.128 A 
ATOM     18  F1  UNL     1      -7.012  -3.728  -0.122  0.00  0.00    -0.205 F 
ATOM     19  C12 UNL     1      -8.437  -2.056  -1.048  0.00  0.00    +0.076 A 
ATOM     20  C13 UNL     1      -8.727  -0.707  -1.267  0.00  0.00    +0.128 A 
ATOM     21  F2  UNL     1      -9.854  -0.355  -1.933  0.00  0.00    -0.205 F 
ATOM     22  C14 UNL     1      -7.856   0.281  -0.796  0.00  0.00    +0.061 A 
ENDBRANCH  11  15
ENDBRANCH   4   7
BRANCH   1  25
ATOM     23  O1  UNL     1       4.572   1.422  -1.431  0.00  0.00    -0.270 OA
ATOM     24  C1  UNL     1       4.988   0.717  -0.470  0.00  0.00    +0.248 C 
ATOM     25  N1  UNL     1       4.122   0.458   0.648  0.00  0.00    -0.282 N 
ATOM     26  H1  UNL     1       4.561   0.314   1.586  0.00  0.00    +0.155 HD
BRANCH  24  27
ATOM     27  C18 UNL     1       6.381   0.210  -0.487  0.00  0.00    +0.037 A 
ATOM     28  C19 UNL     1       6.773  -0.859   0.342  0.00  0.00    +0.014 A 
ATOM     29  C20 UNL     1       8.088  -1.334   0.312  0.00  0.00    +0.021 A 
ATOM     30  C21 UNL     1       9.025  -0.754  -0.547  0.00  0.00    +0.041 A 
ATOM     31 CL1  UNL     1      10.673  -1.353  -0.582  0.00  0.00    -0.084 Cl
ATOM     32  C22 UNL     1       8.645   0.301  -1.381  0.00  0.00    +0.021 A 
ATOM     33  C23 UNL     1       7.332   0.779  -1.355  0.00  0.00    +0.014 A 
ENDBRANCH  24  27
ENDBRANCH   1  25
TORSDOF 4
