MODEL 1
REMARK VINA RESULT:    -6.344      0.000      0.000
REMARK INTER + INTRA:          -9.049
REMARK INTER:                  -8.199
REMARK INTRA:                  -0.851
REMARK UNBOUND:                -0.851
REMARK  Name = /home/qwerty/github/datacon2025hack/step_04_hit_selection/docking/ligands/lig_390.pdb
REMARK  7 active torsions:
REMARK  status: ('A' for Active; 'I' for Inactive)
REMARK    1  A    between atoms: C1_1  and  C2_2
REMARK    2  A    between atoms: C2_2  and  N1_3
REMARK    3  A    between atoms: C2_2  and  C8_12
REMARK    4  A    between atoms: C3_4  and  C4_6
REMARK    5  A    between atoms: N3_9  and  C6_10
REMARK    6  A    between atoms: N4_16  and  C12_17
REMARK    7  A    between atoms: C12_17  and  C13_18
REMARK                            x       y       z     vdW  Elec       q    Type
REMARK                         _______ _______ _______ _____ _____    ______ ____
ROOT
ATOM      1  C8  UNL     1      21.286   2.956  32.559  0.00  0.00    +0.023 C 
ATOM      2  C9  UNL     1      19.889   3.589  32.385  0.00  0.00    +0.008 C 
ATOM      3  C10 UNL     1      19.830   4.979  33.011  0.00  0.00    +0.016 C 
ATOM      4  C11 UNL     1      20.920   5.872  32.413  0.00  0.00    +0.084 C 
ATOM      5  N4  UNL     1      22.266   5.298  32.610  0.00  0.00    -0.302 NA
ATOM      6  C20 UNL     1      22.379   3.934  32.042  0.00  0.00    +0.089 C 
ENDROOT
BRANCH   1   8
ATOM      7  C1  UNL     1      20.299   0.593  32.344  0.00  0.00    +0.028 C 
ATOM      8  C2  UNL     1      21.353   1.583  31.830  0.00  0.00    +0.074 C 
BRANCH   8   9
ATOM      9  N1  UNL     1      21.147   1.770  30.389  0.00  0.00    -0.308 N 
ATOM     10  C3  UNL     1      22.182   1.567  29.412  0.00  0.00    +0.247 C 
ATOM     11  O1  UNL     1      23.323   1.171  29.775  0.00  0.00    -0.270 OA
ATOM     12  H5  UNL     1      20.212   2.119  30.079  0.00  0.00    +0.149 HD
BRANCH  10  13
ATOM     13  C4  UNL     1      21.938   1.824  27.982  0.00  0.00    +0.074 A 
ATOM     14  C5  UNL     1      22.608   2.696  27.138  0.00  0.00    +0.147 A 
ATOM     15  N2  UNL     1      22.059   2.633  25.909  0.00  0.00    -0.179 NA
ATOM     16  N3  UNL     1      21.081   1.743  25.952  0.00  0.00    -0.274 N 
ATOM     17  C6  UNL     1      20.204   1.442  24.829  0.00  0.00    +0.172 C 
ATOM     18  C7  UNL     1      20.966   1.239  27.195  0.00  0.00    +0.121 A 
ENDBRANCH  10  13
ENDBRANCH   8   9
ENDBRANCH   1   8
BRANCH   5  19
ATOM     19  C12 UNL     1      22.748   5.399  34.007  0.00  0.00    +0.088 C 
BRANCH  19  20
ATOM     20  C13 UNL     1      23.915   6.397  34.087  0.00  0.00    +0.004 C 
ATOM     21  C14 UNL     1      24.609   6.644  32.738  0.00  0.00    +0.011 C 
ATOM     22  C15 UNL     1      24.147   8.092  32.808  0.00  0.00    -0.029 C 
ATOM     23  C16 UNL     1      23.334   8.661  31.654  0.00  0.00    +0.007 C 
ATOM     24  C17 UNL     1      24.368   9.782  31.527  0.00  0.00    +0.001 C 
ATOM     25  C18 UNL     1      25.180   9.203  32.689  0.00  0.00    +0.007 C 
ATOM     26  C19 UNL     1      23.460   7.863  34.148  0.00  0.00    +0.011 C 
ENDBRANCH  19  20
ENDBRANCH   5  19
TORSDOF 5
ENDMDL
MODEL 2
REMARK VINA RESULT:    -6.211     14.194     16.908
REMARK INTER + INTRA:          -8.877
REMARK INTER:                  -8.026
REMARK INTRA:                  -0.850
REMARK UNBOUND:                -0.851
REMARK  Name = /home/qwerty/github/datacon2025hack/step_04_hit_selection/docking/ligands/lig_390.pdb
REMARK  7 active torsions:
REMARK  status: ('A' for Active; 'I' for Inactive)
REMARK    1  A    between atoms: C1_1  and  C2_2
REMARK    2  A    between atoms: C2_2  and  N1_3
REMARK    3  A    between atoms: C2_2  and  C8_12
REMARK    4  A    between atoms: C3_4  and  C4_6
REMARK    5  A    between atoms: N3_9  and  C6_10
REMARK    6  A    between atoms: N4_16  and  C12_17
REMARK    7  A    between atoms: C12_17  and  C13_18
REMARK                            x       y       z     vdW  Elec       q    Type
REMARK                         _______ _______ _______ _____ _____    ______ ____
ROOT
ATOM      1  C8  UNL     1       7.752   9.707  27.274  0.00  0.00    +0.023 C 
ATOM      2  C9  UNL     1       8.002   8.211  27.561  0.00  0.00    +0.008 C 
ATOM      3  C10 UNL     1       8.104   7.410  26.266  0.00  0.00    +0.016 C 
ATOM      4  C11 UNL     1       9.201   7.993  25.371  0.00  0.00    +0.084 C 
ATOM      5  N4  UNL     1       8.951   9.413  25.055  0.00  0.00    -0.302 NA
ATOM      6  C20 UNL     1       8.819  10.241  26.277  0.00  0.00    +0.089 C 
ENDROOT
BRANCH   1   8
ATOM      7  C1  UNL     1       7.694   9.618  29.842  0.00  0.00    +0.028 C 
ATOM      8  C2  UNL     1       7.749  10.520  28.601  0.00  0.00    +0.074 C 
BRANCH   8   9
ATOM      9  N1  UNL     1       8.959  11.346  28.684  0.00  0.00    -0.308 N 
ATOM     10  C3  UNL     1       8.930  12.760  28.946  0.00  0.00    +0.247 C 
ATOM     11  O1  UNL     1       7.831  13.340  29.158  0.00  0.00    -0.270 OA
ATOM     12  H5  UNL     1       9.874  10.881  28.490  0.00  0.00    +0.149 HD
BRANCH  10  13
ATOM     13  C4  UNL     1      10.171  13.555  28.964  0.00  0.00    +0.074 A 
ATOM     14  C5  UNL     1      10.789  14.208  27.909  0.00  0.00    +0.147 A 
ATOM     15  N2  UNL     1      11.910  14.808  28.355  0.00  0.00    -0.179 NA
ATOM     16  N3  UNL     1      12.007  14.564  29.652  0.00  0.00    -0.274 N 
ATOM     17  C6  UNL     1      13.126  14.992  30.479  0.00  0.00    +0.172 C 
ATOM     18  C7  UNL     1      10.978  13.796  30.057  0.00  0.00    +0.121 A 
ENDBRANCH  10  13
ENDBRANCH   8   9
ENDBRANCH   1   8
BRANCH   5  19
ATOM     19  C12 UNL     1       7.852   9.612  24.083  0.00  0.00    +0.088 C 
BRANCH  19  20
ATOM     20  C13 UNL     1       8.354  10.438  22.886  0.00  0.00    +0.004 C 
ATOM     21  C14 UNL     1       9.882  10.419  22.723  0.00  0.00    +0.011 C 
ATOM     22  C15 UNL     1       9.694   9.706  21.391  0.00  0.00    -0.029 C 
ATOM     23  C16 UNL     1      10.396   8.375  21.165  0.00  0.00    +0.007 C 
ATOM     24  C17 UNL     1      11.030   8.967  19.904  0.00  0.00    +0.001 C 
ATOM     25  C18 UNL     1      10.321  10.302  20.140  0.00  0.00    +0.007 C 
ATOM     26  C19 UNL     1       8.178   9.722  21.537  0.00  0.00    +0.011 C 
ENDBRANCH  19  20
ENDBRANCH   5  19
TORSDOF 5
ENDMDL
MODEL 3
REMARK VINA RESULT:    -6.145      2.554      9.249
REMARK INTER + INTRA:          -8.793
REMARK INTER:                  -7.995
REMARK INTRA:                  -0.798
REMARK UNBOUND:                -0.851
REMARK  Name = /home/qwerty/github/datacon2025hack/step_04_hit_selection/docking/ligands/lig_390.pdb
REMARK  7 active torsions:
REMARK  status: ('A' for Active; 'I' for Inactive)
REMARK    1  A    between atoms: C1_1  and  C2_2
REMARK    2  A    between atoms: C2_2  and  N1_3
REMARK    3  A    between atoms: C2_2  and  C8_12
REMARK    4  A    between atoms: C3_4  and  C4_6
REMARK    5  A    between atoms: N3_9  and  C6_10
REMARK    6  A    between atoms: N4_16  and  C12_17
REMARK    7  A    between atoms: C12_17  and  C13_18
REMARK                            x       y       z     vdW  Elec       q    Type
REMARK                         _______ _______ _______ _____ _____    ______ ____
ROOT
ATOM      1  C8  UNL     1      21.899   1.194  27.819  0.00  0.00    +0.023 C 
ATOM      2  C9  UNL     1      22.549   2.543  27.446  0.00  0.00    +0.008 C 
ATOM      3  C10 UNL     1      21.916   3.132  26.188  0.00  0.00    +0.016 C 
ATOM      4  C11 UNL     1      20.405   3.280  26.380  0.00  0.00    +0.084 C 
ATOM      5  N4  UNL     1      19.765   1.988  26.696  0.00  0.00    -0.302 NA
ATOM      6  C20 UNL     1      20.354   1.353  27.898  0.00  0.00    +0.089 C 
ENDROOT
BRANCH   1   8
ATOM      7  C1  UNL     1      23.990   0.351  29.054  0.00  0.00    +0.028 C 
ATOM      8  C2  UNL     1      22.490   0.659  29.156  0.00  0.00    +0.074 C 
BRANCH   8   9
ATOM      9  N1  UNL     1      22.294   1.650  30.221  0.00  0.00    -0.308 N 
ATOM     10  C3  UNL     1      21.378   1.460  31.314  0.00  0.00    +0.247 C 
ATOM     11  O1  UNL     1      20.727   0.385  31.411  0.00  0.00    -0.270 OA
ATOM     12  H5  UNL     1      22.812   2.553  30.140  0.00  0.00    +0.149 HD
BRANCH  10  13
ATOM     13  C4  UNL     1      21.177   2.511  32.328  0.00  0.00    +0.074 A 
ATOM     14  C5  UNL     1      20.044   2.773  33.082  0.00  0.00    +0.147 A 
ATOM     15  N2  UNL     1      20.280   3.830  33.883  0.00  0.00    -0.179 NA
ATOM     16  N3  UNL     1      21.523   4.228  33.666  0.00  0.00    -0.274 N 
ATOM     17  C6  UNL     1      22.127   5.392  34.301  0.00  0.00    +0.172 C 
ATOM     18  C7  UNL     1      22.097   3.462  32.721  0.00  0.00    +0.121 A 
ENDBRANCH  10  13
ENDBRANCH   8   9
ENDBRANCH   1   8
BRANCH   5  19
ATOM     19  C12 UNL     1      19.674   1.078  25.531  0.00  0.00    +0.088 C 
BRANCH  19  20
ATOM     20  C13 UNL     1      18.201   0.874  25.138  0.00  0.00    +0.004 C 
ATOM     21  C14 UNL     1      18.009  -0.055  23.929  0.00  0.00    +0.011 C 
ATOM     22  C15 UNL     1      17.282  -1.032  24.843  0.00  0.00    -0.029 C 
ATOM     23  C16 UNL     1      17.780  -2.467  24.929  0.00  0.00    +0.007 C 
ATOM     24  C17 UNL     1      16.374  -2.938  24.552  0.00  0.00    +0.001 C 
ATOM     25  C18 UNL     1      15.881  -1.492  24.467  0.00  0.00    +0.007 C 
ATOM     26  C19 UNL     1      17.461  -0.118  26.049  0.00  0.00    +0.011 C 
ENDBRANCH  19  20
ENDBRANCH   5  19
TORSDOF 5
ENDMDL
MODEL 4
REMARK VINA RESULT:    -6.115      1.601      2.151
REMARK INTER + INTRA:          -8.753
REMARK INTER:                  -7.865
REMARK INTRA:                  -0.888
REMARK UNBOUND:                -0.851
REMARK  Name = /home/qwerty/github/datacon2025hack/step_04_hit_selection/docking/ligands/lig_390.pdb
REMARK  7 active torsions:
REMARK  status: ('A' for Active; 'I' for Inactive)
REMARK    1  A    between atoms: C1_1  and  C2_2
REMARK    2  A    between atoms: C2_2  and  N1_3
REMARK    3  A    between atoms: C2_2  and  C8_12
REMARK    4  A    between atoms: C3_4  and  C4_6
REMARK    5  A    between atoms: N3_9  and  C6_10
REMARK    6  A    between atoms: N4_16  and  C12_17
REMARK    7  A    between atoms: C12_17  and  C13_18
REMARK                            x       y       z     vdW  Elec       q    Type
REMARK                         _______ _______ _______ _____ _____    ______ ____
ROOT
ATOM      1  C8  UNL     1      21.502   2.522  31.706  0.00  0.00    +0.023 C 
ATOM      2  C9  UNL     1      20.750   1.856  32.878  0.00  0.00    +0.008 C 
ATOM      3  C10 UNL     1      20.573   2.824  34.044  0.00  0.00    +0.016 C 
ATOM      4  C11 UNL     1      19.852   4.089  33.571  0.00  0.00    +0.084 C 
ATOM      5  N4  UNL     1      20.583   4.760  32.478  0.00  0.00    -0.302 NA
ATOM      6  C20 UNL     1      20.807   3.859  31.323  0.00  0.00    +0.089 C 
ENDROOT
BRANCH   1   8
ATOM      7  C1  UNL     1      20.565   0.407  30.585  0.00  0.00    +0.028 C 
ATOM      8  C2  UNL     1      21.585   1.550  30.493  0.00  0.00    +0.074 C 
BRANCH   8   9
ATOM      9  N1  UNL     1      21.343   2.285  29.246  0.00  0.00    -0.308 N 
ATOM     10  C3  UNL     1      22.308   2.371  28.184  0.00  0.00    +0.247 C 
ATOM     11  O1  UNL     1      23.409   1.764  28.280  0.00  0.00    -0.270 OA
ATOM     12  H5  UNL     1      20.444   2.809  29.163  0.00  0.00    +0.149 HD
BRANCH  10  13
ATOM     13  C4  UNL     1      22.037   3.170  26.974  0.00  0.00    +0.074 A 
ATOM     14  C5  UNL     1      22.510   2.968  25.687  0.00  0.00    +0.147 A 
ATOM     15  N2  UNL     1      22.029   3.935  24.882  0.00  0.00    -0.179 NA
ATOM     16  N3  UNL     1      21.262   4.724  25.617  0.00  0.00    -0.274 N 
ATOM     17  C6  UNL     1      20.614   5.927  25.113  0.00  0.00    +0.172 C 
ATOM     18  C7  UNL     1      21.251   4.302  26.894  0.00  0.00    +0.121 A 
ENDBRANCH  10  13
ENDBRANCH   8   9
ENDBRANCH   1   8
BRANCH   5  19
ATOM     19  C12 UNL     1      21.810   5.454  32.933  0.00  0.00    +0.088 C 
BRANCH  19  20
ATOM     20  C13 UNL     1      21.891   6.850  32.290  0.00  0.00    +0.004 C 
ATOM     21  C14 UNL     1      22.403   7.939  33.246  0.00  0.00    +0.011 C 
ATOM     22  C15 UNL     1      23.618   8.106  32.344  0.00  0.00    -0.029 C 
ATOM     23  C16 UNL     1      25.007   7.964  32.950  0.00  0.00    +0.007 C 
ATOM     24  C17 UNL     1      25.347   9.352  32.403  0.00  0.00    +0.001 C 
ATOM     25  C18 UNL     1      23.947   9.487  31.798  0.00  0.00    +0.007 C 
ATOM     26  C19 UNL     1      23.120   7.032  31.386  0.00  0.00    +0.011 C 
ENDBRANCH  19  20
ENDBRANCH   5  19
TORSDOF 5
ENDMDL
MODEL 5
REMARK VINA RESULT:    -6.072     13.183     14.929
REMARK INTER + INTRA:          -8.697
REMARK INTER:                  -7.870
REMARK INTRA:                  -0.827
REMARK UNBOUND:                -0.851
REMARK  Name = /home/qwerty/github/datacon2025hack/step_04_hit_selection/docking/ligands/lig_390.pdb
REMARK  7 active torsions:
REMARK  status: ('A' for Active; 'I' for Inactive)
REMARK    1  A    between atoms: C1_1  and  C2_2
REMARK    2  A    between atoms: C2_2  and  N1_3
REMARK    3  A    between atoms: C2_2  and  C8_12
REMARK    4  A    between atoms: C3_4  and  C4_6
REMARK    5  A    between atoms: N3_9  and  C6_10
REMARK    6  A    between atoms: N4_16  and  C12_17
REMARK    7  A    between atoms: C12_17  and  C13_18
REMARK                            x       y       z     vdW  Elec       q    Type
REMARK                         _______ _______ _______ _____ _____    ______ ____
ROOT
ATOM      1  C8  UNL     1      11.958  14.240  29.997  0.00  0.00    +0.023 C 
ATOM      2  C9  UNL     1      13.438  14.046  29.606  0.00  0.00    +0.008 C 
ATOM      3  C10 UNL     1      14.332  13.984  30.842  0.00  0.00    +0.016 C 
ATOM      4  C11 UNL     1      13.857  12.871  31.779  0.00  0.00    +0.084 C 
ATOM      5  N4  UNL     1      12.454  13.067  32.194  0.00  0.00    -0.302 NA
ATOM      6  C20 UNL     1      11.537  13.159  31.033  0.00  0.00    +0.089 C 
ENDROOT
BRANCH   1   8
ATOM      7  C1  UNL     1      11.852  14.393  27.434  0.00  0.00    +0.028 C 
ATOM      8  C2  UNL     1      11.054  14.203  28.731  0.00  0.00    +0.074 C 
BRANCH   8   9
ATOM      9  N1  UNL     1      10.351  12.916  28.655  0.00  0.00    -0.308 N 
ATOM     10  C3  UNL     1       8.934  12.806  28.435  0.00  0.00    +0.247 C 
ATOM     11  O1  UNL     1       8.240  13.843  28.255  0.00  0.00    -0.270 OA
ATOM     12  H5  UNL     1      10.911  12.051  28.824  0.00  0.00    +0.149 HD
BRANCH  10  13
ATOM     13  C4  UNL     1       8.268  11.491  28.424  0.00  0.00    +0.074 A 
ATOM     14  C5  UNL     1       7.595  10.859  29.458  0.00  0.00    +0.147 A 
ATOM     15  N2  UNL     1       7.145   9.664  29.028  0.00  0.00    -0.179 NA
ATOM     16  N3  UNL     1       7.500   9.534  27.760  0.00  0.00    -0.274 N 
ATOM     17  C6  UNL     1       7.250   8.340  26.964  0.00  0.00    +0.172 C 
ATOM     18  C7  UNL     1       8.194  10.615  27.360  0.00  0.00    +0.121 A 
ENDBRANCH  10  13
ENDBRANCH   8   9
ENDBRANCH   1   8
BRANCH   5  19
ATOM     19  C12 UNL     1      12.280  14.163  33.173  0.00  0.00    +0.088 C 
BRANCH  19  20
ATOM     20  C13 UNL     1      11.247  13.756  34.238  0.00  0.00    +0.004 C 
ATOM     21  C14 UNL     1      11.170  12.239  34.473  0.00  0.00    +0.011 C 
ATOM     22  C15 UNL     1      11.661  12.472  35.894  0.00  0.00    -0.029 C 
ATOM     23  C16 UNL     1      12.905  11.735  36.372  0.00  0.00    +0.007 C 
ATOM     24  C17 UNL     1      12.085  11.190  37.545  0.00  0.00    +0.001 C 
ATOM     25  C18 UNL     1      10.840  11.935  37.057  0.00  0.00    +0.007 C 
ATOM     26  C19 UNL     1      11.738  13.978  35.678  0.00  0.00    +0.011 C 
ENDBRANCH  19  20
ENDBRANCH   5  19
TORSDOF 5
ENDMDL
MODEL 6
REMARK VINA RESULT:    -5.962      2.332      8.822
REMARK INTER + INTRA:          -8.555
REMARK INTER:                  -7.727
REMARK INTRA:                  -0.828
REMARK UNBOUND:                -0.851
REMARK  Name = /home/qwerty/github/datacon2025hack/step_04_hit_selection/docking/ligands/lig_390.pdb
REMARK  7 active torsions:
REMARK  status: ('A' for Active; 'I' for Inactive)
REMARK    1  A    between atoms: C1_1  and  C2_2
REMARK    2  A    between atoms: C2_2  and  N1_3
REMARK    3  A    between atoms: C2_2  and  C8_12
REMARK    4  A    between atoms: C3_4  and  C4_6
REMARK    5  A    between atoms: N3_9  and  C6_10
REMARK    6  A    between atoms: N4_16  and  C12_17
REMARK    7  A    between atoms: C12_17  and  C13_18
REMARK                            x       y       z     vdW  Elec       q    Type
REMARK                         _______ _______ _______ _____ _____    ______ ____
ROOT
ATOM      1  C8  UNL     1      21.087   1.327  30.042  0.00  0.00    +0.023 C 
ATOM      2  C9  UNL     1      22.627   1.424  30.079  0.00  0.00    +0.008 C 
ATOM      3  C10 UNL     1      23.227   1.215  28.691  0.00  0.00    +0.016 C 
ATOM      4  C11 UNL     1      22.632   2.222  27.704  0.00  0.00    +0.084 C 
ATOM      5  N4  UNL     1      21.162   2.111  27.628  0.00  0.00    -0.302 NA
ATOM      6  C20 UNL     1      20.522   2.283  28.954  0.00  0.00    +0.089 C 
ENDROOT
BRANCH   1   8
ATOM      7  C1  UNL     1      20.235   0.372  32.271  0.00  0.00    +0.028 C 
ATOM      8  C2  UNL     1      20.491   1.640  31.446  0.00  0.00    +0.074 C 
BRANCH   8   9
ATOM      9  N1  UNL     1      21.410   2.502  32.199  0.00  0.00    -0.308 N 
ATOM     10  C3  UNL     1      21.147   3.891  32.463  0.00  0.00    +0.247 C 
ATOM     11  O1  UNL     1      20.067   4.414  32.077  0.00  0.00    -0.270 OA
ATOM     12  H5  UNL     1      22.318   2.086  32.505  0.00  0.00    +0.149 HD
BRANCH  10  13
ATOM     13  C4  UNL     1      22.130   4.728  33.175  0.00  0.00    +0.074 A 
ATOM     14  C5  UNL     1      23.365   5.171  32.731  0.00  0.00    +0.147 A 
ATOM     15  N2  UNL     1      23.949   5.902  33.700  0.00  0.00    -0.179 NA
ATOM     16  N3  UNL     1      23.117   5.943  34.728  0.00  0.00    -0.274 N 
ATOM     17  C6  UNL     1      23.422   6.587  35.998  0.00  0.00    +0.172 C 
ATOM     18  C7  UNL     1      22.007   5.232  34.455  0.00  0.00    +0.121 A 
ENDBRANCH  10  13
ENDBRANCH   8   9
ENDBRANCH   1   8
BRANCH   5  19
ATOM     19  C12 UNL     1      20.702   0.907  26.900  0.00  0.00    +0.088 C 
BRANCH  19  20
ATOM     20  C13 UNL     1      19.607   1.292  25.890  0.00  0.00    +0.004 C 
ATOM     21  C14 UNL     1      19.638   0.457  24.600  0.00  0.00    +0.011 C 
ATOM     22  C15 UNL     1      18.270  -0.097  24.970  0.00  0.00    -0.029 C 
ATOM     23  C16 UNL     1      18.089  -1.606  25.062  0.00  0.00    +0.007 C 
ATOM     24  C17 UNL     1      16.939  -1.491  24.058  0.00  0.00    +0.001 C 
ATOM     25  C18 UNL     1      17.129   0.025  23.971  0.00  0.00    +0.007 C 
ATOM     26  C19 UNL     1      18.223   0.728  26.250  0.00  0.00    +0.011 C 
ENDBRANCH  19  20
ENDBRANCH   5  19
TORSDOF 5
ENDMDL
MODEL 7
REMARK VINA RESULT:    -5.922     13.899     16.735
REMARK INTER + INTRA:          -8.504
REMARK INTER:                  -7.657
REMARK INTRA:                  -0.847
REMARK UNBOUND:                -0.851
REMARK  Name = /home/qwerty/github/datacon2025hack/step_04_hit_selection/docking/ligands/lig_390.pdb
REMARK  7 active torsions:
REMARK  status: ('A' for Active; 'I' for Inactive)
REMARK    1  A    between atoms: C1_1  and  C2_2
REMARK    2  A    between atoms: C2_2  and  N1_3
REMARK    3  A    between atoms: C2_2  and  C8_12
REMARK    4  A    between atoms: C3_4  and  C4_6
REMARK    5  A    between atoms: N3_9  and  C6_10
REMARK    6  A    between atoms: N4_16  and  C12_17
REMARK    7  A    between atoms: C12_17  and  C13_18
REMARK                            x       y       z     vdW  Elec       q    Type
REMARK                         _______ _______ _______ _____ _____    ______ ____
ROOT
ATOM      1  C8  UNL     1       8.023  11.884  28.445  0.00  0.00    +0.023 C 
ATOM      2  C9  UNL     1       7.757  11.023  29.698  0.00  0.00    +0.008 C 
ATOM      3  C10 UNL     1       7.487   9.569  29.322  0.00  0.00    +0.016 C 
ATOM      4  C11 UNL     1       8.655   9.011  28.506  0.00  0.00    +0.084 C 
ATOM      5  N4  UNL     1       8.894   9.801  27.282  0.00  0.00    -0.302 NA
ATOM      6  C20 UNL     1       9.140  11.231  27.582  0.00  0.00    +0.089 C 
ENDROOT
BRANCH   1   8
ATOM      7  C1  UNL     1       7.262  14.036  29.627  0.00  0.00    +0.028 C 
ATOM      8  C2  UNL     1       8.392  13.339  28.856  0.00  0.00    +0.074 C 
BRANCH   8   9
ATOM      9  N1  UNL     1       9.592  13.332  29.701  0.00  0.00    -0.308 N 
ATOM     10  C3  UNL     1      10.855  13.874  29.280  0.00  0.00    +0.247 C 
ATOM     11  O1  UNL     1      10.960  14.425  28.150  0.00  0.00    -0.270 OA
ATOM     12  H5  UNL     1       9.522  12.860  30.630  0.00  0.00    +0.149 HD
BRANCH  10  13
ATOM     13  C4  UNL     1      12.044  13.791  30.146  0.00  0.00    +0.074 A 
ATOM     14  C5  UNL     1      13.369  13.622  29.775  0.00  0.00    +0.147 A 
ATOM     15  N2  UNL     1      14.138  13.588  30.881  0.00  0.00    -0.179 NA
ATOM     16  N3  UNL     1      13.343  13.743  31.927  0.00  0.00    -0.274 N 
ATOM     17  C6  UNL     1      13.799  13.694  33.309  0.00  0.00    +0.172 C 
ATOM     18  C7  UNL     1      12.064  13.856  31.525  0.00  0.00    +0.121 A 
ENDBRANCH  10  13
ENDBRANCH   8   9
ENDBRANCH   1   8
BRANCH   5  19
ATOM     19  C12 UNL     1       7.870   9.583  26.235  0.00  0.00    +0.088 C 
BRANCH  19  20
ATOM     20  C13 UNL     1       8.213  10.413  24.986  0.00  0.00    +0.004 C 
ATOM     21  C14 UNL     1       9.465   9.919  24.243  0.00  0.00    +0.011 C 
ATOM     22  C15 UNL     1       8.579   9.588  23.050  0.00  0.00    -0.029 C 
ATOM     23  C16 UNL     1       8.596   8.171  22.494  0.00  0.00    +0.007 C 
ATOM     24  C17 UNL     1       8.942   8.755  21.121  0.00  0.00    +0.001 C 
ATOM     25  C18 UNL     1       8.923  10.176  21.690  0.00  0.00    +0.007 C 
ATOM     26  C19 UNL     1       7.331  10.079  23.773  0.00  0.00    +0.011 C 
ENDBRANCH  19  20
ENDBRANCH   5  19
TORSDOF 5
ENDMDL
MODEL 8
REMARK VINA RESULT:    -5.870     13.862     14.975
REMARK INTER + INTRA:          -8.437
REMARK INTER:                  -7.645
REMARK INTRA:                  -0.792
REMARK UNBOUND:                -0.851
REMARK  Name = /home/qwerty/github/datacon2025hack/step_04_hit_selection/docking/ligands/lig_390.pdb
REMARK  7 active torsions:
REMARK  status: ('A' for Active; 'I' for Inactive)
REMARK    1  A    between atoms: C1_1  and  C2_2
REMARK    2  A    between atoms: C2_2  and  N1_3
REMARK    3  A    between atoms: C2_2  and  C8_12
REMARK    4  A    between atoms: C3_4  and  C4_6
REMARK    5  A    between atoms: N3_9  and  C6_10
REMARK    6  A    between atoms: N4_16  and  C12_17
REMARK    7  A    between atoms: C12_17  and  C13_18
REMARK                            x       y       z     vdW  Elec       q    Type
REMARK                         _______ _______ _______ _____ _____    ______ ____
ROOT
ATOM      1  C8  UNL     1       8.651  11.457  28.799  0.00  0.00    +0.023 C 
ATOM      2  C9  UNL     1       8.272  12.403  27.640  0.00  0.00    +0.008 C 
ATOM      3  C10 UNL     1       8.819  13.809  27.872  0.00  0.00    +0.016 C 
ATOM      4  C11 UNL     1      10.335  13.757  28.072  0.00  0.00    +0.084 C 
ATOM      5  N4  UNL     1      10.709  12.888  29.205  0.00  0.00    -0.302 NA
ATOM      6  C20 UNL     1      10.185  11.511  29.048  0.00  0.00    +0.089 C 
ENDROOT
BRANCH   1   8
ATOM      7  C1  UNL     1       6.910   9.631  29.288  0.00  0.00    +0.028 C 
ATOM      8  C2  UNL     1       8.169  10.009  28.497  0.00  0.00    +0.074 C 
BRANCH   8   9
ATOM      9  N1  UNL     1       7.874   9.868  27.066  0.00  0.00    -0.308 N 
ATOM     10  C3  UNL     1       8.725   9.154  26.153  0.00  0.00    +0.247 C 
ATOM     11  O1  UNL     1       9.762   8.576  26.578  0.00  0.00    -0.270 OA
ATOM     12  H5  UNL     1       7.030  10.361  26.698  0.00  0.00    +0.149 HD
BRANCH  10  13
ATOM     13  C4  UNL     1       8.412   9.091  24.714  0.00  0.00    +0.074 A 
ATOM     14  C5  UNL     1       7.855  10.074  23.911  0.00  0.00    +0.147 A 
ATOM     15  N2  UNL     1       7.727   9.600  22.656  0.00  0.00    -0.179 NA
ATOM     16  N3  UNL     1       8.196   8.363  22.644  0.00  0.00    -0.274 N 
ATOM     17  C6  UNL     1       8.167   7.493  21.477  0.00  0.00    +0.172 C 
ATOM     18  C7  UNL     1       8.609   8.012  23.876  0.00  0.00    +0.121 A 
ENDBRANCH  10  13
ENDBRANCH   8   9
ENDBRANCH   1   8
BRANCH   5  19
ATOM     19  C12 UNL     1      10.411  13.488  30.526  0.00  0.00    +0.088 C 
BRANCH  19  20
ATOM     20  C13 UNL     1      11.670  13.463  31.409  0.00  0.00    +0.004 C 
ATOM     21  C14 UNL     1      11.792  14.678  32.343  0.00  0.00    +0.011 C 
ATOM     22  C15 UNL     1      11.666  13.731  33.528  0.00  0.00    -0.029 C 
ATOM     23  C16 UNL     1      10.572  13.983  34.557  0.00  0.00    +0.007 C 
ATOM     24  C17 UNL     1      11.650  13.999  35.643  0.00  0.00    +0.001 C 
ATOM     25  C18 UNL     1      12.743  13.746  34.602  0.00  0.00    +0.007 C 
ATOM     26  C19 UNL     1      11.550  12.518  32.614  0.00  0.00    +0.011 C 
ENDBRANCH  19  20
ENDBRANCH   5  19
TORSDOF 5
ENDMDL
MODEL 9
REMARK VINA RESULT:    -5.842      4.471      9.881
REMARK INTER + INTRA:          -8.400
REMARK INTER:                  -7.698
REMARK INTRA:                  -0.702
REMARK UNBOUND:                -0.851
REMARK  Name = /home/qwerty/github/datacon2025hack/step_04_hit_selection/docking/ligands/lig_390.pdb
REMARK  7 active torsions:
REMARK  status: ('A' for Active; 'I' for Inactive)
REMARK    1  A    between atoms: C1_1  and  C2_2
REMARK    2  A    between atoms: C2_2  and  N1_3
REMARK    3  A    between atoms: C2_2  and  C8_12
REMARK    4  A    between atoms: C3_4  and  C4_6
REMARK    5  A    between atoms: N3_9  and  C6_10
REMARK    6  A    between atoms: N4_16  and  C12_17
REMARK    7  A    between atoms: C12_17  and  C13_18
REMARK                            x       y       z     vdW  Elec       q    Type
REMARK                         _______ _______ _______ _____ _____    ______ ____
ROOT
ATOM      1  C8  UNL     1      20.301   1.633  26.030  0.00  0.00    +0.023 C 
ATOM      2  C9  UNL     1      19.727   3.063  25.946  0.00  0.00    +0.008 C 
ATOM      3  C10 UNL     1      18.540   3.126  24.988  0.00  0.00    +0.016 C 
ATOM      4  C11 UNL     1      17.467   2.122  25.415  0.00  0.00    +0.084 C 
ATOM      5  N4  UNL     1      17.992   0.744  25.460  0.00  0.00    -0.302 NA
ATOM      6  C20 UNL     1      19.165   0.624  26.358  0.00  0.00    +0.089 C 
ENDROOT
BRANCH   1   8
ATOM      7  C1  UNL     1      22.486   2.681  26.887  0.00  0.00    +0.028 C 
ATOM      8  C2  UNL     1      21.446   1.570  27.083  0.00  0.00    +0.074 C 
BRANCH   8   9
ATOM      9  N1  UNL     1      20.888   1.693  28.436  0.00  0.00    -0.308 N 
ATOM     10  C3  UNL     1      21.219   0.793  29.508  0.00  0.00    +0.247 C 
ATOM     11  O1  UNL     1      22.055  -0.132  29.320  0.00  0.00    -0.270 OA
ATOM     12  H5  UNL     1      20.179   2.442  28.597  0.00  0.00    +0.149 HD
BRANCH  10  13
ATOM     13  C4  UNL     1      20.588   0.927  30.833  0.00  0.00    +0.074 A 
ATOM     14  C5  UNL     1      21.065   1.596  31.949  0.00  0.00    +0.147 A 
ATOM     15  N2  UNL     1      20.182   1.462  32.958  0.00  0.00    -0.179 NA
ATOM     16  N3  UNL     1      19.165   0.745  32.507  0.00  0.00    -0.274 N 
ATOM     17  C6  UNL     1      18.036   0.329  33.328  0.00  0.00    +0.172 C 
ATOM     18  C7  UNL     1      19.379   0.390  31.227  0.00  0.00    +0.121 A 
ENDBRANCH  10  13
ENDBRANCH   8   9
ENDBRANCH   1   8
BRANCH   5  19
ATOM     19  C12 UNL     1      18.212   0.157  24.118  0.00  0.00    +0.088 C 
BRANCH  19  20
ATOM     20  C13 UNL     1      17.316  -1.080  23.934  0.00  0.00    +0.004 C 
ATOM     21  C14 UNL     1      17.217  -1.961  25.190  0.00  0.00    +0.011 C 
ATOM     22  C15 UNL     1      15.732  -1.632  25.257  0.00  0.00    -0.029 C 
ATOM     23  C16 UNL     1      15.170  -1.031  26.538  0.00  0.00    +0.007 C 
ATOM     24  C17 UNL     1      14.153  -2.174  26.583  0.00  0.00    +0.001 C 
ATOM     25  C18 UNL     1      14.724  -2.771  25.295  0.00  0.00    +0.007 C 
ATOM     26  C19 UNL     1      15.815  -0.760  24.011  0.00  0.00    +0.011 C 
ENDBRANCH  19  20
ENDBRANCH   5  19
TORSDOF 5
ENDMDL
