REMARK  Name = /home/qwerty/github/datacon2025hack/step_04_hit_selection/docking/ligands/lig_135.pdb
REMARK  9 active torsions:
REMARK  status: ('A' for Active; 'I' for Inactive)
REMARK    1  A    between atoms: C1_1  and  C2_2
REMARK    2  A    between atoms: C2_2  and  C3_3
REMARK    3  A    between atoms: C2_2  and  C4_4
REMARK    4  A    between atoms: C2_2  and  O1_5
REMARK    5  A    between atoms: O1_5  and  C5_6
REMARK    6  A    between atoms: N1_8  and  C6_9
REMARK    7  A    between atoms: C6_9  and  C7_10
REMARK    8  A    between atoms: N2_12  and  C8_13
REMARK    9  A    between atoms: C12_19  and  C13_20
REMARK                            x       y       z     vdW  Elec       q    Type
REMARK                         _______ _______ _______ _____ _____    ______ ____
ROOT
ATOM      1  C8  UNL     1       1.612   0.194   1.453  0.00  0.00    +0.034 A 
ATOM      2  C9  UNL     1       1.336   0.416   2.830  0.00  0.00    +0.025 A 
ATOM      3  C10 UNL     1       2.374   0.425   3.779  0.00  0.00    +0.029 A 
ATOM      4  C11 UNL     1       3.673   0.241   3.317  0.00  0.00    +0.067 A 
ATOM      5  N3  UNL     1       4.804   0.174   4.036  0.00  0.00    -0.276 N 
ATOM      6  N4  UNL     1       5.819  -0.038   3.207  0.00  0.00    -0.170 NA
ATOM      7  C12 UNL     1       5.333  -0.096   1.943  0.00  0.00    +0.135 A 
ATOM      8  C19 UNL     1       3.957   0.070   1.991  0.00  0.00    +0.032 A 
ATOM      9  C20 UNL     1       2.948   0.026   1.027  0.00  0.00    +0.035 A 
ATOM     10  H14 UNL     1       4.894   0.259   5.073  0.00  0.00    +0.189 HD
ENDROOT
BRANCH   7  11
ATOM     11  C13 UNL     1       6.187  -0.310   0.764  0.00  0.00    +0.162 A 
ATOM     12  N5  UNL     1       7.394  -0.935   0.848  0.00  0.00    -0.207 NA
ATOM     13  C14 UNL     1       7.838  -0.873  -0.418  0.00  0.00    +0.178 A 
ATOM     14  N6  UNL     1       9.020  -1.346  -0.884  0.00  0.00    -0.234 NA
ATOM     15  C15 UNL     1       9.323  -1.174  -2.207  0.00  0.00    +0.113 A 
ATOM     16  C16 UNL     1       8.421  -0.505  -3.070  0.00  0.00    +0.022 A 
ATOM     17  C17 UNL     1       7.203  -0.016  -2.565  0.00  0.00    +0.031 A 
ATOM     18  C18 UNL     1       6.948  -0.231  -1.215  0.00  0.00    +0.086 A 
ATOM     19  N7  UNL     1       5.891   0.141  -0.485  0.00  0.00    -0.335 N 
ATOM     20  H18 UNL     1       5.073   0.706  -0.801  0.00  0.00    +0.167 HD
ENDBRANCH   7  11
BRANCH   1  23
ATOM     21  C7  UNL     1      -0.778  -0.277   0.739  0.00  0.00    +0.241 C 
ATOM     22  O3  UNL     1      -0.982  -1.042   1.721  0.00  0.00    -0.273 OA
ATOM     23  N2  UNL     1       0.560   0.183   0.474  0.00  0.00    -0.284 N 
ATOM     24  H11 UNL     1       0.807   0.451  -0.505  0.00  0.00    +0.155 HD
BRANCH  21  25
ATOM     25  C6  UNL     1      -1.916   0.020  -0.242  0.00  0.00    +0.114 C 
ATOM     26  C21 UNL     1      -1.746  -0.885  -1.482  0.00  0.00    +0.035 C 
ATOM     27  C22 UNL     1      -1.226   0.003  -2.603  0.00  0.00    +0.003 C 
ATOM     28  C23 UNL     1      -1.672   1.416  -2.270  0.00  0.00    +0.003 C 
ATOM     29  C24 UNL     1      -1.835   1.480  -0.755  0.00  0.00    +0.035 C 
BRANCH  25  32
ATOM     30  C5  UNL     1      -4.505  -0.046  -0.236  0.00  0.00    +0.402 C 
ATOM     31  O2  UNL     1      -4.573   0.330  -1.437  0.00  0.00    -0.226 OA
ATOM     32  N1  UNL     1      -3.229  -0.216   0.405  0.00  0.00    -0.267 N 
ATOM     33  H10 UNL     1      -3.274  -0.466   1.418  0.00  0.00    +0.153 HD
BRANCH  30  34
ATOM     34  O1  UNL     1      -5.669  -0.300   0.504  0.00  0.00    -0.445 OA
BRANCH  34  36
ATOM     35  C1  UNL     1      -7.321   1.275  -0.383  0.00  0.00    +0.055 C 
ATOM     36  C2  UNL     1      -7.020  -0.178   0.032  0.00  0.00    +0.107 C 
ATOM     37  C3  UNL     1      -7.944  -0.562   1.198  0.00  0.00    +0.055 C 
ATOM     38  C4  UNL     1      -7.273  -1.143  -1.142  0.00  0.00    +0.055 C 
ENDBRANCH  34  36
ENDBRANCH  30  34
ENDBRANCH  25  32
ENDBRANCH  21  25
ENDBRANCH   1  23
TORSDOF 6
