REMARK  Name = /home/qwerty/github/datacon2025hack/step_04_hit_selection/docking/ligands/lig_2.pdb
REMARK  6 active torsions:
REMARK  status: ('A' for Active; 'I' for Inactive)
REMARK    1  A    between atoms: C1_1  and  C2_2
REMARK    2  A    between atoms: C3_3  and  C4_4
REMARK    3  A    between atoms: C8_10  and  C9_11
REMARK    4  A    between atoms: C11_14  and  C12_15
REMARK    5  A    between atoms: C12_15  and  O3_17
REMARK    6  A    between atoms: N4_22  and  C15_23
REMARK                            x       y       z     vdW  Elec       q    Type
REMARK                         _______ _______ _______ _____ _____    ______ ____
ROOT
ATOM      1  C4  UNL     1      -1.772  -0.482   1.666  0.00  0.00    +0.250 C 
ATOM      2  O1  UNL     1      -1.873  -0.810   2.880  0.00  0.00    -0.270 OA
ATOM      3  N1  UNL     1      -0.505  -0.031   1.155  0.00  0.00    -0.297 N 
ATOM      4  C5  UNL     1       0.425   0.693   2.025  0.00  0.00    +0.108 C 
ATOM      5  C6  UNL     1       1.588  -0.219   2.460  0.00  0.00    +0.020 C 
ATOM      6  C7  UNL     1       1.663  -1.532   1.656  0.00  0.00    +0.013 C 
ATOM      7  C8  UNL     1       1.365  -1.343   0.152  0.00  0.00    +0.062 C 
ATOM      8  C13 UNL     1       0.035  -0.578  -0.098  0.00  0.00    +0.118 C 
ENDROOT
BRANCH   1  11
ATOM      9  C1  UNL     1      -2.591   1.340  -0.877  0.00  0.00    +0.066 C 
ATOM     10  C2  UNL     1      -3.322   0.162  -0.303  0.00  0.00    +0.048 A 
ATOM     11  C3  UNL     1      -2.959  -0.601   0.798  0.00  0.00    +0.077 A 
ATOM     12  C14 UNL     1      -3.992  -1.507   0.956  0.00  0.00    +0.147 A 
ATOM     13  N3  UNL     1      -4.908  -1.319  -0.014  0.00  0.00    -0.179 NA
ATOM     14  N4  UNL     1      -4.491  -0.320  -0.777  0.00  0.00    -0.271 N 
ATOM     15  C15 UNL     1      -5.253   0.197  -1.908  0.00  0.00    +0.172 C 
ENDBRANCH   1  11
BRANCH   7  16
ATOM     16  C9  UNL     1       2.539  -0.715  -0.559  0.00  0.00    +0.084 A 
ATOM     17  N2  UNL     1       3.456  -1.441  -1.238  0.00  0.00    -0.251 NA
ATOM     18  C10 UNL     1       4.449  -0.667  -1.751  0.00  0.00    +0.133 A 
ATOM     19  C11 UNL     1       4.335   0.690  -1.470  0.00  0.00    +0.116 A 
ATOM     20  S1  UNL     1       2.947   0.923  -0.551  0.00  0.00    -0.065 S 
BRANCH  19  21
ATOM     21  C12 UNL     1       5.263   1.746  -1.889  0.00  0.00    +0.345 C 
ATOM     22  O2  UNL     1       6.280   1.462  -2.576  0.00  0.00    -0.244 OA
BRANCH  21  23
ATOM     23  O3  UNL     1       5.020   3.068  -1.527  0.00  0.00    -0.477 OA
ATOM     24  H12 UNL     1       5.651   3.808  -1.808  0.00  0.00    +0.295 HD
ENDBRANCH  21  23
ENDBRANCH  19  21
ENDBRANCH   7  16
TORSDOF 4
