MODEL 1
REMARK VINA RESULT:    -7.498      0.000      0.000
REMARK INTER + INTRA:         -10.763
REMARK INTER:                  -9.690
REMARK INTRA:                  -1.073
REMARK UNBOUND:                -1.073
REMARK  Name = /home/qwerty/github/datacon2025hack/step_04_hit_selection/docking/ligands/lig_754.pdb
REMARK  6 active torsions:
REMARK  status: ('A' for Active; 'I' for Inactive)
REMARK    1  A    between atoms: C1_1  and  C2_2
REMARK    2  A    between atoms: C2_2  and  C3_3
REMARK    3  A    between atoms: C2_2  and  C18_24
REMARK    4  A    between atoms: C3_3  and  C4_4
REMARK    5  A    between atoms: C7_9  and  C8_10
REMARK    6  A    between atoms: N2_12  and  C9_13
REMARK                            x       y       z     vdW  Elec       q    Type
REMARK                         _______ _______ _______ _____ _____    ______ ____
ROOT
ATOM      1  C4  UNL     1      20.765   1.102  31.422  0.00  0.00    +0.216 C 
ATOM      2  O1  UNL     1      20.600   0.381  32.439  0.00  0.00    -0.276 OA
ATOM      3  N1  UNL     1      21.119   2.486  31.580  0.00  0.00    -0.301 N 
ATOM      4  C5  UNL     1      20.518   3.506  30.708  0.00  0.00    +0.108 C 
ATOM      5  C6  UNL     1      20.388   4.838  31.449  0.00  0.00    +0.032 C 
ATOM      6  C7  UNL     1      21.751   5.341  31.978  0.00  0.00    +0.078 C 
ATOM      7  C16 UNL     1      22.727   4.191  32.351  0.00  0.00    +0.032 C 
ATOM      8  C17 UNL     1      21.995   2.886  32.689  0.00  0.00    +0.108 C 
ENDROOT
BRANCH   6   9
ATOM      9  C8  UNL     1      21.524   6.294  33.126  0.00  0.00    +0.220 C 
ATOM     10  O2  UNL     1      22.415   7.135  33.433  0.00  0.00    -0.275 OA
ATOM     11  N2  UNL     1      20.352   6.148  33.946  0.00  0.00    -0.285 N 
ATOM     12  H12 UNL     1      19.797   5.267  33.853  0.00  0.00    +0.155 HD
BRANCH  11  13
ATOM     13  C9  UNL     1      20.014   7.051  35.010  0.00  0.00    +0.037 A 
ATOM     14  C10 UNL     1      20.346   6.707  36.345  0.00  0.00    +0.027 A 
ATOM     15  C11 UNL     1      20.007   7.561  37.410  0.00  0.00    +0.051 A 
ATOM     16  C12 UNL     1      19.319   8.730  37.110  0.00  0.00    +0.166 A 
ATOM     17  C13 UNL     1      18.980   9.058  35.838  0.00  0.00    +0.168 A 
ATOM     18  C14 UNL     1      19.306   8.248  34.754  0.00  0.00    +0.072 A 
ATOM     19  O3  UNL     1      18.291  10.256  35.840  0.00  0.00    -0.453 OA
ATOM     20  C15 UNL     1      18.199  10.712  37.198  0.00  0.00    +0.466 C 
ATOM     21  O4  UNL     1      18.867   9.707  37.976  0.00  0.00    -0.453 OA
ENDBRANCH  11  13
ENDBRANCH   6   9
BRANCH   1  22
ATOM     22  C3  UNL     1      20.654   0.477  30.054  0.00  0.00    +0.104 C 
BRANCH  22  24
ATOM     23  C1  UNL     1      22.541  -0.834  28.989  0.00  0.00    +0.013 C 
ATOM     24  C2  UNL     1      21.991   0.567  29.291  0.00  0.00    +0.025 C 
BRANCH  24  25
ATOM     25  C18 UNL     1      21.858   1.383  28.017  0.00  0.00    -0.040 A 
ATOM     26  C19 UNL     1      22.697   2.505  27.775  0.00  0.00    +0.008 A 
ATOM     27  C20 UNL     1      22.600   3.226  26.571  0.00  0.00    +0.050 A 
ATOM     28  C21 UNL     1      21.665   2.799  25.634  0.00  0.00    +0.166 A 
ATOM     29  C22 UNL     1      20.862   1.729  25.854  0.00  0.00    +0.166 A 
ATOM     30  C23 UNL     1      20.922   0.992  27.032  0.00  0.00    +0.053 A 
ATOM     31  O5  UNL     1      20.044   1.533  24.760  0.00  0.00    -0.453 OA
ATOM     32  C24 UNL     1      20.354   2.544  23.790  0.00  0.00    +0.466 C 
ATOM     33  O6  UNL     1      21.391   3.332  24.388  0.00  0.00    -0.453 OA
ENDBRANCH  24  25
ENDBRANCH  22  24
ENDBRANCH   1  22
TORSDOF 5
ENDMDL
MODEL 2
REMARK VINA RESULT:    -7.253     10.036     13.179
REMARK INTER + INTRA:         -10.446
REMARK INTER:                  -9.288
REMARK INTRA:                  -1.157
REMARK UNBOUND:                -1.073
REMARK  Name = /home/qwerty/github/datacon2025hack/step_04_hit_selection/docking/ligands/lig_754.pdb
REMARK  6 active torsions:
REMARK  status: ('A' for Active; 'I' for Inactive)
REMARK    1  A    between atoms: C1_1  and  C2_2
REMARK    2  A    between atoms: C2_2  and  C3_3
REMARK    3  A    between atoms: C2_2  and  C18_24
REMARK    4  A    between atoms: C3_3  and  C4_4
REMARK    5  A    between atoms: C7_9  and  C8_10
REMARK    6  A    between atoms: N2_12  and  C9_13
REMARK                            x       y       z     vdW  Elec       q    Type
REMARK                         _______ _______ _______ _____ _____    ______ ____
ROOT
ATOM      1  C4  UNL     1      11.220  14.005  28.755  0.00  0.00    +0.216 C 
ATOM      2  O1  UNL     1      11.738  15.124  28.502  0.00  0.00    -0.276 OA
ATOM      3  N1  UNL     1      11.458  13.383  30.029  0.00  0.00    -0.301 N 
ATOM      4  C5  UNL     1      11.687  11.932  30.110  0.00  0.00    +0.108 C 
ATOM      5  C6  UNL     1      12.618  11.600  31.278  0.00  0.00    +0.032 C 
ATOM      6  C7  UNL     1      12.063  12.118  32.625  0.00  0.00    +0.078 C 
ATOM      7  C16 UNL     1      11.219  13.413  32.484  0.00  0.00    +0.032 C 
ATOM      8  C17 UNL     1      11.583  14.219  31.230  0.00  0.00    +0.108 C 
ENDROOT
BRANCH   6   9
ATOM      9  C8  UNL     1      13.199  12.278  33.607  0.00  0.00    +0.220 C 
ATOM     10  O2  UNL     1      12.955  12.591  34.806  0.00  0.00    -0.275 OA
ATOM     11  N2  UNL     1      14.556  12.206  33.138  0.00  0.00    -0.285 N 
ATOM     12  H12 UNL     1      14.720  12.248  32.107  0.00  0.00    +0.155 HD
BRANCH  11  13
ATOM     13  C9  UNL     1      15.697  12.271  34.007  0.00  0.00    +0.037 A 
ATOM     14  C10 UNL     1      16.410  13.491  34.127  0.00  0.00    +0.027 A 
ATOM     15  C11 UNL     1      17.545  13.578  34.953  0.00  0.00    +0.051 A 
ATOM     16  C12 UNL     1      17.952  12.430  35.620  0.00  0.00    +0.166 A 
ATOM     17  C13 UNL     1      17.288  11.254  35.496  0.00  0.00    +0.168 A 
ATOM     18  C14 UNL     1      16.154  11.125  34.699  0.00  0.00    +0.072 A 
ATOM     19  O3  UNL     1      17.922  10.286  36.251  0.00  0.00    -0.453 OA
ATOM     20  C15 UNL     1      19.050  10.895  36.895  0.00  0.00    +0.466 C 
ATOM     21  O4  UNL     1      19.034  12.264  36.464  0.00  0.00    -0.453 OA
ENDBRANCH  11  13
ENDBRANCH   6   9
BRANCH   1  22
ATOM     22  C3  UNL     1      10.304  13.374  27.737  0.00  0.00    +0.104 C 
BRANCH  22  24
ATOM     23  C1  UNL     1       7.909  14.147  27.453  0.00  0.00    +0.013 C 
ATOM     24  C2  UNL     1       8.862  13.269  28.275  0.00  0.00    +0.025 C 
BRANCH  24  25
ATOM     25  C18 UNL     1       8.379  11.830  28.312  0.00  0.00    -0.040 A 
ATOM     26  C19 UNL     1       8.272  11.062  27.120  0.00  0.00    +0.008 A 
ATOM     27  C20 UNL     1       7.870   9.715  27.169  0.00  0.00    +0.050 A 
ATOM     28  C21 UNL     1       7.588   9.168  28.416  0.00  0.00    +0.166 A 
ATOM     29  C22 UNL     1       7.688   9.891  29.558  0.00  0.00    +0.166 A 
ATOM     30  C23 UNL     1       8.078  11.226  29.555  0.00  0.00    +0.053 A 
ATOM     31  O5  UNL     1       7.358   9.096  30.637  0.00  0.00    -0.453 OA
ATOM     32  C24 UNL     1       7.030   7.791  30.142  0.00  0.00    +0.466 C 
ATOM     33  O6  UNL     1       7.187   7.881  28.719  0.00  0.00    -0.453 OA
ENDBRANCH  24  25
ENDBRANCH  22  24
ENDBRANCH   1  22
TORSDOF 5
ENDMDL
MODEL 3
REMARK VINA RESULT:    -7.115      6.518      8.773
REMARK INTER + INTRA:         -10.267
REMARK INTER:                  -9.187
REMARK INTRA:                  -1.080
REMARK UNBOUND:                -1.073
REMARK  Name = /home/qwerty/github/datacon2025hack/step_04_hit_selection/docking/ligands/lig_754.pdb
REMARK  6 active torsions:
REMARK  status: ('A' for Active; 'I' for Inactive)
REMARK    1  A    between atoms: C1_1  and  C2_2
REMARK    2  A    between atoms: C2_2  and  C3_3
REMARK    3  A    between atoms: C2_2  and  C18_24
REMARK    4  A    between atoms: C3_3  and  C4_4
REMARK    5  A    between atoms: C7_9  and  C8_10
REMARK    6  A    between atoms: N2_12  and  C9_13
REMARK                            x       y       z     vdW  Elec       q    Type
REMARK                         _______ _______ _______ _____ _____    ______ ____
ROOT
ATOM      1  C4  UNL     1      19.846   7.142  36.702  0.00  0.00    +0.216 C 
ATOM      2  O1  UNL     1      19.498   6.452  37.695  0.00  0.00    -0.276 OA
ATOM      3  N1  UNL     1      19.226   8.418  36.470  0.00  0.00    -0.301 N 
ATOM      4  C5  UNL     1      18.880   8.833  35.102  0.00  0.00    +0.108 C 
ATOM      5  C6  UNL     1      17.645   9.736  35.111  0.00  0.00    +0.032 C 
ATOM      6  C7  UNL     1      17.849  10.985  35.999  0.00  0.00    +0.078 C 
ATOM      7  C16 UNL     1      18.791  10.732  37.208  0.00  0.00    +0.032 C 
ATOM      8  C17 UNL     1      18.840   9.253  37.615  0.00  0.00    +0.108 C 
ENDROOT
BRANCH   6   9
ATOM      9  C8  UNL     1      16.503  11.523  36.425  0.00  0.00    +0.220 C 
ATOM     10  O2  UNL     1      16.422  12.302  37.416  0.00  0.00    -0.275 OA
ATOM     11  N2  UNL     1      15.312  11.039  35.783  0.00  0.00    -0.285 N 
ATOM     12  H12 UNL     1      15.391  10.185  35.185  0.00  0.00    +0.155 HD
BRANCH  11  13
ATOM     13  C9  UNL     1      13.999  11.546  36.067  0.00  0.00    +0.037 A 
ATOM     14  C10 UNL     1      13.158  10.835  36.960  0.00  0.00    +0.027 A 
ATOM     15  C11 UNL     1      11.859  11.294  37.240  0.00  0.00    +0.051 A 
ATOM     16  C12 UNL     1      11.426  12.447  36.596  0.00  0.00    +0.166 A 
ATOM     17  C13 UNL     1      12.216  13.123  35.725  0.00  0.00    +0.168 A 
ATOM     18  C14 UNL     1      13.512  12.710  35.428  0.00  0.00    +0.072 A 
ATOM     19  O3  UNL     1      11.525  14.210  35.225  0.00  0.00    -0.453 OA
ATOM     20  C15 UNL     1      10.221  14.220  35.826  0.00  0.00    +0.466 C 
ATOM     21  O4  UNL     1      10.200  13.076  36.693  0.00  0.00    -0.453 OA
ENDBRANCH  11  13
ENDBRANCH   6   9
BRANCH   1  22
ATOM     22  C3  UNL     1      20.956   6.641  35.813  0.00  0.00    +0.104 C 
BRANCH  22  24
ATOM     23  C1  UNL     1      23.255   6.653  36.876  0.00  0.00    +0.013 C 
ATOM     24  C2  UNL     1      22.251   7.450  36.030  0.00  0.00    +0.025 C 
BRANCH  24  25
ATOM     25  C18 UNL     1      22.872   7.880  34.714  0.00  0.00    -0.040 A 
ATOM     26  C19 UNL     1      24.046   7.250  34.216  0.00  0.00    +0.008 A 
ATOM     27  C20 UNL     1      24.587   7.623  32.972  0.00  0.00    +0.050 A 
ATOM     28  C21 UNL     1      23.934   8.617  32.253  0.00  0.00    +0.166 A 
ATOM     29  C22 UNL     1      22.813   9.223  32.717  0.00  0.00    +0.166 A 
ATOM     30  C23 UNL     1      22.248   8.889  33.943  0.00  0.00    +0.053 A 
ATOM     31  O5  UNL     1      22.380  10.159  31.800  0.00  0.00    -0.453 OA
ATOM     32  C24 UNL     1      23.285  10.138  30.687  0.00  0.00    +0.466 C 
ATOM     33  O6  UNL     1      24.263   9.143  31.018  0.00  0.00    -0.453 OA
ENDBRANCH  24  25
ENDBRANCH  22  24
ENDBRANCH   1  22
TORSDOF 5
ENDMDL
MODEL 4
REMARK VINA RESULT:    -7.113      1.327      1.463
REMARK INTER + INTRA:         -10.265
REMARK INTER:                 -10.088
REMARK INTRA:                  -0.177
REMARK UNBOUND:                -1.073
REMARK  Name = /home/qwerty/github/datacon2025hack/step_04_hit_selection/docking/ligands/lig_754.pdb
REMARK  6 active torsions:
REMARK  status: ('A' for Active; 'I' for Inactive)
REMARK    1  A    between atoms: C1_1  and  C2_2
REMARK    2  A    between atoms: C2_2  and  C3_3
REMARK    3  A    between atoms: C2_2  and  C18_24
REMARK    4  A    between atoms: C3_3  and  C4_4
REMARK    5  A    between atoms: C7_9  and  C8_10
REMARK    6  A    between atoms: N2_12  and  C9_13
REMARK                            x       y       z     vdW  Elec       q    Type
REMARK                         _______ _______ _______ _____ _____    ______ ____
ROOT
ATOM      1  C4  UNL     1      20.769   1.020  30.852  0.00  0.00    +0.216 C 
ATOM      2  O1  UNL     1      19.558   0.705  30.716  0.00  0.00    -0.276 OA
ATOM      3  N1  UNL     1      21.135   2.046  31.791  0.00  0.00    -0.301 N 
ATOM      4  C5  UNL     1      22.179   3.022  31.446  0.00  0.00    +0.108 C 
ATOM      5  C6  UNL     1      21.906   4.364  32.128  0.00  0.00    +0.032 C 
ATOM      6  C7  UNL     1      21.810   4.222  33.665  0.00  0.00    +0.078 C 
ATOM      7  C16 UNL     1      21.251   2.847  34.121  0.00  0.00    +0.032 C 
ATOM      8  C17 UNL     1      20.384   2.179  33.046  0.00  0.00    +0.108 C 
ENDROOT
BRANCH   6   9
ATOM      9  C8  UNL     1      21.017   5.378  34.227  0.00  0.00    +0.220 C 
ATOM     10  O2  UNL     1      19.918   5.705  33.697  0.00  0.00    -0.275 OA
ATOM     11  N2  UNL     1      21.584   6.182  35.275  0.00  0.00    -0.285 N 
ATOM     12  H12 UNL     1      22.603   6.073  35.479  0.00  0.00    +0.155 HD
BRANCH  11  13
ATOM     13  C9  UNL     1      20.877   7.250  35.923  0.00  0.00    +0.037 A 
ATOM     14  C10 UNL     1      20.042   6.959  37.031  0.00  0.00    +0.027 A 
ATOM     15  C11 UNL     1      19.318   7.981  37.672  0.00  0.00    +0.051 A 
ATOM     16  C12 UNL     1      19.432   9.270  37.167  0.00  0.00    +0.166 A 
ATOM     17  C13 UNL     1      20.213   9.555  36.095  0.00  0.00    +0.168 A 
ATOM     18  C14 UNL     1      20.954   8.577  35.438  0.00  0.00    +0.072 A 
ATOM     19  O3  UNL     1      20.121  10.903  35.804  0.00  0.00    -0.453 OA
ATOM     20  C15 UNL     1      19.232  11.502  36.758  0.00  0.00    +0.466 C 
ATOM     21  O4  UNL     1      18.814  10.424  37.609  0.00  0.00    -0.453 OA
ENDBRANCH  11  13
ENDBRANCH   6   9
BRANCH   1  22
ATOM     22  C3  UNL     1      21.816   0.265  30.074  0.00  0.00    +0.104 C 
BRANCH  22  24
ATOM     23  C1  UNL     1      24.158   0.618  29.176  0.00  0.00    +0.013 C 
ATOM     24  C2  UNL     1      22.758   1.230  29.327  0.00  0.00    +0.025 C 
BRANCH  24  25
ATOM     25  C18 UNL     1      22.195   1.633  27.976  0.00  0.00    -0.040 A 
ATOM     26  C19 UNL     1      22.711   2.755  27.271  0.00  0.00    +0.008 A 
ATOM     27  C20 UNL     1      22.215   3.092  25.999  0.00  0.00    +0.050 A 
ATOM     28  C21 UNL     1      21.216   2.290  25.459  0.00  0.00    +0.166 A 
ATOM     29  C22 UNL     1      20.718   1.217  26.121  0.00  0.00    +0.166 A 
ATOM     30  C23 UNL     1      21.176   0.851  27.383  0.00  0.00    +0.053 A 
ATOM     31  O5  UNL     1      19.749   0.607  25.350  0.00  0.00    -0.453 OA
ATOM     32  C24 UNL     1      19.631   1.344  24.125  0.00  0.00    +0.466 C 
ATOM     33  O6  UNL     1      20.582   2.411  24.237  0.00  0.00    -0.453 OA
ENDBRANCH  24  25
ENDBRANCH  22  24
ENDBRANCH   1  22
TORSDOF 5
ENDMDL
MODEL 5
REMARK VINA RESULT:    -7.075      5.040     10.895
REMARK INTER + INTRA:         -10.215
REMARK INTER:                  -9.109
REMARK INTRA:                  -1.106
REMARK UNBOUND:                -1.073
REMARK  Name = /home/qwerty/github/datacon2025hack/step_04_hit_selection/docking/ligands/lig_754.pdb
REMARK  6 active torsions:
REMARK  status: ('A' for Active; 'I' for Inactive)
REMARK    1  A    between atoms: C1_1  and  C2_2
REMARK    2  A    between atoms: C2_2  and  C3_3
REMARK    3  A    between atoms: C2_2  and  C18_24
REMARK    4  A    between atoms: C3_3  and  C4_4
REMARK    5  A    between atoms: C7_9  and  C8_10
REMARK    6  A    between atoms: N2_12  and  C9_13
REMARK                            x       y       z     vdW  Elec       q    Type
REMARK                         _______ _______ _______ _____ _____    ______ ____
ROOT
ATOM      1  C4  UNL     1      21.842   2.504  26.577  0.00  0.00    +0.216 C 
ATOM      2  O1  UNL     1      22.542   2.826  25.583  0.00  0.00    -0.276 OA
ATOM      3  N1  UNL     1      20.537   1.935  26.375  0.00  0.00    -0.301 N 
ATOM      4  C5  UNL     1      19.418   2.324  27.246  0.00  0.00    +0.108 C 
ATOM      5  C6  UNL     1      18.095   2.263  26.480  0.00  0.00    +0.032 C 
ATOM      6  C7  UNL     1      17.833   0.858  25.890  0.00  0.00    +0.078 C 
ATOM      7  C16 UNL     1      19.134   0.101  25.507  0.00  0.00    +0.032 C 
ATOM      8  C17 UNL     1      20.305   1.050  25.225  0.00  0.00    +0.108 C 
ENDROOT
BRANCH   6   9
ATOM      9  C8  UNL     1      16.873   0.972  24.730  0.00  0.00    +0.220 C 
ATOM     10  O2  UNL     1      16.055   0.039  24.496  0.00  0.00    -0.275 OA
ATOM     11  N2  UNL     1      16.991   2.079  23.820  0.00  0.00    -0.285 N 
ATOM     12  H12 UNL     1      17.857   2.661  23.867  0.00  0.00    +0.155 HD
BRANCH  11  13
ATOM     13  C9  UNL     1      16.079   2.311  22.736  0.00  0.00    +0.037 A 
ATOM     14  C10 UNL     1      16.451   1.929  21.422  0.00  0.00    +0.027 A 
ATOM     15  C11 UNL     1      15.589   2.165  20.336  0.00  0.00    +0.051 A 
ATOM     16  C12 UNL     1      14.381   2.801  20.593  0.00  0.00    +0.166 A 
ATOM     17  C13 UNL     1      14.025   3.187  21.844  0.00  0.00    +0.168 A 
ATOM     18  C14 UNL     1      14.843   2.964  22.948  0.00  0.00    +0.072 A 
ATOM     19  O3  UNL     1      12.791   3.808  21.800  0.00  0.00    -0.453 OA
ATOM     20  C15 UNL     1      12.342   3.804  20.437  0.00  0.00    +0.466 C 
ATOM     21  O4  UNL     1      13.387   3.153  19.700  0.00  0.00    -0.453 OA
ENDBRANCH  11  13
ENDBRANCH   6   9
BRANCH   1  22
ATOM     22  C3  UNL     1      22.417   2.662  27.962  0.00  0.00    +0.104 C 
BRANCH  22  24
ATOM     23  C1  UNL     1      23.949   0.873  28.892  0.00  0.00    +0.013 C 
ATOM     24  C2  UNL     1      22.490   1.305  28.692  0.00  0.00    +0.025 C 
BRANCH  24  25
ATOM     25  C18 UNL     1      21.748   1.339  30.016  0.00  0.00    -0.040 A 
ATOM     26  C19 UNL     1      22.137   2.233  31.052  0.00  0.00    +0.008 A 
ATOM     27  C20 UNL     1      21.413   2.291  32.257  0.00  0.00    +0.050 A 
ATOM     28  C21 UNL     1      20.312   1.453  32.393  0.00  0.00    +0.166 A 
ATOM     29  C22 UNL     1      19.933   0.598  31.411  0.00  0.00    +0.166 A 
ATOM     30  C23 UNL     1      20.622   0.505  30.207  0.00  0.00    +0.053 A 
ATOM     31  O5  UNL     1      18.812  -0.100  31.815  0.00  0.00    -0.453 OA
ATOM     32  C24 UNL     1      18.465   0.346  33.133  0.00  0.00    +0.466 C 
ATOM     33  O6  UNL     1      19.449   1.334  33.466  0.00  0.00    -0.453 OA
ENDBRANCH  24  25
ENDBRANCH  22  24
ENDBRANCH   1  22
TORSDOF 5
ENDMDL
MODEL 6
REMARK VINA RESULT:    -7.073     12.058     16.328
REMARK INTER + INTRA:         -10.213
REMARK INTER:                  -9.125
REMARK INTRA:                  -1.088
REMARK UNBOUND:                -1.073
REMARK  Name = /home/qwerty/github/datacon2025hack/step_04_hit_selection/docking/ligands/lig_754.pdb
REMARK  6 active torsions:
REMARK  status: ('A' for Active; 'I' for Inactive)
REMARK    1  A    between atoms: C1_1  and  C2_2
REMARK    2  A    between atoms: C2_2  and  C3_3
REMARK    3  A    between atoms: C2_2  and  C18_24
REMARK    4  A    between atoms: C3_3  and  C4_4
REMARK    5  A    between atoms: C7_9  and  C8_10
REMARK    6  A    between atoms: N2_12  and  C9_13
REMARK                            x       y       z     vdW  Elec       q    Type
REMARK                         _______ _______ _______ _____ _____    ______ ____
ROOT
ATOM      1  C4  UNL     1       7.788  10.365  28.746  0.00  0.00    +0.216 C 
ATOM      2  O1  UNL     1       6.720   9.744  28.981  0.00  0.00    -0.276 OA
ATOM      3  N1  UNL     1       8.526  10.083  27.545  0.00  0.00    -0.301 N 
ATOM      4  C5  UNL     1       9.995  10.022  27.578  0.00  0.00    +0.108 C 
ATOM      5  C6  UNL     1      10.515   9.031  26.534  0.00  0.00    +0.032 C 
ATOM      6  C7  UNL     1      10.039   9.391  25.108  0.00  0.00    +0.078 C 
ATOM      7  C16 UNL     1       8.650  10.085  25.081  0.00  0.00    +0.032 C 
ATOM      8  C17 UNL     1       7.800   9.747  26.313  0.00  0.00    +0.108 C 
ENDROOT
BRANCH   6   9
ATOM      9  C8  UNL     1      10.080   8.157  24.239  0.00  0.00    +0.220 C 
ATOM     10  O2  UNL     1      10.511   8.235  23.054  0.00  0.00    -0.275 OA
ATOM     11  N2  UNL     1       9.504   6.932  24.722  0.00  0.00    -0.285 N 
ATOM     12  H12 UNL     1       8.896   6.978  25.570  0.00  0.00    +0.155 HD
BRANCH  11  13
ATOM     13  C9  UNL     1       9.564   5.692  24.000  0.00  0.00    +0.037 A 
ATOM     14  C10 UNL     1       8.367   5.130  23.486  0.00  0.00    +0.027 A 
ATOM     15  C11 UNL     1       8.390   3.906  22.794  0.00  0.00    +0.051 A 
ATOM     16  C12 UNL     1       9.613   3.262  22.657  0.00  0.00    +0.166 A 
ATOM     17  C13 UNL     1      10.760   3.782  23.162  0.00  0.00    +0.168 A 
ATOM     18  C14 UNL     1      10.784   4.996  23.843  0.00  0.00    +0.072 A 
ATOM     19  O3  UNL     1      11.810   2.925  22.895  0.00  0.00    -0.453 OA
ATOM     20  C15 UNL     1      11.292   1.800  22.170  0.00  0.00    +0.466 C 
ATOM     21  O4  UNL     1       9.885   2.055  22.041  0.00  0.00    -0.453 OA
ENDBRANCH  11  13
ENDBRANCH   6   9
BRANCH   1  22
ATOM     22  C3  UNL     1       8.236  11.441  29.702  0.00  0.00    +0.104 C 
BRANCH  22  24
ATOM     23  C1  UNL     1       7.290  13.791  29.669  0.00  0.00    +0.013 C 
ATOM     24  C2  UNL     1       8.278  12.819  29.009  0.00  0.00    +0.025 C 
BRANCH  24  25
ATOM     25  C18 UNL     1       9.681  13.399  28.995  0.00  0.00    -0.040 A 
ATOM     26  C19 UNL     1      10.422  13.556  30.199  0.00  0.00    +0.008 A 
ATOM     27  C20 UNL     1      11.739  14.049  30.170  0.00  0.00    +0.050 A 
ATOM     28  C21 UNL     1      12.285  14.368  28.932  0.00  0.00    +0.166 A 
ATOM     29  C22 UNL     1      11.589  14.220  27.779  0.00  0.00    +0.166 A 
ATOM     30  C23 UNL     1      10.283  13.741  27.762  0.00  0.00    +0.053 A 
ATOM     31  O5  UNL     1      12.375  14.604  26.712  0.00  0.00    -0.453 OA
ATOM     32  C24 UNL     1      13.648  15.019  27.228  0.00  0.00    +0.466 C 
ATOM     33  O6  UNL     1      13.547  14.855  28.649  0.00  0.00    -0.453 OA
ENDBRANCH  24  25
ENDBRANCH  22  24
ENDBRANCH   1  22
TORSDOF 5
ENDMDL
MODEL 7
REMARK VINA RESULT:    -6.914     12.147     16.767
REMARK INTER + INTRA:         -10.008
REMARK INTER:                  -9.083
REMARK INTRA:                  -0.924
REMARK UNBOUND:                -1.073
REMARK  Name = /home/qwerty/github/datacon2025hack/step_04_hit_selection/docking/ligands/lig_754.pdb
REMARK  6 active torsions:
REMARK  status: ('A' for Active; 'I' for Inactive)
REMARK    1  A    between atoms: C1_1  and  C2_2
REMARK    2  A    between atoms: C2_2  and  C3_3
REMARK    3  A    between atoms: C2_2  and  C18_24
REMARK    4  A    between atoms: C3_3  and  C4_4
REMARK    5  A    between atoms: C7_9  and  C8_10
REMARK    6  A    between atoms: N2_12  and  C9_13
REMARK                            x       y       z     vdW  Elec       q    Type
REMARK                         _______ _______ _______ _____ _____    ______ ____
ROOT
ATOM      1  C4  UNL     1      11.038  12.407  30.447  0.00  0.00    +0.216 C 
ATOM      2  O1  UNL     1      12.204  11.937  30.390  0.00  0.00    -0.276 OA
ATOM      3  N1  UNL     1       9.999  11.830  29.639  0.00  0.00    -0.301 N 
ATOM      4  C5  UNL     1       9.008  12.696  28.982  0.00  0.00    +0.108 C 
ATOM      5  C6  UNL     1       8.533  12.069  27.669  0.00  0.00    +0.032 C 
ATOM      6  C7  UNL     1       7.934  10.660  27.885  0.00  0.00    +0.078 C 
ATOM      7  C16 UNL     1       8.581   9.893  29.070  0.00  0.00    +0.032 C 
ATOM      8  C17 UNL     1      10.000  10.384  29.383  0.00  0.00    +0.108 C 
ENDROOT
BRANCH   6   9
ATOM      9  C8  UNL     1       8.003   9.882  26.592  0.00  0.00    +0.220 C 
ATOM     10  O2  UNL     1       7.449   8.750  26.509  0.00  0.00    -0.275 OA
ATOM     11  N2  UNL     1       8.812  10.375  25.512  0.00  0.00    -0.285 N 
ATOM     12  H12 UNL     1       9.487  11.146  25.718  0.00  0.00    +0.155 HD
BRANCH  11  13
ATOM     13  C9  UNL     1       8.879   9.746  24.223  0.00  0.00    +0.037 A 
ATOM     14  C10 UNL     1       7.949  10.119  23.219  0.00  0.00    +0.027 A 
ATOM     15  C11 UNL     1       7.975   9.504  21.955  0.00  0.00    +0.051 A 
ATOM     16  C12 UNL     1       8.920   8.510  21.736  0.00  0.00    +0.166 A 
ATOM     17  C13 UNL     1       9.801   8.133  22.696  0.00  0.00    +0.168 A 
ATOM     18  C14 UNL     1       9.818   8.722  23.958  0.00  0.00    +0.072 A 
ATOM     19  O3  UNL     1      10.604   7.118  22.211  0.00  0.00    -0.453 OA
ATOM     20  C15 UNL     1      10.207   6.848  20.859  0.00  0.00    +0.466 C 
ATOM     21  O4  UNL     1       9.128   7.757  20.597  0.00  0.00    -0.453 OA
ENDBRANCH  11  13
ENDBRANCH   6   9
BRANCH   1  22
ATOM     22  C3  UNL     1      10.743  13.524  31.415  0.00  0.00    +0.104 C 
BRANCH  22  24
ATOM     23  C1  UNL     1      12.390  15.211  32.342  0.00  0.00    +0.013 C 
ATOM     24  C2  UNL     1      11.924  13.749  32.382  0.00  0.00    +0.025 C 
BRANCH  24  25
ATOM     25  C18 UNL     1      11.577  13.329  33.800  0.00  0.00    -0.040 A 
ATOM     26  C19 UNL     1      10.809  14.175  34.647  0.00  0.00    +0.008 A 
ATOM     27  C20 UNL     1      10.452  13.757  35.942  0.00  0.00    +0.050 A 
ATOM     28  C21 UNL     1      10.869  12.497  36.355  0.00  0.00    +0.166 A 
ATOM     29  C22 UNL     1      11.600  11.683  35.554  0.00  0.00    +0.166 A 
ATOM     30  C23 UNL     1      11.979  12.058  34.270  0.00  0.00    +0.053 A 
ATOM     31  O5  UNL     1      11.865  10.501  36.216  0.00  0.00    -0.453 OA
ATOM     32  C24 UNL     1      11.261  10.577  37.515  0.00  0.00    +0.466 C 
ATOM     33  O6  UNL     1      10.639  11.868  37.564  0.00  0.00    -0.453 OA
ENDBRANCH  24  25
ENDBRANCH  22  24
ENDBRANCH   1  22
TORSDOF 5
ENDMDL
MODEL 8
REMARK VINA RESULT:    -6.850      4.274      8.271
REMARK INTER + INTRA:          -9.925
REMARK INTER:                  -8.565
REMARK INTRA:                  -1.360
REMARK UNBOUND:                -1.073
REMARK  Name = /home/qwerty/github/datacon2025hack/step_04_hit_selection/docking/ligands/lig_754.pdb
REMARK  6 active torsions:
REMARK  status: ('A' for Active; 'I' for Inactive)
REMARK    1  A    between atoms: C1_1  and  C2_2
REMARK    2  A    between atoms: C2_2  and  C3_3
REMARK    3  A    between atoms: C2_2  and  C18_24
REMARK    4  A    between atoms: C3_3  and  C4_4
REMARK    5  A    between atoms: C7_9  and  C8_10
REMARK    6  A    between atoms: N2_12  and  C9_13
REMARK                            x       y       z     vdW  Elec       q    Type
REMARK                         _______ _______ _______ _____ _____    ______ ____
ROOT
ATOM      1  C4  UNL     1      17.025   2.882  23.525  0.00  0.00    +0.216 C 
ATOM      2  O1  UNL     1      16.237   3.683  24.091  0.00  0.00    -0.276 OA
ATOM      3  N1  UNL     1      17.965   2.132  24.313  0.00  0.00    -0.301 N 
ATOM      4  C5  UNL     1      19.337   1.924  23.826  0.00  0.00    +0.108 C 
ATOM      5  C6  UNL     1      20.315   1.828  25.000  0.00  0.00    +0.032 C 
ATOM      6  C7  UNL     1      19.931   0.696  25.980  0.00  0.00    +0.078 C 
ATOM      7  C16 UNL     1      18.401   0.442  26.056  0.00  0.00    +0.032 C 
ATOM      8  C17 UNL     1      17.580   1.674  25.655  0.00  0.00    +0.108 C 
ENDROOT
BRANCH   6   9
ATOM      9  C8  UNL     1      20.534   0.979  27.335  0.00  0.00    +0.220 C 
ATOM     10  O2  UNL     1      21.786   0.923  27.491  0.00  0.00    -0.275 OA
ATOM     11  N2  UNL     1      19.670   1.178  28.466  0.00  0.00    -0.285 N 
ATOM     12  H12 UNL     1      18.662   0.922  28.363  0.00  0.00    +0.155 HD
BRANCH  11  13
ATOM     13  C9  UNL     1      20.147   1.528  29.774  0.00  0.00    +0.037 A 
ATOM     14  C10 UNL     1      20.147   0.546  30.798  0.00  0.00    +0.027 A 
ATOM     15  C11 UNL     1      20.588   0.865  32.095  0.00  0.00    +0.051 A 
ATOM     16  C12 UNL     1      20.995   2.170  32.339  0.00  0.00    +0.166 A 
ATOM     17  C13 UNL     1      20.980   3.120  31.372  0.00  0.00    +0.168 A 
ATOM     18  C14 UNL     1      20.563   2.846  30.072  0.00  0.00    +0.072 A 
ATOM     19  O3  UNL     1      21.417   4.321  31.899  0.00  0.00    -0.453 OA
ATOM     20  C15 UNL     1      21.732   4.108  33.282  0.00  0.00    +0.466 C 
ATOM     21  O4  UNL     1      21.447   2.722  33.523  0.00  0.00    -0.453 OA
ENDBRANCH  11  13
ENDBRANCH   6   9
BRANCH   1  22
ATOM     22  C3  UNL     1      16.920   2.678  22.035  0.00  0.00    +0.104 C 
BRANCH  22  24
ATOM     23  C1  UNL     1      15.631   1.561  20.163  0.00  0.00    +0.013 C 
ATOM     24  C2  UNL     1      15.732   1.760  21.681  0.00  0.00    +0.025 C 
BRANCH  24  25
ATOM     25  C18 UNL     1      15.821   0.424  22.398  0.00  0.00    -0.040 A 
ATOM     26  C19 UNL     1      16.909  -0.462  22.166  0.00  0.00    +0.008 A 
ATOM     27  C20 UNL     1      17.008  -1.675  22.871  0.00  0.00    +0.050 A 
ATOM     28  C21 UNL     1      16.014  -1.969  23.798  0.00  0.00    +0.166 A 
ATOM     29  C22 UNL     1      14.974  -1.131  24.028  0.00  0.00    +0.166 A 
ATOM     30  C23 UNL     1      14.834   0.076  23.350  0.00  0.00    +0.053 A 
ATOM     31  O5  UNL     1      14.151  -1.671  24.996  0.00  0.00    -0.453 OA
ATOM     32  C24 UNL     1      14.710  -2.928  25.400  0.00  0.00    +0.466 C 
ATOM     33  O6  UNL     1      15.897  -3.081  24.609  0.00  0.00    -0.453 OA
ENDBRANCH  24  25
ENDBRANCH  22  24
ENDBRANCH   1  22
TORSDOF 5
ENDMDL
MODEL 9
REMARK VINA RESULT:    -6.786     10.961     13.182
REMARK INTER + INTRA:          -9.843
REMARK INTER:                  -9.378
REMARK INTRA:                  -0.465
REMARK UNBOUND:                -1.073
REMARK  Name = /home/qwerty/github/datacon2025hack/step_04_hit_selection/docking/ligands/lig_754.pdb
REMARK  6 active torsions:
REMARK  status: ('A' for Active; 'I' for Inactive)
REMARK    1  A    between atoms: C1_1  and  C2_2
REMARK    2  A    between atoms: C2_2  and  C3_3
REMARK    3  A    between atoms: C2_2  and  C18_24
REMARK    4  A    between atoms: C3_3  and  C4_4
REMARK    5  A    between atoms: C7_9  and  C8_10
REMARK    6  A    between atoms: N2_12  and  C9_13
REMARK                            x       y       z     vdW  Elec       q    Type
REMARK                         _______ _______ _______ _____ _____    ______ ____
ROOT
ATOM      1  C4  UNL     1      20.075  15.289  29.753  0.00  0.00    +0.216 C 
ATOM      2  O1  UNL     1      20.192  14.681  30.848  0.00  0.00    -0.276 OA
ATOM      3  N1  UNL     1      18.773  15.450  29.164  0.00  0.00    -0.301 N 
ATOM      4  C5  UNL     1      18.597  15.306  27.711  0.00  0.00    +0.108 C 
ATOM      5  C6  UNL     1      17.203  14.764  27.391  0.00  0.00    +0.032 C 
ATOM      6  C7  UNL     1      16.086  15.664  27.965  0.00  0.00    +0.078 C 
ATOM      7  C16 UNL     1      16.494  16.386  29.279  0.00  0.00    +0.032 C 
ATOM      8  C17 UNL     1      17.606  15.648  30.034  0.00  0.00    +0.108 C 
ENDROOT
BRANCH   6   9
ATOM      9  C8  UNL     1      14.821  14.855  28.125  0.00  0.00    +0.220 C 
ATOM     10  O2  UNL     1      14.721  13.726  27.568  0.00  0.00    -0.275 OA
ATOM     11  N2  UNL     1      13.690  15.434  28.798  0.00  0.00    -0.285 N 
ATOM     12  H12 UNL     1      13.703  16.464  28.978  0.00  0.00    +0.155 HD
BRANCH  11  13
ATOM     13  C9  UNL     1      12.476  14.717  29.064  0.00  0.00    +0.037 A 
ATOM     14  C10 UNL     1      12.282  14.128  30.339  0.00  0.00    +0.027 A 
ATOM     15  C11 UNL     1      11.113  13.400  30.622  0.00  0.00    +0.051 A 
ATOM     16  C12 UNL     1      10.175  13.259  29.607  0.00  0.00    +0.166 A 
ATOM     17  C13 UNL     1      10.360  13.802  28.378  0.00  0.00    +0.168 A 
ATOM     18  C14 UNL     1      11.497  14.540  28.059  0.00  0.00    +0.072 A 
ATOM     19  O3  UNL     1       9.284  13.490  27.570  0.00  0.00    -0.453 OA
ATOM     20  C15 UNL     1       8.362  12.708  28.343  0.00  0.00    +0.466 C 
ATOM     21  O4  UNL     1       8.971  12.583  29.637  0.00  0.00    -0.453 OA
ENDBRANCH  11  13
ENDBRANCH   6   9
BRANCH   1  22
ATOM     22  C3  UNL     1      21.299  15.895  29.115  0.00  0.00    +0.104 C 
BRANCH  22  24
ATOM     23  C1  UNL     1      21.466  13.449  28.479  0.00  0.00    +0.013 C 
ATOM     24  C2  UNL     1      22.167  14.814  28.439  0.00  0.00    +0.025 C 
BRANCH  24  25
ATOM     25  C18 UNL     1      22.533  15.195  27.016  0.00  0.00    -0.040 A 
ATOM     26  C19 UNL     1      22.157  16.455  26.475  0.00  0.00    +0.008 A 
ATOM     27  C20 UNL     1      22.542  16.819  25.172  0.00  0.00    +0.050 A 
ATOM     28  C21 UNL     1      23.300  15.910  24.442  0.00  0.00    +0.166 A 
ATOM     29  C22 UNL     1      23.665  14.707  24.949  0.00  0.00    +0.166 A 
ATOM     30  C23 UNL     1      23.302  14.305  26.230  0.00  0.00    +0.053 A 
ATOM     31  O5  UNL     1      24.413  14.019  24.014  0.00  0.00    -0.453 OA
ATOM     32  C24 UNL     1      24.526  14.844  22.846  0.00  0.00    +0.466 C 
ATOM     33  O6  UNL     1      23.800  16.040  23.160  0.00  0.00    -0.453 OA
ENDBRANCH  24  25
ENDBRANCH  22  24
ENDBRANCH   1  22
TORSDOF 5
ENDMDL
