MODEL 1
REMARK VINA RESULT:    -6.911      0.000      0.000
REMARK INTER + INTRA:         -10.274
REMARK INTER:                  -9.336
REMARK INTRA:                  -0.938
REMARK UNBOUND:                -0.938
REMARK  Name = /home/qwerty/github/datacon2025hack/step_04_hit_selection/docking/ligands/lig_445.pdb
REMARK  6 active torsions:
REMARK  status: ('A' for Active; 'I' for Inactive)
REMARK    1  A    between atoms: N1_3  and  C2_4
REMARK    2  A    between atoms: C2_4  and  C3_5
REMARK    3  A    between atoms: C4_7  and  C5_8
REMARK    4  A    between atoms: N3_14  and  C7_15
REMARK    5  A    between atoms: C12_21  and  O2_22
REMARK    6  A    between atoms: O2_22  and  C13_23
REMARK                            x       y       z     vdW  Elec       q    Type
REMARK                         _______ _______ _______ _____ _____    ______ ____
ROOT
ATOM      1  O1  UNL     1       8.009   9.229  23.893  0.00  0.00    -0.252 OA
ATOM      2  C1  UNL     1       8.919   8.685  24.578  0.00  0.00    +0.304 C 
ATOM      3  N1  UNL     1       8.695   8.387  25.962  0.00  0.00    -0.293 N 
ATOM      4  N3  UNL     1      10.168   8.327  23.969  0.00  0.00    -0.266 N 
ATOM      5  H1  UNL     1       9.440   7.892  26.501  0.00  0.00    +0.151 HD
ATOM      6  H5  UNL     1      10.784   7.658  24.484  0.00  0.00    +0.156 HD
ENDROOT
BRANCH   4   7
ATOM      7  C7  UNL     1      10.567   8.753  22.654  0.00  0.00    +0.080 A 
ATOM      8  C8  UNL     1      11.390   9.881  22.483  0.00  0.00    +0.065 A 
ATOM      9  C9  UNL     1      11.791  10.278  21.206  0.00  0.00    +0.125 A 
ATOM     10  F4  UNL     1      12.584  11.367  21.053  0.00  0.00    -0.205 F 
ATOM     11  C10 UNL     1      11.387   9.547  20.089  0.00  0.00    +0.042 A 
ATOM     12  C11 UNL     1      10.586   8.414  20.244  0.00  0.00    +0.050 A 
ATOM     13  C12 UNL     1      10.169   8.006  21.528  0.00  0.00    +0.142 A 
BRANCH  13  14
ATOM     14  O2  UNL     1       9.362   6.872  21.729  0.00  0.00    -0.487 OA
BRANCH  14  15
ATOM     15  C13 UNL     1       8.766   6.068  20.707  0.00  0.00    +0.176 C 
ATOM     16  C14 UNL     1       9.512   4.730  20.627  0.00  0.00    +0.059 C 
ATOM     17  C15 UNL     1       9.268   3.886  21.887  0.00  0.00    +0.084 C 
ATOM     18  N4  UNL     1       7.834   3.663  22.115  0.00  0.00    -0.316 NA
ATOM     19  C16 UNL     1       7.115   4.937  22.260  0.00  0.00    +0.084 C 
ATOM     20  C17 UNL     1       7.278   5.817  21.012  0.00  0.00    +0.059 C 
ATOM     21  H14 UNL     1       7.437   3.140  21.299  0.00  0.00    +0.122 HD
ENDBRANCH  14  15
ENDBRANCH  13  14
ENDBRANCH   4   7
BRANCH   3  22
ATOM     22  C2  UNL     1       7.458   8.748  26.652  0.00  0.00    +0.168 C 
BRANCH  22  23
ATOM     23  C3  UNL     1       7.712   9.863  27.615  0.00  0.00    +0.096 A 
ATOM     24  N2  UNL     1       8.255  11.046  27.257  0.00  0.00    -0.238 NA
ATOM     25  C4  UNL     1       8.353  11.899  28.314  0.00  0.00    +0.151 A 
ATOM     26  C6  UNL     1       7.867  11.401  29.520  0.00  0.00    +0.079 A 
ATOM     27  S1  UNL     1       7.313   9.838  29.247  0.00  0.00    -0.078 S 
BRANCH  25  28
ATOM     28  C5  UNL     1       8.897  13.287  28.167  0.00  0.00    +0.435 C 
ATOM     29  F1  UNL     1       7.961  14.110  27.566  0.00  0.00    -0.164 F 
ATOM     30  F2  UNL     1      10.039  13.262  27.389  0.00  0.00    -0.164 F 
ATOM     31  F3  UNL     1       9.207  13.794  29.417  0.00  0.00    -0.164 F 
ENDBRANCH  25  28
ENDBRANCH  22  23
ENDBRANCH   3  22
TORSDOF 6
ENDMDL
MODEL 2
REMARK VINA RESULT:    -6.536     13.918     16.006
REMARK INTER + INTRA:          -9.766
REMARK INTER:                  -8.252
REMARK INTRA:                  -1.515
REMARK UNBOUND:                -0.938
REMARK  Name = /home/qwerty/github/datacon2025hack/step_04_hit_selection/docking/ligands/lig_445.pdb
REMARK  6 active torsions:
REMARK  status: ('A' for Active; 'I' for Inactive)
REMARK    1  A    between atoms: N1_3  and  C2_4
REMARK    2  A    between atoms: C2_4  and  C3_5
REMARK    3  A    between atoms: C4_7  and  C5_8
REMARK    4  A    between atoms: N3_14  and  C7_15
REMARK    5  A    between atoms: C12_21  and  O2_22
REMARK    6  A    between atoms: O2_22  and  C13_23
REMARK                            x       y       z     vdW  Elec       q    Type
REMARK                         _______ _______ _______ _____ _____    ______ ____
ROOT
ATOM      1  O1  UNL     1      18.361   8.143  36.917  0.00  0.00    -0.252 OA
ATOM      2  C1  UNL     1      18.878   9.100  37.556  0.00  0.00    +0.304 C 
ATOM      3  N1  UNL     1      18.051   9.972  38.337  0.00  0.00    -0.293 N 
ATOM      4  N3  UNL     1      20.299   9.300  37.536  0.00  0.00    -0.266 N 
ATOM      5  H1  UNL     1      18.501  10.729  38.899  0.00  0.00    +0.151 HD
ATOM      6  H5  UNL     1      20.711   9.924  38.267  0.00  0.00    +0.156 HD
ENDROOT
BRANCH   4   7
ATOM      7  C7  UNL     1      21.191   8.613  36.639  0.00  0.00    +0.080 A 
ATOM      8  C8  UNL     1      22.021   7.578  37.105  0.00  0.00    +0.065 A 
ATOM      9  C9  UNL     1      22.869   6.901  36.227  0.00  0.00    +0.125 A 
ATOM     10  F4  UNL     1      23.666   5.905  36.687  0.00  0.00    -0.205 F 
ATOM     11  C10 UNL     1      22.887   7.240  34.874  0.00  0.00    +0.042 A 
ATOM     12  C11 UNL     1      22.054   8.252  34.393  0.00  0.00    +0.050 A 
ATOM     13  C12 UNL     1      21.197   8.948  35.271  0.00  0.00    +0.142 A 
BRANCH  13  14
ATOM     14  O2  UNL     1      20.344   9.974  34.830  0.00  0.00    -0.487 OA
BRANCH  14  15
ATOM     15  C13 UNL     1      20.743  11.280  34.405  0.00  0.00    +0.176 C 
ATOM     16  C14 UNL     1      19.823  11.737  33.265  0.00  0.00    +0.059 C 
ATOM     17  C15 UNL     1      18.395  11.983  33.774  0.00  0.00    +0.084 C 
ATOM     18  N4  UNL     1      18.376  12.959  34.871  0.00  0.00    -0.316 NA
ATOM     19  C16 UNL     1      19.202  12.504  36.000  0.00  0.00    +0.084 C 
ATOM     20  C17 UNL     1      20.659  12.280  35.573  0.00  0.00    +0.059 C 
ATOM     21  H14 UNL     1      18.752  13.872  34.521  0.00  0.00    +0.122 HD
ENDBRANCH  14  15
ENDBRANCH  13  14
ENDBRANCH   4   7
BRANCH   3  22
ATOM     22  C2  UNL     1      16.596   9.843  38.380  0.00  0.00    +0.168 C 
BRANCH  22  23
ATOM     23  C3  UNL     1      15.973  10.671  37.303  0.00  0.00    +0.096 A 
ATOM     24  N2  UNL     1      15.735  11.994  37.425  0.00  0.00    -0.238 NA
ATOM     25  C4  UNL     1      15.188  12.517  36.292  0.00  0.00    +0.151 A 
ATOM     26  C6  UNL     1      15.005  11.610  35.253  0.00  0.00    +0.079 A 
ATOM     27  S1  UNL     1      15.535  10.104  35.782  0.00  0.00    -0.078 S 
BRANCH  25  28
ATOM     28  C5  UNL     1      14.860  13.973  36.168  0.00  0.00    +0.435 C 
ATOM     29  F1  UNL     1      14.085  14.385  37.238  0.00  0.00    -0.164 F 
ATOM     30  F2  UNL     1      14.161  14.197  34.995  0.00  0.00    -0.164 F 
ATOM     31  F3  UNL     1      16.031  14.709  36.148  0.00  0.00    -0.164 F 
ENDBRANCH  25  28
ENDBRANCH  22  23
ENDBRANCH   3  22
TORSDOF 6
ENDMDL
MODEL 3
REMARK VINA RESULT:    -6.457      7.394     10.362
REMARK INTER + INTRA:          -9.660
REMARK INTER:                  -7.996
REMARK INTRA:                  -1.664
REMARK UNBOUND:                -0.938
REMARK  Name = /home/qwerty/github/datacon2025hack/step_04_hit_selection/docking/ligands/lig_445.pdb
REMARK  6 active torsions:
REMARK  status: ('A' for Active; 'I' for Inactive)
REMARK    1  A    between atoms: N1_3  and  C2_4
REMARK    2  A    between atoms: C2_4  and  C3_5
REMARK    3  A    between atoms: C4_7  and  C5_8
REMARK    4  A    between atoms: N3_14  and  C7_15
REMARK    5  A    between atoms: C12_21  and  O2_22
REMARK    6  A    between atoms: O2_22  and  C13_23
REMARK                            x       y       z     vdW  Elec       q    Type
REMARK                         _______ _______ _______ _____ _____    ______ ____
ROOT
ATOM      1  O1  UNL     1      16.462   2.172  21.668  0.00  0.00    -0.252 OA
ATOM      2  C1  UNL     1      15.769   1.664  20.745  0.00  0.00    +0.304 C 
ATOM      3  N1  UNL     1      15.468   2.428  19.570  0.00  0.00    -0.293 N 
ATOM      4  N3  UNL     1      15.309   0.308  20.847  0.00  0.00    -0.266 N 
ATOM      5  H1  UNL     1      14.934   1.975  18.793  0.00  0.00    +0.151 HD
ATOM      6  H5  UNL     1      14.970  -0.155  19.973  0.00  0.00    +0.156 HD
ENDROOT
BRANCH   4   7
ATOM      7  C7  UNL     1      15.385  -0.473  22.053  0.00  0.00    +0.080 A 
ATOM      8  C8  UNL     1      16.543  -1.209  22.360  0.00  0.00    +0.065 A 
ATOM      9  C9  UNL     1      16.620  -1.948  23.541  0.00  0.00    +0.125 A 
ATOM     10  F4  UNL     1      17.742  -2.655  23.828  0.00  0.00    -0.205 F 
ATOM     11  C10 UNL     1      15.548  -1.950  24.434  0.00  0.00    +0.042 A 
ATOM     12  C11 UNL     1      14.398  -1.210  24.152  0.00  0.00    +0.050 A 
ATOM     13  C12 UNL     1      14.306  -0.463  22.958  0.00  0.00    +0.142 A 
BRANCH  13  14
ATOM     14  O2  UNL     1      13.168   0.296  22.635  0.00  0.00    -0.487 OA
BRANCH  14  15
ATOM     15  C13 UNL     1      12.621   1.369  23.408  0.00  0.00    +0.176 C 
ATOM     16  C14 UNL     1      12.431   2.590  22.500  0.00  0.00    +0.059 C 
ATOM     17  C15 UNL     1      11.325   2.340  21.463  0.00  0.00    +0.084 C 
ATOM     18  N4  UNL     1      10.056   1.976  22.108  0.00  0.00    -0.316 NA
ATOM     19  C16 UNL     1      10.207   0.767  22.930  0.00  0.00    +0.084 C 
ATOM     20  C17 UNL     1      11.270   0.961  24.022  0.00  0.00    +0.059 C 
ATOM     21  H14 UNL     1       9.746   2.768  22.720  0.00  0.00    +0.122 HD
ENDBRANCH  14  15
ENDBRANCH  13  14
ENDBRANCH   4   7
BRANCH   3  22
ATOM     22  C2  UNL     1      15.881   3.821  19.412  0.00  0.00    +0.168 C 
BRANCH  22  23
ATOM     23  C3  UNL     1      14.927   4.725  20.125  0.00  0.00    +0.096 A 
ATOM     24  N2  UNL     1      13.623   4.840  19.795  0.00  0.00    -0.238 NA
ATOM     25  C4  UNL     1      12.968   5.706  20.617  0.00  0.00    +0.151 A 
ATOM     26  C6  UNL     1      13.749   6.273  21.621  0.00  0.00    +0.079 A 
ATOM     27  S1  UNL     1      15.312   5.674  21.458  0.00  0.00    -0.078 S 
BRANCH  25  28
ATOM     28  C5  UNL     1      11.503   5.983  20.474  0.00  0.00    +0.435 C 
ATOM     29  F1  UNL     1      11.299   7.277  20.026  0.00  0.00    -0.164 F 
ATOM     30  F2  UNL     1      10.876   5.827  21.696  0.00  0.00    -0.164 F 
ATOM     31  F3  UNL     1      10.954   5.099  19.563  0.00  0.00    -0.164 F 
ENDBRANCH  25  28
ENDBRANCH  22  23
ENDBRANCH   3  22
TORSDOF 6
ENDMDL
MODEL 4
REMARK VINA RESULT:    -6.439     11.608     14.132
REMARK INTER + INTRA:          -9.636
REMARK INTER:                  -8.110
REMARK INTRA:                  -1.526
REMARK UNBOUND:                -0.938
REMARK  Name = /home/qwerty/github/datacon2025hack/step_04_hit_selection/docking/ligands/lig_445.pdb
REMARK  6 active torsions:
REMARK  status: ('A' for Active; 'I' for Inactive)
REMARK    1  A    between atoms: N1_3  and  C2_4
REMARK    2  A    between atoms: C2_4  and  C3_5
REMARK    3  A    between atoms: C4_7  and  C5_8
REMARK    4  A    between atoms: N3_14  and  C7_15
REMARK    5  A    between atoms: C12_21  and  O2_22
REMARK    6  A    between atoms: O2_22  and  C13_23
REMARK                            x       y       z     vdW  Elec       q    Type
REMARK                         _______ _______ _______ _____ _____    ______ ____
ROOT
ATOM      1  O1  UNL     1      18.086   0.492  26.174  0.00  0.00    -0.252 OA
ATOM      2  C1  UNL     1      18.909  -0.083  25.410  0.00  0.00    +0.304 C 
ATOM      3  N1  UNL     1      18.461  -1.108  24.514  0.00  0.00    -0.293 N 
ATOM      4  N3  UNL     1      20.289   0.310  25.405  0.00  0.00    -0.266 N 
ATOM      5  H1  UNL     1      19.146  -1.540  23.854  0.00  0.00    +0.151 HD
ATOM      6  H5  UNL     1      20.877   0.005  24.596  0.00  0.00    +0.156 HD
ENDROOT
BRANCH   4   7
ATOM      7  C7  UNL     1      20.877   1.179  26.390  0.00  0.00    +0.080 A 
ATOM      8  C8  UNL     1      21.382   0.660  27.595  0.00  0.00    +0.065 A 
ATOM      9  C9  UNL     1      21.969   1.505  28.538  0.00  0.00    +0.125 A 
ATOM     10  F4  UNL     1      22.453   0.995  29.698  0.00  0.00    -0.205 F 
ATOM     11  C10 UNL     1      22.071   2.873  28.283  0.00  0.00    +0.042 A 
ATOM     12  C11 UNL     1      21.591   3.400  27.083  0.00  0.00    +0.050 A 
ATOM     13  C12 UNL     1      20.990   2.558  26.124  0.00  0.00    +0.142 A 
BRANCH  13  14
ATOM     14  O2  UNL     1      20.493   3.046  24.903  0.00  0.00    -0.487 OA
BRANCH  14  15
ATOM     15  C13 UNL     1      19.595   4.148  24.737  0.00  0.00    +0.176 C 
ATOM     16  C14 UNL     1      20.001   4.937  23.486  0.00  0.00    +0.059 C 
ATOM     17  C15 UNL     1      19.749   4.118  22.211  0.00  0.00    +0.084 C 
ATOM     18  N4  UNL     1      18.348   3.689  22.116  0.00  0.00    -0.316 NA
ATOM     19  C16 UNL     1      17.962   2.875  23.277  0.00  0.00    +0.084 C 
ATOM     20  C17 UNL     1      18.146   3.650  24.590  0.00  0.00    +0.059 C 
ATOM     21  H14 UNL     1      17.734   4.537  22.077  0.00  0.00    +0.122 HD
ENDBRANCH  14  15
ENDBRANCH  13  14
ENDBRANCH   4   7
BRANCH   3  22
ATOM     22  C2  UNL     1      17.077  -1.576  24.486  0.00  0.00    +0.168 C 
BRANCH  22  23
ATOM     23  C3  UNL     1      16.309  -0.850  23.428  0.00  0.00    +0.096 A 
ATOM     24  N2  UNL     1      16.796  -0.603  22.193  0.00  0.00    -0.238 NA
ATOM     25  C4  UNL     1      15.888   0.046  21.412  0.00  0.00    +0.151 A 
ATOM     26  C6  UNL     1      14.663   0.303  22.021  0.00  0.00    +0.079 A 
ATOM     27  S1  UNL     1      14.732  -0.294  23.591  0.00  0.00    -0.078 S 
BRANCH  25  28
ATOM     28  C5  UNL     1      16.180   0.407  19.988  0.00  0.00    +0.435 C 
ATOM     29  F1  UNL     1      16.734   1.673  19.917  0.00  0.00    -0.164 F 
ATOM     30  F2  UNL     1      15.010   0.387  19.251  0.00  0.00    -0.164 F 
ATOM     31  F3  UNL     1      17.071  -0.506  19.455  0.00  0.00    -0.164 F 
ENDBRANCH  25  28
ENDBRANCH  22  23
ENDBRANCH   3  22
TORSDOF 6
ENDMDL
MODEL 5
REMARK VINA RESULT:    -6.419      7.650     12.972
REMARK INTER + INTRA:          -9.609
REMARK INTER:                  -8.908
REMARK INTRA:                  -0.701
REMARK UNBOUND:                -0.938
REMARK  Name = /home/qwerty/github/datacon2025hack/step_04_hit_selection/docking/ligands/lig_445.pdb
REMARK  6 active torsions:
REMARK  status: ('A' for Active; 'I' for Inactive)
REMARK    1  A    between atoms: N1_3  and  C2_4
REMARK    2  A    between atoms: C2_4  and  C3_5
REMARK    3  A    between atoms: C4_7  and  C5_8
REMARK    4  A    between atoms: N3_14  and  C7_15
REMARK    5  A    between atoms: C12_21  and  O2_22
REMARK    6  A    between atoms: O2_22  and  C13_23
REMARK                            x       y       z     vdW  Elec       q    Type
REMARK                         _______ _______ _______ _____ _____    ______ ____
ROOT
ATOM      1  O1  UNL     1      12.629  12.472  32.431  0.00  0.00    -0.252 OA
ATOM      2  C1  UNL     1      11.847  13.419  32.719  0.00  0.00    +0.304 C 
ATOM      3  N1  UNL     1      11.633  14.484  31.783  0.00  0.00    -0.293 N 
ATOM      4  N3  UNL     1      11.138  13.420  33.967  0.00  0.00    -0.266 N 
ATOM      5  H1  UNL     1      10.945  15.234  32.016  0.00  0.00    +0.151 HD
ATOM      6  H5  UNL     1      10.321  14.065  34.060  0.00  0.00    +0.156 HD
ENDROOT
BRANCH   4   7
ATOM      7  C7  UNL     1      11.424  12.515  35.049  0.00  0.00    +0.080 A 
ATOM      8  C8  UNL     1      10.916  11.204  35.041  0.00  0.00    +0.065 A 
ATOM      9  C9  UNL     1      11.214  10.324  36.083  0.00  0.00    +0.125 A 
ATOM     10  F4  UNL     1      10.719   9.061  36.067  0.00  0.00    -0.205 F 
ATOM     11  C10 UNL     1      12.031  10.739  37.135  0.00  0.00    +0.042 A 
ATOM     12  C11 UNL     1      12.557  12.032  37.147  0.00  0.00    +0.050 A 
ATOM     13  C12 UNL     1      12.260  12.932  36.103  0.00  0.00    +0.142 A 
BRANCH  13  14
ATOM     14  O2  UNL     1      12.768  14.243  36.075  0.00  0.00    -0.487 OA
BRANCH  14  15
ATOM     15  C13 UNL     1      13.860  14.708  35.277  0.00  0.00    +0.176 C 
ATOM     16  C14 UNL     1      14.308  16.080  35.794  0.00  0.00    +0.059 C 
ATOM     17  C15 UNL     1      14.950  15.963  37.185  0.00  0.00    +0.084 C 
ATOM     18  N4  UNL     1      16.079  15.023  37.178  0.00  0.00    -0.316 NA
ATOM     19  C16 UNL     1      15.652  13.685  36.746  0.00  0.00    +0.084 C 
ATOM     20  C17 UNL     1      15.038  13.719  35.339  0.00  0.00    +0.059 C 
ATOM     21  H14 UNL     1      16.811  15.376  36.517  0.00  0.00    +0.122 HD
ENDBRANCH  14  15
ENDBRANCH  13  14
ENDBRANCH   4   7
BRANCH   3  22
ATOM     22  C2  UNL     1      12.341  14.560  30.506  0.00  0.00    +0.168 C 
BRANCH  22  23
ATOM     23  C3  UNL     1      11.533  13.911  29.429  0.00  0.00    +0.096 A 
ATOM     24  N2  UNL     1      10.191  13.781  29.481  0.00  0.00    -0.238 NA
ATOM     25  C4  UNL     1       9.696  13.181  28.363  0.00  0.00    +0.151 A 
ATOM     26  C6  UNL     1      10.647  12.846  27.404  0.00  0.00    +0.079 A 
ATOM     27  S1  UNL     1      12.154  13.307  27.988  0.00  0.00    -0.078 S 
BRANCH  25  28
ATOM     28  C5  UNL     1       8.229  12.950  28.169  0.00  0.00    +0.435 C 
ATOM     29  F1  UNL     1       8.019  11.845  27.363  0.00  0.00    -0.164 F 
ATOM     30  F2  UNL     1       7.656  14.058  27.571  0.00  0.00    -0.164 F 
ATOM     31  F3  UNL     1       7.630  12.734  29.397  0.00  0.00    -0.164 F 
ENDBRANCH  25  28
ENDBRANCH  22  23
ENDBRANCH   3  22
TORSDOF 6
ENDMDL
MODEL 6
REMARK VINA RESULT:    -6.409     11.518     13.537
REMARK INTER + INTRA:          -9.595
REMARK INTER:                  -8.675
REMARK INTRA:                  -0.921
REMARK UNBOUND:                -0.938
REMARK  Name = /home/qwerty/github/datacon2025hack/step_04_hit_selection/docking/ligands/lig_445.pdb
REMARK  6 active torsions:
REMARK  status: ('A' for Active; 'I' for Inactive)
REMARK    1  A    between atoms: N1_3  and  C2_4
REMARK    2  A    between atoms: C2_4  and  C3_5
REMARK    3  A    between atoms: C4_7  and  C5_8
REMARK    4  A    between atoms: N3_14  and  C7_15
REMARK    5  A    between atoms: C12_21  and  O2_22
REMARK    6  A    between atoms: O2_22  and  C13_23
REMARK                            x       y       z     vdW  Elec       q    Type
REMARK                         _______ _______ _______ _____ _____    ______ ____
ROOT
ATOM      1  O1  UNL     1      17.793   1.769  25.638  0.00  0.00    -0.252 OA
ATOM      2  C1  UNL     1      18.311   0.864  24.928  0.00  0.00    +0.304 C 
ATOM      3  N1  UNL     1      19.633   1.034  24.400  0.00  0.00    -0.293 N 
ATOM      4  N3  UNL     1      17.598  -0.356  24.676  0.00  0.00    -0.266 N 
ATOM      5  H1  UNL     1      20.066   0.255  23.856  0.00  0.00    +0.151 HD
ATOM      6  H5  UNL     1      18.145  -1.170  24.315  0.00  0.00    +0.156 HD
ENDROOT
BRANCH   4   7
ATOM      7  C7  UNL     1      16.207  -0.548  24.988  0.00  0.00    +0.080 A 
ATOM      8  C8  UNL     1      15.818  -1.125  26.210  0.00  0.00    +0.065 A 
ATOM      9  C9  UNL     1      14.467  -1.290  26.517  0.00  0.00    +0.125 A 
ATOM     10  F4  UNL     1      14.102  -1.849  27.698  0.00  0.00    -0.205 F 
ATOM     11  C10 UNL     1      13.490  -0.869  25.615  0.00  0.00    +0.042 A 
ATOM     12  C11 UNL     1      13.860  -0.277  24.405  0.00  0.00    +0.050 A 
ATOM     13  C12 UNL     1      15.222  -0.110  24.081  0.00  0.00    +0.142 A 
BRANCH  13  14
ATOM     14  O2  UNL     1      15.639   0.480  22.875  0.00  0.00    -0.487 OA
BRANCH  14  15
ATOM     15  C13 UNL     1      15.444   1.845  22.492  0.00  0.00    +0.176 C 
ATOM     16  C14 UNL     1      16.594   2.273  21.571  0.00  0.00    +0.059 C 
ATOM     17  C15 UNL     1      16.521   1.543  20.222  0.00  0.00    +0.084 C 
ATOM     18  N4  UNL     1      15.227   1.760  19.562  0.00  0.00    -0.316 NA
ATOM     19  C16 UNL     1      14.117   1.294  20.406  0.00  0.00    +0.084 C 
ATOM     20  C17 UNL     1      14.101   2.017  21.761  0.00  0.00    +0.059 C 
ATOM     21  H14 UNL     1      15.107   2.785  19.378  0.00  0.00    +0.122 HD
ENDBRANCH  14  15
ENDBRANCH  13  14
ENDBRANCH   4   7
BRANCH   3  22
ATOM     22  C2  UNL     1      20.404   2.260  24.595  0.00  0.00    +0.168 C 
BRANCH  22  23
ATOM     23  C3  UNL     1      21.162   2.193  25.882  0.00  0.00    +0.096 A 
ATOM     24  N2  UNL     1      21.197   1.096  26.668  0.00  0.00    -0.238 NA
ATOM     25  C4  UNL     1      21.981   1.285  27.766  0.00  0.00    +0.151 A 
ATOM     26  C6  UNL     1      22.590   2.535  27.848  0.00  0.00    +0.079 A 
ATOM     27  S1  UNL     1      22.116   3.429  26.505  0.00  0.00    -0.078 S 
BRANCH  25  28
ATOM     28  C5  UNL     1      22.205   0.204  28.778  0.00  0.00    +0.435 C 
ATOM     29  F1  UNL     1      21.156   0.165  29.680  0.00  0.00    -0.164 F 
ATOM     30  F2  UNL     1      23.380   0.443  29.467  0.00  0.00    -0.164 F 
ATOM     31  F3  UNL     1      22.294  -1.017  28.135  0.00  0.00    -0.164 F 
ENDBRANCH  25  28
ENDBRANCH  22  23
ENDBRANCH   3  22
TORSDOF 6
ENDMDL
MODEL 7
REMARK VINA RESULT:    -6.404      6.721     10.255
REMARK INTER + INTRA:          -9.589
REMARK INTER:                  -8.525
REMARK INTRA:                  -1.064
REMARK UNBOUND:                -0.938
REMARK  Name = /home/qwerty/github/datacon2025hack/step_04_hit_selection/docking/ligands/lig_445.pdb
REMARK  6 active torsions:
REMARK  status: ('A' for Active; 'I' for Inactive)
REMARK    1  A    between atoms: N1_3  and  C2_4
REMARK    2  A    between atoms: C2_4  and  C3_5
REMARK    3  A    between atoms: C4_7  and  C5_8
REMARK    4  A    between atoms: N3_14  and  C7_15
REMARK    5  A    between atoms: C12_21  and  O2_22
REMARK    6  A    between atoms: O2_22  and  C13_23
REMARK                            x       y       z     vdW  Elec       q    Type
REMARK                         _______ _______ _______ _____ _____    ______ ____
ROOT
ATOM      1  O1  UNL     1      13.323   4.938  21.244  0.00  0.00    -0.252 OA
ATOM      2  C1  UNL     1      12.958   4.284  20.229  0.00  0.00    +0.304 C 
ATOM      3  N1  UNL     1      13.929   3.592  19.433  0.00  0.00    -0.293 N 
ATOM      4  N3  UNL     1      11.567   4.195  19.886  0.00  0.00    -0.266 N 
ATOM      5  H1  UNL     1      13.604   3.015  18.625  0.00  0.00    +0.151 HD
ATOM      6  H5  UNL     1      11.281   3.450  19.212  0.00  0.00    +0.156 HD
ENDROOT
BRANCH   4   7
ATOM      7  C7  UNL     1      10.542   5.002  20.494  0.00  0.00    +0.080 A 
ATOM      8  C8  UNL     1      10.375   6.349  20.125  0.00  0.00    +0.065 A 
ATOM      9  C9  UNL     1       9.365   7.120  20.702  0.00  0.00    +0.125 A 
ATOM     10  F4  UNL     1       9.213   8.419  20.340  0.00  0.00    -0.205 F 
ATOM     11  C10 UNL     1       8.504   6.554  21.642  0.00  0.00    +0.042 A 
ATOM     12  C11 UNL     1       8.646   5.213  22.005  0.00  0.00    +0.050 A 
ATOM     13  C12 UNL     1       9.665   4.423  21.433  0.00  0.00    +0.142 A 
BRANCH  13  14
ATOM     14  O2  UNL     1       9.843   3.070  21.769  0.00  0.00    -0.487 OA
BRANCH  14  15
ATOM     15  C13 UNL     1      10.821   2.546  22.673  0.00  0.00    +0.176 C 
ATOM     16  C14 UNL     1      10.348   2.786  24.112  0.00  0.00    +0.059 C 
ATOM     17  C15 UNL     1       9.114   1.931  24.437  0.00  0.00    +0.084 C 
ATOM     18  N4  UNL     1       9.376   0.503  24.214  0.00  0.00    -0.316 NA
ATOM     19  C16 UNL     1       9.767   0.248  22.820  0.00  0.00    +0.084 C 
ATOM     20  C17 UNL     1      11.026   1.039  22.437  0.00  0.00    +0.059 C 
ATOM     21  H14 UNL     1      10.152   0.197  24.846  0.00  0.00    +0.122 HD
ENDBRANCH  14  15
ENDBRANCH  13  14
ENDBRANCH   4   7
BRANCH   3  22
ATOM     22  C2  UNL     1      15.362   3.661  19.708  0.00  0.00    +0.168 C 
BRANCH  22  23
ATOM     23  C3  UNL     1      15.745   2.621  20.711  0.00  0.00    +0.096 A 
ATOM     24  N2  UNL     1      15.874   1.311  20.412  0.00  0.00    -0.238 NA
ATOM     25  C4  UNL     1      16.260   0.579  21.494  0.00  0.00    +0.151 A 
ATOM     26  C6  UNL     1      16.458   1.312  22.661  0.00  0.00    +0.079 A 
ATOM     27  S1  UNL     1      16.124   2.925  22.320  0.00  0.00    -0.078 S 
BRANCH  25  28
ATOM     28  C5  UNL     1      16.499  -0.897  21.411  0.00  0.00    +0.435 C 
ATOM     29  F1  UNL     1      17.742  -1.212  21.930  0.00  0.00    -0.164 F 
ATOM     30  F2  UNL     1      16.446  -1.306  20.091  0.00  0.00    -0.164 F 
ATOM     31  F3  UNL     1      15.526  -1.563  22.134  0.00  0.00    -0.164 F 
ENDBRANCH  25  28
ENDBRANCH  22  23
ENDBRANCH   3  22
TORSDOF 6
ENDMDL
MODEL 8
REMARK VINA RESULT:    -6.279      5.870      9.288
REMARK INTER + INTRA:          -9.419
REMARK INTER:                  -8.290
REMARK INTRA:                  -1.129
REMARK UNBOUND:                -0.938
REMARK  Name = /home/qwerty/github/datacon2025hack/step_04_hit_selection/docking/ligands/lig_445.pdb
REMARK  6 active torsions:
REMARK  status: ('A' for Active; 'I' for Inactive)
REMARK    1  A    between atoms: N1_3  and  C2_4
REMARK    2  A    between atoms: C2_4  and  C3_5
REMARK    3  A    between atoms: C4_7  and  C5_8
REMARK    4  A    between atoms: N3_14  and  C7_15
REMARK    5  A    between atoms: C12_21  and  O2_22
REMARK    6  A    between atoms: O2_22  and  C13_23
REMARK                            x       y       z     vdW  Elec       q    Type
REMARK                         _______ _______ _______ _____ _____    ______ ____
ROOT
ATOM      1  O1  UNL     1      13.257   6.281  20.996  0.00  0.00    -0.252 OA
ATOM      2  C1  UNL     1      12.370   5.689  20.321  0.00  0.00    +0.304 C 
ATOM      3  N1  UNL     1      12.677   4.457  19.656  0.00  0.00    -0.293 N 
ATOM      4  N3  UNL     1      11.040   6.224  20.246  0.00  0.00    -0.266 N 
ATOM      5  H1  UNL     1      11.918   3.955  19.143  0.00  0.00    +0.151 HD
ATOM      6  H5  UNL     1      10.282   5.590  19.906  0.00  0.00    +0.156 HD
ENDROOT
BRANCH   4   7
ATOM      7  C7  UNL     1      10.681   7.539  20.705  0.00  0.00    +0.080 A 
ATOM      8  C8  UNL     1      10.935   8.672  19.912  0.00  0.00    +0.065 A 
ATOM      9  C9  UNL     1      10.565   9.943  20.353  0.00  0.00    +0.125 A 
ATOM     10  F4  UNL     1      10.815  11.029  19.580  0.00  0.00    -0.205 F 
ATOM     11  C10 UNL     1       9.926  10.096  21.584  0.00  0.00    +0.042 A 
ATOM     12  C11 UNL     1       9.650   8.979  22.375  0.00  0.00    +0.050 A 
ATOM     13  C12 UNL     1      10.024   7.689  21.943  0.00  0.00    +0.142 A 
BRANCH  13  14
ATOM     14  O2  UNL     1       9.766   6.538  22.707  0.00  0.00    -0.487 OA
BRANCH  14  15
ATOM     15  C13 UNL     1       8.484   6.101  23.167  0.00  0.00    +0.176 C 
ATOM     16  C14 UNL     1       7.615   5.741  21.955  0.00  0.00    +0.059 C 
ATOM     17  C15 UNL     1       8.150   4.488  21.245  0.00  0.00    +0.084 C 
ATOM     18  N4  UNL     1       8.245   3.348  22.167  0.00  0.00    -0.316 NA
ATOM     19  C16 UNL     1       9.128   3.655  23.301  0.00  0.00    +0.084 C 
ATOM     20  C17 UNL     1       8.627   4.875  24.087  0.00  0.00    +0.059 C 
ATOM     21  H14 UNL     1       7.288   3.125  22.531  0.00  0.00    +0.122 HD
ENDBRANCH  14  15
ENDBRANCH  13  14
ENDBRANCH   4   7
BRANCH   3  22
ATOM     22  C2  UNL     1      14.016   3.871  19.669  0.00  0.00    +0.168 C 
BRANCH  22  23
ATOM     23  C3  UNL     1      14.024   2.623  20.492  0.00  0.00    +0.096 A 
ATOM     24  N2  UNL     1      15.100   1.816  20.610  0.00  0.00    -0.238 NA
ATOM     25  C4  UNL     1      14.855   0.763  21.439  0.00  0.00    +0.151 A 
ATOM     26  C6  UNL     1      13.582   0.739  22.001  0.00  0.00    +0.079 A 
ATOM     27  S1  UNL     1      12.738   2.075  21.426  0.00  0.00    -0.078 S 
BRANCH  25  28
ATOM     28  C5  UNL     1      15.903  -0.259  21.755  0.00  0.00    +0.435 C 
ATOM     29  F1  UNL     1      15.337  -1.344  22.401  0.00  0.00    -0.164 F 
ATOM     30  F2  UNL     1      16.868   0.297  22.574  0.00  0.00    -0.164 F 
ATOM     31  F3  UNL     1      16.494  -0.690  20.581  0.00  0.00    -0.164 F 
ENDBRANCH  25  28
ENDBRANCH  22  23
ENDBRANCH   3  22
TORSDOF 6
ENDMDL
MODEL 9
REMARK VINA RESULT:    -6.119      7.398     10.872
REMARK INTER + INTRA:          -9.203
REMARK INTER:                  -8.052
REMARK INTRA:                  -1.152
REMARK UNBOUND:                -0.938
REMARK  Name = /home/qwerty/github/datacon2025hack/step_04_hit_selection/docking/ligands/lig_445.pdb
REMARK  6 active torsions:
REMARK  status: ('A' for Active; 'I' for Inactive)
REMARK    1  A    between atoms: N1_3  and  C2_4
REMARK    2  A    between atoms: C2_4  and  C3_5
REMARK    3  A    between atoms: C4_7  and  C5_8
REMARK    4  A    between atoms: N3_14  and  C7_15
REMARK    5  A    between atoms: C12_21  and  O2_22
REMARK    6  A    between atoms: O2_22  and  C13_23
REMARK                            x       y       z     vdW  Elec       q    Type
REMARK                         _______ _______ _______ _____ _____    ______ ____
ROOT
ATOM      1  O1  UNL     1      12.304   2.629  23.181  0.00  0.00    -0.252 OA
ATOM      2  C1  UNL     1      11.713   2.248  22.134  0.00  0.00    +0.304 C 
ATOM      3  N1  UNL     1      12.421   2.199  20.888  0.00  0.00    -0.293 N 
ATOM      4  N3  UNL     1      10.342   1.827  22.187  0.00  0.00    -0.266 N 
ATOM      5  H1  UNL     1      11.930   1.835  20.040  0.00  0.00    +0.151 HD
ATOM      6  H5  UNL     1       9.970   1.284  21.376  0.00  0.00    +0.156 HD
ENDROOT
BRANCH   4   7
ATOM      7  C7  UNL     1       9.491   2.022  23.331  0.00  0.00    +0.080 A 
ATOM      8  C8  UNL     1       9.397   1.038  24.332  0.00  0.00    +0.065 A 
ATOM      9  C9  UNL     1       8.586   1.240  25.450  0.00  0.00    +0.125 A 
ATOM     10  F4  UNL     1       8.502   0.285  26.409  0.00  0.00    -0.205 F 
ATOM     11  C10 UNL     1       7.871   2.430  25.587  0.00  0.00    +0.042 A 
ATOM     12  C11 UNL     1       7.968   3.424  24.611  0.00  0.00    +0.050 A 
ATOM     13  C12 UNL     1       8.780   3.229  23.474  0.00  0.00    +0.142 A 
BRANCH  13  14
ATOM     14  O2  UNL     1       8.906   4.203  22.468  0.00  0.00    -0.487 OA
BRANCH  14  15
ATOM     15  C13 UNL     1       9.407   5.532  22.637  0.00  0.00    +0.176 C 
ATOM     16  C14 UNL     1      10.672   5.701  21.787  0.00  0.00    +0.059 C 
ATOM     17  C15 UNL     1      10.337   5.669  20.288  0.00  0.00    +0.084 C 
ATOM     18  N4  UNL     1       9.342   6.691  19.938  0.00  0.00    -0.316 NA
ATOM     19  C16 UNL     1       8.098   6.503  20.698  0.00  0.00    +0.084 C 
ATOM     20  C17 UNL     1       8.351   6.568  22.211  0.00  0.00    +0.059 C 
ATOM     21  H14 UNL     1       9.735   7.638  20.157  0.00  0.00    +0.122 HD
ENDBRANCH  14  15
ENDBRANCH  13  14
ENDBRANCH   4   7
BRANCH   3  22
ATOM     22  C2  UNL     1      13.808   2.638  20.756  0.00  0.00    +0.168 C 
BRANCH  22  23
ATOM     23  C3  UNL     1      14.732   1.468  20.872  0.00  0.00    +0.096 A 
ATOM     24  N2  UNL     1      15.024   0.863  22.043  0.00  0.00    -0.238 NA
ATOM     25  C4  UNL     1      15.865  -0.194  21.871  0.00  0.00    +0.151 A 
ATOM     26  C6  UNL     1      16.233  -0.447  20.552  0.00  0.00    +0.079 A 
ATOM     27  S1  UNL     1      15.487   0.703  19.579  0.00  0.00    -0.078 S 
BRANCH  25  28
ATOM     28  C5  UNL     1      16.315  -1.046  23.018  0.00  0.00    +0.435 C 
ATOM     29  F1  UNL     1      16.910  -0.265  23.993  0.00  0.00    -0.164 F 
ATOM     30  F2  UNL     1      17.229  -1.983  22.574  0.00  0.00    -0.164 F 
ATOM     31  F3  UNL     1      15.223  -1.696  23.564  0.00  0.00    -0.164 F 
ENDBRANCH  25  28
ENDBRANCH  22  23
ENDBRANCH   3  22
TORSDOF 6
ENDMDL
