REMARK  Name = /home/qwerty/github/datacon2025hack/step_04_hit_selection/docking/ligands/lig_432.pdb
REMARK  6 active torsions:
REMARK  status: ('A' for Active; 'I' for Inactive)
REMARK    1  A    between atoms: C1_1  and  C2_2
REMARK    2  A    between atoms: C2_2  and  C3_3
REMARK    3  A    between atoms: C2_2  and  C4_4
REMARK    4  A    between atoms: C8_10  and  N2_11
REMARK    5  A    between atoms: C9_12  and  C10_14
REMARK    6  A    between atoms: N6_22  and  C15_23
REMARK                            x       y       z     vdW  Elec       q    Type
REMARK                         _______ _______ _______ _____ _____    ______ ____
ROOT
ATOM      1  N2  UNL     1       0.883  -0.527  -0.213  0.00  0.00    -0.307 N 
ATOM      2  C9  UNL     1       1.732  -1.555   0.322  0.00  0.00    +0.247 C 
ATOM      3  O2  UNL     1       1.234  -2.471   1.032  0.00  0.00    -0.270 OA
ATOM      4  H15 UNL     1       1.236   0.048  -1.011  0.00  0.00    +0.149 HD
ENDROOT
BRANCH   2   5
ATOM      5  C10 UNL     1       3.183  -1.574   0.030  0.00  0.00    +0.069 A 
ATOM      6  C11 UNL     1       3.916  -2.786   0.051  0.00  0.00    +0.035 A 
ATOM      7  C12 UNL     1       5.310  -2.782  -0.206  0.00  0.00    +0.114 A 
ATOM      8  N3  UNL     1       5.968  -1.612  -0.467  0.00  0.00    -0.235 NA
ATOM      9  C13 UNL     1       5.249  -0.464  -0.487  0.00  0.00    +0.179 A 
ATOM     10  C14 UNL     1       3.917  -0.416  -0.244  0.00  0.00    +0.144 A 
ATOM     11  N4  UNL     1       3.536   0.878  -0.243  0.00  0.00    -0.127 NA
ATOM     12  N5  UNL     1       4.639   1.585  -0.494  0.00  0.00    -0.063 NA
ATOM     13  N6  UNL     1       5.690   0.787  -0.658  0.00  0.00    -0.230 N 
ATOM     14  C15 UNL     1       7.063   1.236  -0.838  0.00  0.00    +0.176 C 
ENDBRANCH   2   5
BRANCH   1  21
ATOM     15  C4  UNL     1      -3.682   1.067  -1.120  0.00  0.00    +0.218 C 
ATOM     16  O1  UNL     1      -3.515   1.858  -2.088  0.00  0.00    -0.275 OA
ATOM     17  N1  UNL     1      -2.606   0.857  -0.191  0.00  0.00    -0.300 N 
ATOM     18  C5  UNL     1      -2.704   1.398   1.169  0.00  0.00    +0.108 C 
ATOM     19  C6  UNL     1      -1.932   0.512   2.150  0.00  0.00    +0.021 C 
ATOM     20  C7  UNL     1      -0.498   0.275   1.663  0.00  0.00    +0.025 C 
ATOM     21  C8  UNL     1      -0.495  -0.336   0.251  0.00  0.00    +0.091 C 
ATOM     22  C16 UNL     1      -1.268   0.572  -0.720  0.00  0.00    +0.130 C 
BRANCH  15  24
ATOM     23  C1  UNL     1      -6.090   1.258  -0.438  0.00  0.00    +0.017 C 
ATOM     24  C2  UNL     1      -5.000   0.336  -0.994  0.00  0.00    +0.069 C 
ATOM     25  C3  UNL     1      -4.883  -0.948  -0.163  0.00  0.00    +0.017 C 
ENDBRANCH  15  24
ENDBRANCH   1  21
TORSDOF 3
