REMARK  Name = /home/qwerty/github/datacon2025hack/step_04_hit_selection/docking/ligands/lig_337.pdb
REMARK  9 active torsions:
REMARK  status: ('A' for Active; 'I' for Inactive)
REMARK    1  A    between atoms: C1_1  and  O1_2
REMARK    2  A    between atoms: O1_2  and  C2_3
REMARK    3  A    between atoms: C2_3  and  C3_5
REMARK    4  A    between atoms: C6_8  and  N1_9
REMARK    5  A    between atoms: N2_12  and  C8_13
REMARK    6  A    between atoms: C8_13  and  C9_14
REMARK    7  A    between atoms: C8_13  and  C10_15
REMARK    8  A    between atoms: C13_18  and  N3_19
REMARK    9  A    between atoms: C17_23  and  C18_24
REMARK                            x       y       z     vdW  Elec       q    Type
REMARK                         _______ _______ _______ _____ _____    ______ ____
ROOT
ATOM      1  N1  UNL     1       3.198   1.755   0.234  0.00  0.00    -0.269 N 
ATOM      2  C7  UNL     1       2.198   2.016  -0.763  0.00  0.00    +0.304 C 
ATOM      3  O3  UNL     1       2.182   1.363  -1.843  0.00  0.00    -0.252 OA
ATOM      4  N2  UNL     1       1.238   3.059  -0.546  0.00  0.00    -0.293 N 
ATOM      5  H6  UNL     1       3.293   2.445   1.013  0.00  0.00    +0.156 HD
ATOM      6  H7  UNL     1       1.325   3.640   0.319  0.00  0.00    +0.151 HD
ENDROOT
BRANCH   1  10
ATOM      7  C3  UNL     1       6.108  -1.352   0.055  0.00  0.00    +0.059 A 
ATOM      8  C4  UNL     1       4.816  -1.566  -0.457  0.00  0.00    +0.017 A 
ATOM      9  C5  UNL     1       3.852  -0.555  -0.401  0.00  0.00    +0.024 A 
ATOM     10  C6  UNL     1       4.169   0.698   0.153  0.00  0.00    +0.035 A 
ATOM     11  C22 UNL     1       5.448   0.901   0.692  0.00  0.00    +0.024 A 
ATOM     12  C23 UNL     1       6.411  -0.110   0.638  0.00  0.00    +0.017 A 
BRANCH   7  13
ATOM     13  C2  UNL     1       7.134  -2.414  -0.012  0.00  0.00    +0.339 C 
ATOM     14  O2  UNL     1       6.871  -3.516  -0.568  0.00  0.00    -0.245 OA
BRANCH  13  16
ATOM     15  C1  UNL     1       9.442  -3.161   0.488  0.00  0.00    +0.280 C 
ATOM     16  O1  UNL     1       8.400  -2.194   0.542  0.00  0.00    -0.464 OA
ENDBRANCH  13  16
ENDBRANCH   7  13
ENDBRANCH   1  10
BRANCH   4  17
ATOM     17  C8  UNL     1       0.066   3.230  -1.409  0.00  0.00    +0.102 C 
ATOM     18  C9  UNL     1      -0.533   4.628  -1.230  0.00  0.00    +0.033 C 
BRANCH  17  19
ATOM     19  C10 UNL     1      -0.969   2.171  -1.097  0.00  0.00    -0.027 A 
ATOM     20  C11 UNL     1      -1.374   1.934   0.228  0.00  0.00    +0.007 A 
ATOM     21  C12 UNL     1      -2.344   0.971   0.510  0.00  0.00    +0.023 A 
ATOM     22  C13 UNL     1      -2.937   0.230  -0.526  0.00  0.00    +0.030 A 
ATOM     23  C20 UNL     1      -2.533   0.467  -1.851  0.00  0.00    +0.023 A 
ATOM     24  C21 UNL     1      -1.561   1.431  -2.134  0.00  0.00    +0.007 A 
BRANCH  22  25
ATOM     25  N3  UNL     1      -3.945  -0.756  -0.236  0.00  0.00    -0.330 N 
ATOM     26  C14 UNL     1      -3.750  -1.688   0.888  0.00  0.00    +0.105 C 
ATOM     27  C15 UNL     1      -4.714  -2.875   0.803  0.00  0.00    +0.019 C 
ATOM     28  C16 UNL     1      -6.176  -2.410   0.689  0.00  0.00    +0.006 C 
ATOM     29  C17 UNL     1      -6.380  -1.187  -0.253  0.00  0.00    +0.003 C 
ATOM     30  C18 UNL     1      -6.797   0.061   0.542  0.00  0.00    +0.009 C 
ATOM     31  C19 UNL     1      -5.127  -0.890  -1.100  0.00  0.00    +0.108 C 
ENDBRANCH  22  25
ENDBRANCH  17  19
ENDBRANCH   4  17
TORSDOF 6
