MODEL 1
REMARK VINA RESULT:    -6.348      0.000      0.000
REMARK INTER + INTRA:          -9.394
REMARK INTER:                  -8.204
REMARK INTRA:                  -1.190
REMARK UNBOUND:                -1.190
REMARK  Name = /home/qwerty/github/datacon2025hack/step_04_hit_selection/docking/ligands/lig_474.pdb
REMARK  7 active torsions:
REMARK  status: ('A' for Active; 'I' for Inactive)
REMARK    1  A    between atoms: C1_1  and  C2_2
REMARK    2  A    between atoms: C4_4  and  C5_5
REMARK    3  A    between atoms: N1_6  and  C6_7
REMARK    4  A    between atoms: C6_7  and  C7_8
REMARK    5  A    between atoms: C7_8  and  C8_9
REMARK    6  A    between atoms: N2_11  and  C9_12
REMARK    7  A    between atoms: C14_19  and  N3_20
REMARK                            x       y       z     vdW  Elec       q    Type
REMARK                         _______ _______ _______ _____ _____    ______ ____
ROOT
ATOM      1  C9  UNL     1      22.552   6.683  32.598  0.00  0.00    +0.058 A 
ATOM      2  C10 UNL     1      22.951   7.115  31.319  0.00  0.00    +0.066 A 
ATOM      3  C11 UNL     1      23.589   8.347  31.156  0.00  0.00    +0.160 A 
ATOM      4  F1  UNL     1      23.972   8.751  29.920  0.00  0.00    -0.202 F 
ATOM      5  C12 UNL     1      23.846   9.155  32.267  0.00  0.00    +0.160 A 
ATOM      6  F2  UNL     1      24.469  10.349  32.109  0.00  0.00    -0.202 F 
ATOM      7  C13 UNL     1      23.466   8.731  33.542  0.00  0.00    +0.066 A 
ATOM      8  C14 UNL     1      22.819   7.500  33.716  0.00  0.00    +0.054 A 
ENDROOT
BRANCH   8   9
ATOM      9  N3  UNL     1      22.413   7.097  35.032  0.00  0.00    -0.328 N 
ATOM     10  C15 UNL     1      21.121   7.554  35.561  0.00  0.00    +0.105 C 
ATOM     11  C16 UNL     1      20.766   6.821  36.859  0.00  0.00    +0.019 C 
ATOM     12  C17 UNL     1      21.907   6.907  37.886  0.00  0.00    +0.003 C 
ATOM     13  C18 UNL     1      23.316   6.706  37.280  0.00  0.00    +0.019 C 
ATOM     14  C19 UNL     1      23.282   6.223  35.827  0.00  0.00    +0.105 C 
ENDBRANCH   8   9
BRANCH   1  17
ATOM     15  C8  UNL     1      20.532   5.169  32.696  0.00  0.00    +0.219 C 
ATOM     16  O1  UNL     1      19.740   6.127  32.487  0.00  0.00    -0.275 OA
ATOM     17  N2  UNL     1      21.947   5.393  32.777  0.00  0.00    -0.284 N 
ATOM     18  H12 UNL     1      22.547   4.608  33.118  0.00  0.00    +0.155 HD
BRANCH  15  19
ATOM     19  C7  UNL     1      19.977   3.801  32.951  0.00  0.00    +0.119 C 
BRANCH  19  20
ATOM     20  C6  UNL     1      21.110   2.802  33.196  0.00  0.00    +0.153 C 
BRANCH  20  26
ATOM     21  C1  UNL     1      22.869   1.469  28.794  0.00  0.00    +0.067 C 
ATOM     22  C2  UNL     1      22.107   1.408  30.075  0.00  0.00    +0.060 A 
ATOM     23  C3  UNL     1      21.158   0.459  30.406  0.00  0.00    +0.047 A 
ATOM     24  C4  UNL     1      20.689   0.868  31.637  0.00  0.00    +0.036 A 
ATOM     25  C5  UNL     1      19.635   0.177  32.445  0.00  0.00    +0.065 C 
ATOM     26  N1  UNL     1      21.338   1.997  31.998  0.00  0.00    -0.268 N 
ATOM     27  N4  UNL     1      22.188   2.342  31.043  0.00  0.00    -0.176 NA
ENDBRANCH  20  26
ENDBRANCH  19  20
ENDBRANCH  15  19
ENDBRANCH   1  17
TORSDOF 5
ENDMDL
MODEL 2
REMARK VINA RESULT:    -6.268     15.524     16.726
REMARK INTER + INTRA:          -9.290
REMARK INTER:                  -7.972
REMARK INTRA:                  -1.318
REMARK UNBOUND:                -1.190
REMARK  Name = /home/qwerty/github/datacon2025hack/step_04_hit_selection/docking/ligands/lig_474.pdb
REMARK  7 active torsions:
REMARK  status: ('A' for Active; 'I' for Inactive)
REMARK    1  A    between atoms: C1_1  and  C2_2
REMARK    2  A    between atoms: C4_4  and  C5_5
REMARK    3  A    between atoms: N1_6  and  C6_7
REMARK    4  A    between atoms: C6_7  and  C7_8
REMARK    5  A    between atoms: C7_8  and  C8_9
REMARK    6  A    between atoms: N2_11  and  C9_12
REMARK    7  A    between atoms: C14_19  and  N3_20
REMARK                            x       y       z     vdW  Elec       q    Type
REMARK                         _______ _______ _______ _____ _____    ______ ____
ROOT
ATOM      1  C9  UNL     1      10.565   7.806  20.451  0.00  0.00    +0.058 A 
ATOM      2  C10 UNL     1      10.950   9.025  19.865  0.00  0.00    +0.066 A 
ATOM      3  C11 UNL     1      10.197  10.182  20.079  0.00  0.00    +0.160 A 
ATOM      4  F1  UNL     1      10.581  11.352  19.512  0.00  0.00    -0.202 F 
ATOM      5  C12 UNL     1       9.058  10.136  20.886  0.00  0.00    +0.160 A 
ATOM      6  F2  UNL     1       8.328  11.260  21.096  0.00  0.00    -0.202 F 
ATOM      7  C13 UNL     1       8.672   8.934  21.483  0.00  0.00    +0.066 A 
ATOM      8  C14 UNL     1       9.417   7.767  21.270  0.00  0.00    +0.054 A 
ENDROOT
BRANCH   8   9
ATOM      9  N3  UNL     1       8.987   6.536  21.871  0.00  0.00    -0.328 N 
ATOM     10  C15 UNL     1       8.032   5.679  21.156  0.00  0.00    +0.105 C 
ATOM     11  C16 UNL     1       7.896   4.315  21.841  0.00  0.00    +0.019 C 
ATOM     12  C17 UNL     1       7.576   4.464  23.338  0.00  0.00    +0.003 C 
ATOM     13  C18 UNL     1       8.386   5.574  24.047  0.00  0.00    +0.019 C 
ATOM     14  C19 UNL     1       9.515   6.142  23.180  0.00  0.00    +0.105 C 
ENDBRANCH   8   9
BRANCH   1  17
ATOM     15  C8  UNL     1      12.556   6.367  21.043  0.00  0.00    +0.219 C 
ATOM     16  O1  UNL     1      12.968   7.199  21.895  0.00  0.00    -0.275 OA
ATOM     17  N2  UNL     1      11.368   6.627  20.281  0.00  0.00    -0.284 N 
ATOM     18  H12 UNL     1      11.158   5.998  19.473  0.00  0.00    +0.155 HD
BRANCH  15  19
ATOM     19  C7  UNL     1      13.367   5.138  20.763  0.00  0.00    +0.119 C 
BRANCH  19  20
ATOM     20  C6  UNL     1      12.540   4.119  19.977  0.00  0.00    +0.153 C 
BRANCH  20  26
ATOM     21  C1  UNL     1      10.107   1.325  23.221  0.00  0.00    +0.067 C 
ATOM     22  C2  UNL     1      11.149   1.749  22.241  0.00  0.00    +0.060 A 
ATOM     23  C3  UNL     1      12.332   1.084  21.981  0.00  0.00    +0.047 A 
ATOM     24  C4  UNL     1      12.983   1.897  21.077  0.00  0.00    +0.036 A 
ATOM     25  C5  UNL     1      14.324   1.628  20.467  0.00  0.00    +0.065 C 
ATOM     26  N1  UNL     1      12.210   2.976  20.826  0.00  0.00    -0.268 N 
ATOM     27  N4  UNL     1      11.102   2.903  21.546  0.00  0.00    -0.176 NA
ENDBRANCH  20  26
ENDBRANCH  19  20
ENDBRANCH  15  19
ENDBRANCH   1  17
TORSDOF 5
ENDMDL
MODEL 3
REMARK VINA RESULT:    -6.119     15.655     16.773
REMARK INTER + INTRA:          -9.097
REMARK INTER:                  -7.981
REMARK INTRA:                  -1.117
REMARK UNBOUND:                -1.190
REMARK  Name = /home/qwerty/github/datacon2025hack/step_04_hit_selection/docking/ligands/lig_474.pdb
REMARK  7 active torsions:
REMARK  status: ('A' for Active; 'I' for Inactive)
REMARK    1  A    between atoms: C1_1  and  C2_2
REMARK    2  A    between atoms: C4_4  and  C5_5
REMARK    3  A    between atoms: N1_6  and  C6_7
REMARK    4  A    between atoms: C6_7  and  C7_8
REMARK    5  A    between atoms: C7_8  and  C8_9
REMARK    6  A    between atoms: N2_11  and  C9_12
REMARK    7  A    between atoms: C14_19  and  N3_20
REMARK                            x       y       z     vdW  Elec       q    Type
REMARK                         _______ _______ _______ _____ _____    ______ ____
ROOT
ATOM      1  C9  UNL     1       9.916   7.959  20.467  0.00  0.00    +0.058 A 
ATOM      2  C10 UNL     1      10.315   9.162  19.856  0.00  0.00    +0.066 A 
ATOM      3  C11 UNL     1       9.711  10.371  20.211  0.00  0.00    +0.160 A 
ATOM      4  F1  UNL     1      10.106  11.523  19.618  0.00  0.00    -0.202 F 
ATOM      5  C12 UNL     1       8.711  10.393  21.187  0.00  0.00    +0.160 A 
ATOM      6  F2  UNL     1       8.127  11.567  21.535  0.00  0.00    -0.202 F 
ATOM      7  C13 UNL     1       8.315   9.207  21.810  0.00  0.00    +0.066 A 
ATOM      8  C14 UNL     1       8.910   7.989  21.456  0.00  0.00    +0.054 A 
ENDROOT
BRANCH   8   9
ATOM      9  N3  UNL     1       8.469   6.778  22.088  0.00  0.00    -0.328 N 
ATOM     10  C15 UNL     1       9.015   6.409  23.401  0.00  0.00    +0.105 C 
ATOM     11  C16 UNL     1       8.244   5.233  24.008  0.00  0.00    +0.019 C 
ATOM     12  C17 UNL     1       8.159   4.048  23.031  0.00  0.00    +0.003 C 
ATOM     13  C18 UNL     1       7.862   4.458  21.570  0.00  0.00    +0.019 C 
ATOM     14  C19 UNL     1       7.471   5.933  21.427  0.00  0.00    +0.105 C 
ENDBRANCH   8   9
BRANCH   1  17
ATOM     15  C8  UNL     1      11.816   6.316  20.736  0.00  0.00    +0.219 C 
ATOM     16  O1  UNL     1      12.411   7.060  21.561  0.00  0.00    -0.275 OA
ATOM     17  N2  UNL     1      10.573   6.723  20.146  0.00  0.00    -0.284 N 
ATOM     18  H12 UNL     1      10.204   6.160  19.347  0.00  0.00    +0.155 HD
BRANCH  15  19
ATOM     19  C7  UNL     1      12.463   5.035  20.303  0.00  0.00    +0.119 C 
BRANCH  19  20
ATOM     20  C6  UNL     1      11.654   3.834  20.797  0.00  0.00    +0.153 C 
BRANCH  20  26
ATOM     21  C1  UNL     1      15.347   0.673  20.010  0.00  0.00    +0.067 C 
ATOM     22  C2  UNL     1      14.143   1.294  20.637  0.00  0.00    +0.060 A 
ATOM     23  C3  UNL     1      13.359   0.722  21.621  0.00  0.00    +0.047 A 
ATOM     24  C4  UNL     1      12.339   1.631  21.808  0.00  0.00    +0.036 A 
ATOM     25  C5  UNL     1      11.207   1.488  22.777  0.00  0.00    +0.065 C 
ATOM     26  N1  UNL     1      12.529   2.677  20.974  0.00  0.00    -0.268 N 
ATOM     27  N4  UNL     1      13.613   2.469  20.244  0.00  0.00    -0.176 NA
ENDBRANCH  20  26
ENDBRANCH  19  20
ENDBRANCH  15  19
ENDBRANCH   1  17
TORSDOF 5
ENDMDL
MODEL 4
REMARK VINA RESULT:    -5.897      3.382      7.345
REMARK INTER + INTRA:          -8.810
REMARK INTER:                  -7.652
REMARK INTRA:                  -1.158
REMARK UNBOUND:                -1.190
REMARK  Name = /home/qwerty/github/datacon2025hack/step_04_hit_selection/docking/ligands/lig_474.pdb
REMARK  7 active torsions:
REMARK  status: ('A' for Active; 'I' for Inactive)
REMARK    1  A    between atoms: C1_1  and  C2_2
REMARK    2  A    between atoms: C4_4  and  C5_5
REMARK    3  A    between atoms: N1_6  and  C6_7
REMARK    4  A    between atoms: C6_7  and  C7_8
REMARK    5  A    between atoms: C7_8  and  C8_9
REMARK    6  A    between atoms: N2_11  and  C9_12
REMARK    7  A    between atoms: C14_19  and  N3_20
REMARK                            x       y       z     vdW  Elec       q    Type
REMARK                         _______ _______ _______ _____ _____    ______ ____
ROOT
ATOM      1  C9  UNL     1      21.615   5.552  34.212  0.00  0.00    +0.058 A 
ATOM      2  C10 UNL     1      21.157   4.226  34.320  0.00  0.00    +0.066 A 
ATOM      3  C11 UNL     1      21.563   3.260  33.396  0.00  0.00    +0.160 A 
ATOM      4  F1  UNL     1      21.118   1.985  33.512  0.00  0.00    -0.202 F 
ATOM      5  C12 UNL     1      22.436   3.604  32.361  0.00  0.00    +0.160 A 
ATOM      6  F2  UNL     1      22.832   2.666  31.466  0.00  0.00    -0.202 F 
ATOM      7  C13 UNL     1      22.907   4.914  32.251  0.00  0.00    +0.066 A 
ATOM      8  C14 UNL     1      22.502   5.892  33.169  0.00  0.00    +0.054 A 
ENDROOT
BRANCH   8   9
ATOM      9  N3  UNL     1      22.976   7.239  33.021  0.00  0.00    -0.328 N 
ATOM     10  C15 UNL     1      22.154   8.219  32.299  0.00  0.00    +0.105 C 
ATOM     11  C16 UNL     1      22.711   9.636  32.467  0.00  0.00    +0.019 C 
ATOM     12  C17 UNL     1      24.202   9.704  32.096  0.00  0.00    +0.003 C 
ATOM     13  C18 UNL     1      25.035   8.511  32.618  0.00  0.00    +0.019 C 
ATOM     14  C19 UNL     1      24.265   7.625  33.603  0.00  0.00    +0.105 C 
ENDBRANCH   8   9
BRANCH   1  17
ATOM     15  C8  UNL     1      22.022   6.801  36.370  0.00  0.00    +0.219 C 
ATOM     16  O1  UNL     1      23.072   6.146  36.611  0.00  0.00    -0.275 OA
ATOM     17  N2  UNL     1      21.246   6.534  35.193  0.00  0.00    -0.284 N 
ATOM     18  H12 UNL     1      20.303   6.976  35.119  0.00  0.00    +0.155 HD
BRANCH  15  19
ATOM     19  C7  UNL     1      21.537   7.805  37.372  0.00  0.00    +0.119 C 
BRANCH  19  20
ATOM     20  C6  UNL     1      20.026   8.001  37.243  0.00  0.00    +0.153 C 
BRANCH  20  26
ATOM     21  C1  UNL     1      20.508  12.438  35.163  0.00  0.00    +0.067 C 
ATOM     22  C2  UNL     1      19.931  11.325  35.972  0.00  0.00    +0.060 A 
ATOM     23  C3  UNL     1      18.856  11.427  36.836  0.00  0.00    +0.047 A 
ATOM     24  C4  UNL     1      18.758  10.172  37.399  0.00  0.00    +0.036 A 
ATOM     25  C5  UNL     1      17.743   9.746  38.414  0.00  0.00    +0.065 C 
ATOM     26  N1  UNL     1      19.726   9.385  36.881  0.00  0.00    -0.268 N 
ATOM     27  N4  UNL     1      20.457  10.085  36.028  0.00  0.00    -0.176 NA
ENDBRANCH  20  26
ENDBRANCH  19  20
ENDBRANCH  15  19
ENDBRANCH   1  17
TORSDOF 5
ENDMDL
MODEL 5
REMARK VINA RESULT:    -5.833     15.038     16.677
REMARK INTER + INTRA:          -8.728
REMARK INTER:                  -7.656
REMARK INTRA:                  -1.072
REMARK UNBOUND:                -1.190
REMARK  Name = /home/qwerty/github/datacon2025hack/step_04_hit_selection/docking/ligands/lig_474.pdb
REMARK  7 active torsions:
REMARK  status: ('A' for Active; 'I' for Inactive)
REMARK    1  A    between atoms: C1_1  and  C2_2
REMARK    2  A    between atoms: C4_4  and  C5_5
REMARK    3  A    between atoms: N1_6  and  C6_7
REMARK    4  A    between atoms: C6_7  and  C7_8
REMARK    5  A    between atoms: C7_8  and  C8_9
REMARK    6  A    between atoms: N2_11  and  C9_12
REMARK    7  A    between atoms: C14_19  and  N3_20
REMARK                            x       y       z     vdW  Elec       q    Type
REMARK                         _______ _______ _______ _____ _____    ______ ____
ROOT
ATOM      1  C9  UNL     1       9.918   7.695  20.504  0.00  0.00    +0.058 A 
ATOM      2  C10 UNL     1      10.429   8.857  19.897  0.00  0.00    +0.066 A 
ATOM      3  C11 UNL     1       9.955  10.117  20.270  0.00  0.00    +0.160 A 
ATOM      4  F1  UNL     1      10.458  11.229  19.682  0.00  0.00    -0.202 F 
ATOM      5  C12 UNL     1       8.974  10.231  21.259  0.00  0.00    +0.160 A 
ATOM      6  F2  UNL     1       8.517  11.455  21.624  0.00  0.00    -0.202 F 
ATOM      7  C13 UNL     1       8.468   9.086  21.876  0.00  0.00    +0.066 A 
ATOM      8  C14 UNL     1       8.932   7.817  21.505  0.00  0.00    +0.054 A 
ENDROOT
BRANCH   8   9
ATOM      9  N3  UNL     1       8.378   6.652  22.134  0.00  0.00    -0.328 N 
ATOM     10  C15 UNL     1       8.867   6.243  23.457  0.00  0.00    +0.105 C 
ATOM     11  C16 UNL     1       7.987   5.140  24.054  0.00  0.00    +0.019 C 
ATOM     12  C17 UNL     1       7.819   3.962  23.079  0.00  0.00    +0.003 C 
ATOM     13  C18 UNL     1       7.583   4.389  21.612  0.00  0.00    +0.019 C 
ATOM     14  C19 UNL     1       7.323   5.891  21.457  0.00  0.00    +0.105 C 
ENDBRANCH   8   9
BRANCH   1  17
ATOM     15  C8  UNL     1      11.554   5.800  20.843  0.00  0.00    +0.219 C 
ATOM     16  O1  UNL     1      12.148   6.412  21.772  0.00  0.00    -0.275 OA
ATOM     17  N2  UNL     1      10.443   6.402  20.164  0.00  0.00    -0.284 N 
ATOM     18  H12 UNL     1      10.091   5.938  19.296  0.00  0.00    +0.155 HD
BRANCH  15  19
ATOM     19  C7  UNL     1      12.075   4.470  20.389  0.00  0.00    +0.119 C 
BRANCH  19  20
ATOM     20  C6  UNL     1      13.147   3.958  21.352  0.00  0.00    +0.153 C 
BRANCH  20  26
ATOM     21  C1  UNL     1      17.285   5.636  19.276  0.00  0.00    +0.067 C 
ATOM     22  C2  UNL     1      16.264   4.677  19.788  0.00  0.00    +0.060 A 
ATOM     23  C3  UNL     1      16.265   3.309  19.583  0.00  0.00    +0.047 A 
ATOM     24  C4  UNL     1      15.094   2.880  20.172  0.00  0.00    +0.036 A 
ATOM     25  C5  UNL     1      14.612   1.464  20.230  0.00  0.00    +0.065 C 
ATOM     26  N1  UNL     1      14.452   3.948  20.694  0.00  0.00    -0.268 N 
ATOM     27  N4  UNL     1      15.147   5.047  20.446  0.00  0.00    -0.176 NA
ENDBRANCH  20  26
ENDBRANCH  19  20
ENDBRANCH  15  19
ENDBRANCH   1  17
TORSDOF 5
ENDMDL
MODEL 6
REMARK VINA RESULT:    -5.741     15.365     16.651
REMARK INTER + INTRA:          -8.609
REMARK INTER:                  -6.992
REMARK INTRA:                  -1.617
REMARK UNBOUND:                -1.190
REMARK  Name = /home/qwerty/github/datacon2025hack/step_04_hit_selection/docking/ligands/lig_474.pdb
REMARK  7 active torsions:
REMARK  status: ('A' for Active; 'I' for Inactive)
REMARK    1  A    between atoms: C1_1  and  C2_2
REMARK    2  A    between atoms: C4_4  and  C5_5
REMARK    3  A    between atoms: N1_6  and  C6_7
REMARK    4  A    between atoms: C6_7  and  C7_8
REMARK    5  A    between atoms: C7_8  and  C8_9
REMARK    6  A    between atoms: N2_11  and  C9_12
REMARK    7  A    between atoms: C14_19  and  N3_20
REMARK                            x       y       z     vdW  Elec       q    Type
REMARK                         _______ _______ _______ _____ _____    ______ ____
ROOT
ATOM      1  C9  UNL     1       7.911   8.659  26.950  0.00  0.00    +0.058 A 
ATOM      2  C10 UNL     1       7.572   8.568  28.312  0.00  0.00    +0.066 A 
ATOM      3  C11 UNL     1       7.551   9.713  29.114  0.00  0.00    +0.160 A 
ATOM      4  F1  UNL     1       7.219   9.614  30.424  0.00  0.00    -0.202 F 
ATOM      5  C12 UNL     1       7.859  10.959  28.562  0.00  0.00    +0.160 A 
ATOM      6  F2  UNL     1       7.835  12.070  29.339  0.00  0.00    -0.202 F 
ATOM      7  C13 UNL     1       8.185  11.063  27.208  0.00  0.00    +0.066 A 
ATOM      8  C14 UNL     1       8.215   9.921  26.397  0.00  0.00    +0.054 A 
ENDROOT
BRANCH   8   9
ATOM      9  N3  UNL     1       8.579  10.046  25.015  0.00  0.00    -0.328 N 
ATOM     10  C15 UNL     1       7.526  10.132  23.994  0.00  0.00    +0.105 C 
ATOM     11  C16 UNL     1       8.110  10.508  22.629  0.00  0.00    +0.019 C 
ATOM     12  C17 UNL     1       9.265   9.573  22.231  0.00  0.00    +0.003 C 
ATOM     13  C18 UNL     1      10.234   9.244  23.390  0.00  0.00    +0.019 C 
ATOM     14  C19 UNL     1       9.995  10.101  24.637  0.00  0.00    +0.105 C 
ENDBRANCH   8   9
BRANCH   1  17
ATOM     15  C8  UNL     1       9.004   6.622  25.928  0.00  0.00    +0.219 C 
ATOM     16  O1  UNL     1      10.104   6.867  26.491  0.00  0.00    -0.275 OA
ATOM     17  N2  UNL     1       7.878   7.494  26.110  0.00  0.00    -0.284 N 
ATOM     18  H12 UNL     1       7.045   7.350  25.496  0.00  0.00    +0.155 HD
BRANCH  15  19
ATOM     19  C7  UNL     1       8.902   5.459  24.990  0.00  0.00    +0.119 C 
BRANCH  19  20
ATOM     20  C6  UNL     1       9.920   5.595  23.856  0.00  0.00    +0.153 C 
BRANCH  20  26
ATOM     21  C1  UNL     1       6.256   6.291  20.641  0.00  0.00    +0.067 C 
ATOM     22  C2  UNL     1       7.640   6.215  21.193  0.00  0.00    +0.060 A 
ATOM     23  C3  UNL     1       8.808   6.300  20.459  0.00  0.00    +0.047 A 
ATOM     24  C4  UNL     1       9.806   6.096  21.391  0.00  0.00    +0.036 A 
ATOM     25  C5  UNL     1      11.276   6.089  21.110  0.00  0.00    +0.065 C 
ATOM     26  N1  UNL     1       9.238   5.906  22.602  0.00  0.00    -0.268 N 
ATOM     27  N4  UNL     1       7.921   5.957  22.486  0.00  0.00    -0.176 NA
ENDBRANCH  20  26
ENDBRANCH  19  20
ENDBRANCH  15  19
ENDBRANCH   1  17
TORSDOF 5
ENDMDL
MODEL 7
REMARK VINA RESULT:    -5.720      3.600      7.405
REMARK INTER + INTRA:          -8.581
REMARK INTER:                  -7.576
REMARK INTRA:                  -1.006
REMARK UNBOUND:                -1.190
REMARK  Name = /home/qwerty/github/datacon2025hack/step_04_hit_selection/docking/ligands/lig_474.pdb
REMARK  7 active torsions:
REMARK  status: ('A' for Active; 'I' for Inactive)
REMARK    1  A    between atoms: C1_1  and  C2_2
REMARK    2  A    between atoms: C4_4  and  C5_5
REMARK    3  A    between atoms: N1_6  and  C6_7
REMARK    4  A    between atoms: C6_7  and  C7_8
REMARK    5  A    between atoms: C7_8  and  C8_9
REMARK    6  A    between atoms: N2_11  and  C9_12
REMARK    7  A    between atoms: C14_19  and  N3_20
REMARK                            x       y       z     vdW  Elec       q    Type
REMARK                         _______ _______ _______ _____ _____    ______ ____
ROOT
ATOM      1  C9  UNL     1      21.490   2.882  28.831  0.00  0.00    +0.058 A 
ATOM      2  C10 UNL     1      22.099   3.294  27.632  0.00  0.00    +0.066 A 
ATOM      3  C11 UNL     1      21.811   2.639  26.431  0.00  0.00    +0.160 A 
ATOM      4  F1  UNL     1      22.402   3.048  25.282  0.00  0.00    -0.202 F 
ATOM      5  C12 UNL     1      20.907   1.575  26.414  0.00  0.00    +0.160 A 
ATOM      6  F2  UNL     1      20.625   0.942  25.248  0.00  0.00    -0.202 F 
ATOM      7  C13 UNL     1      20.287   1.165  27.596  0.00  0.00    +0.066 A 
ATOM      8  C14 UNL     1      20.572   1.811  28.807  0.00  0.00    +0.054 A 
ENDROOT
BRANCH   8   9
ATOM      9  N3  UNL     1      19.945   1.356  30.014  0.00  0.00    -0.328 N 
ATOM     10  C15 UNL     1      18.645   1.915  30.408  0.00  0.00    +0.105 C 
ATOM     11  C16 UNL     1      18.038   1.130  31.575  0.00  0.00    +0.019 C 
ATOM     12  C17 UNL     1      19.025   1.005  32.747  0.00  0.00    +0.003 C 
ATOM     13  C18 UNL     1      20.477   0.692  32.316  0.00  0.00    +0.019 C 
ATOM     14  C19 UNL     1      20.599   0.330  30.833  0.00  0.00    +0.105 C 
ENDBRANCH   8   9
BRANCH   1  17
ATOM     15  C8  UNL     1      21.004   4.755  30.457  0.00  0.00    +0.219 C 
ATOM     16  O1  UNL     1      20.107   5.235  29.714  0.00  0.00    -0.275 OA
ATOM     17  N2  UNL     1      21.739   3.589  30.057  0.00  0.00    -0.284 N 
ATOM     18  H12 UNL     1      22.581   3.326  30.617  0.00  0.00    +0.155 HD
BRANCH  15  19
ATOM     19  C7  UNL     1      21.365   5.465  31.726  0.00  0.00    +0.119 C 
BRANCH  19  20
ATOM     20  C6  UNL     1      22.852   5.284  32.035  0.00  0.00    +0.153 C 
BRANCH  20  26
ATOM     21  C1  UNL     1      23.860  10.030  31.192  0.00  0.00    +0.067 C 
ATOM     22  C2  UNL     1      23.948   8.663  31.782  0.00  0.00    +0.060 A 
ATOM     23  C3  UNL     1      24.951   8.205  32.616  0.00  0.00    +0.047 A 
ATOM     24  C4  UNL     1      24.637   6.878  32.823  0.00  0.00    +0.036 A 
ATOM     25  C5  UNL     1      25.416   5.916  33.665  0.00  0.00    +0.065 C 
ATOM     26  N1  UNL     1      23.505   6.587  32.144  0.00  0.00    -0.268 N 
ATOM     27  N4  UNL     1      23.092   7.662  31.492  0.00  0.00    -0.176 NA
ENDBRANCH  20  26
ENDBRANCH  19  20
ENDBRANCH  15  19
ENDBRANCH   1  17
TORSDOF 5
ENDMDL
MODEL 8
REMARK VINA RESULT:    -5.617     12.793     15.078
REMARK INTER + INTRA:          -8.449
REMARK INTER:                  -7.331
REMARK INTRA:                  -1.117
REMARK UNBOUND:                -1.190
REMARK  Name = /home/qwerty/github/datacon2025hack/step_04_hit_selection/docking/ligands/lig_474.pdb
REMARK  7 active torsions:
REMARK  status: ('A' for Active; 'I' for Inactive)
REMARK    1  A    between atoms: C1_1  and  C2_2
REMARK    2  A    between atoms: C4_4  and  C5_5
REMARK    3  A    between atoms: N1_6  and  C6_7
REMARK    4  A    between atoms: C6_7  and  C7_8
REMARK    5  A    between atoms: C7_8  and  C8_9
REMARK    6  A    between atoms: N2_11  and  C9_12
REMARK    7  A    between atoms: C14_19  and  N3_20
REMARK                            x       y       z     vdW  Elec       q    Type
REMARK                         _______ _______ _______ _____ _____    ______ ____
ROOT
ATOM      1  C9  UNL     1       9.637  12.712  29.452  0.00  0.00    +0.058 A 
ATOM      2  C10 UNL     1       8.462  12.006  29.770  0.00  0.00    +0.066 A 
ATOM      3  C11 UNL     1       7.958  11.041  28.893  0.00  0.00    +0.160 A 
ATOM      4  F1  UNL     1       6.828  10.364  29.211  0.00  0.00    -0.202 F 
ATOM      5  C12 UNL     1       8.626  10.765  27.697  0.00  0.00    +0.160 A 
ATOM      6  F2  UNL     1       8.139   9.826  26.849  0.00  0.00    -0.202 F 
ATOM      7  C13 UNL     1       9.800  11.451  27.377  0.00  0.00    +0.066 A 
ATOM      8  C14 UNL     1      10.310  12.425  28.246  0.00  0.00    +0.054 A 
ENDROOT
BRANCH   8   9
ATOM      9  N3  UNL     1      11.502  13.138  27.885  0.00  0.00    -0.328 N 
ATOM     10  C15 UNL     1      12.808  12.481  28.030  0.00  0.00    +0.105 C 
ATOM     11  C16 UNL     1      13.916  13.306  27.366  0.00  0.00    +0.019 C 
ATOM     12  C17 UNL     1      13.911  14.762  27.861  0.00  0.00    +0.003 C 
ATOM     13  C18 UNL     1      12.498  15.378  27.985  0.00  0.00    +0.019 C 
ATOM     14  C19 UNL     1      11.403  14.505  27.364  0.00  0.00    +0.105 C 
ENDBRANCH   8   9
BRANCH   1  17
ATOM     15  C8  UNL     1      11.156  13.318  31.378  0.00  0.00    +0.219 C 
ATOM     16  O1  UNL     1      11.549  12.128  31.509  0.00  0.00    -0.275 OA
ATOM     17  N2  UNL     1      10.189  13.664  30.376  0.00  0.00    -0.284 N 
ATOM     18  H12 UNL     1       9.767  14.619  30.413  0.00  0.00    +0.155 HD
BRANCH  15  19
ATOM     19  C7  UNL     1      11.640  14.361  32.339  0.00  0.00    +0.119 C 
BRANCH  19  20
ATOM     20  C6  UNL     1      10.955  14.196  33.697  0.00  0.00    +0.153 C 
BRANCH  20  26
ATOM     21  C1  UNL     1      14.820  14.296  36.747  0.00  0.00    +0.067 C 
ATOM     22  C2  UNL     1      13.610  13.792  36.035  0.00  0.00    +0.060 A 
ATOM     23  C3  UNL     1      13.134  12.495  36.071  0.00  0.00    +0.047 A 
ATOM     24  C4  UNL     1      12.060  12.507  35.204  0.00  0.00    +0.036 A 
ATOM     25  C5  UNL     1      11.185  11.336  34.879  0.00  0.00    +0.065 C 
ATOM     26  N1  UNL     1      11.923  13.752  34.698  0.00  0.00    -0.268 N 
ATOM     27  N4  UNL     1      12.875  14.534  35.183  0.00  0.00    -0.176 NA
ENDBRANCH  20  26
ENDBRANCH  19  20
ENDBRANCH  15  19
ENDBRANCH   1  17
TORSDOF 5
ENDMDL
MODEL 9
REMARK VINA RESULT:    -5.553      8.354     12.020
REMARK INTER + INTRA:          -8.366
REMARK INTER:                  -7.197
REMARK INTRA:                  -1.169
REMARK UNBOUND:                -1.190
REMARK  Name = /home/qwerty/github/datacon2025hack/step_04_hit_selection/docking/ligands/lig_474.pdb
REMARK  7 active torsions:
REMARK  status: ('A' for Active; 'I' for Inactive)
REMARK    1  A    between atoms: C1_1  and  C2_2
REMARK    2  A    between atoms: C4_4  and  C5_5
REMARK    3  A    between atoms: N1_6  and  C6_7
REMARK    4  A    between atoms: C6_7  and  C7_8
REMARK    5  A    between atoms: C7_8  and  C8_9
REMARK    6  A    between atoms: N2_11  and  C9_12
REMARK    7  A    between atoms: C14_19  and  N3_20
REMARK                            x       y       z     vdW  Elec       q    Type
REMARK                         _______ _______ _______ _____ _____    ______ ____
ROOT
ATOM      1  C9  UNL     1      16.407   2.126  22.727  0.00  0.00    +0.058 A 
ATOM      2  C10 UNL     1      16.515   2.832  21.515  0.00  0.00    +0.066 A 
ATOM      3  C11 UNL     1      16.074   2.257  20.320  0.00  0.00    +0.160 A 
ATOM      4  F1  UNL     1      16.180   2.949  19.159  0.00  0.00    -0.202 F 
ATOM      5  C12 UNL     1      15.513   0.978  20.324  0.00  0.00    +0.160 A 
ATOM      6  F2  UNL     1      15.082   0.422  19.164  0.00  0.00    -0.202 F 
ATOM      7  C13 UNL     1      15.390   0.272  21.523  0.00  0.00    +0.066 A 
ATOM      8  C14 UNL     1      15.834   0.837  22.726  0.00  0.00    +0.054 A 
ENDROOT
BRANCH   8   9
ATOM      9  N3  UNL     1      15.723   0.084  23.942  0.00  0.00    -0.328 N 
ATOM     10  C15 UNL     1      14.503   0.196  24.753  0.00  0.00    +0.105 C 
ATOM     11  C16 UNL     1      14.479  -0.861  25.862  0.00  0.00    +0.019 C 
ATOM     12  C17 UNL     1      15.768  -0.832  26.699  0.00  0.00    +0.003 C 
ATOM     13  C18 UNL     1      17.057  -0.662  25.862  0.00  0.00    +0.019 C 
ATOM     14  C19 UNL     1      16.819  -0.799  24.355  0.00  0.00    +0.105 C 
ENDBRANCH   8   9
BRANCH   1  17
ATOM     15  C8  UNL     1      18.149   2.685  24.470  0.00  0.00    +0.219 C 
ATOM     16  O1  UNL     1      19.048   2.063  23.844  0.00  0.00    -0.275 OA
ATOM     17  N2  UNL     1      16.806   2.735  23.965  0.00  0.00    -0.284 N 
ATOM     18  H12 UNL     1      16.062   3.112  24.594  0.00  0.00    +0.155 HD
BRANCH  15  19
ATOM     19  C7  UNL     1      18.469   3.299  25.799  0.00  0.00    +0.119 C 
BRANCH  19  20
ATOM     20  C6  UNL     1      19.833   3.991  25.753  0.00  0.00    +0.153 C 
BRANCH  20  26
ATOM     21  C1  UNL     1      21.677   0.897  29.110  0.00  0.00    +0.067 C 
ATOM     22  C2  UNL     1      21.625   1.866  27.977  0.00  0.00    +0.060 A 
ATOM     23  C3  UNL     1      22.716   2.472  27.381  0.00  0.00    +0.047 A 
ATOM     24  C4  UNL     1      22.159   3.330  26.456  0.00  0.00    +0.036 A 
ATOM     25  C5  UNL     1      22.918   4.233  25.533  0.00  0.00    +0.065 C 
ATOM     26  N1  UNL     1      20.814   3.221  26.514  0.00  0.00    -0.268 N 
ATOM     27  N4  UNL     1      20.481   2.348  27.451  0.00  0.00    -0.176 NA
ENDBRANCH  20  26
ENDBRANCH  19  20
ENDBRANCH  15  19
ENDBRANCH   1  17
TORSDOF 5
ENDMDL
