MODEL 1
REMARK VINA RESULT:    -6.399      0.000      0.000
REMARK INTER + INTRA:          -8.494
REMARK INTER:                  -7.709
REMARK INTRA:                  -0.786
REMARK UNBOUND:                -0.786
REMARK  Name = /home/qwerty/github/datacon2025hack/step_04_hit_selection/docking/ligands/lig_19.pdb
REMARK  5 active torsions:
REMARK  status: ('A' for Active; 'I' for Inactive)
REMARK    1  A    between atoms: C1_1  and  O1_2
REMARK    2  A    between atoms: O1_2  and  C2_3
REMARK    3  A    between atoms: C5_6  and  C6_7
REMARK    4  A    between atoms: C10_13  and  C11_14
REMARK    5  A    between atoms: C15_20  and  N3_21
REMARK                            x       y       z     vdW  Elec       q    Type
REMARK                         _______ _______ _______ _____ _____    ______ ____
ROOT
ATOM      1  C6  UNL     1      20.450   5.045  30.897  0.00  0.00    +0.247 C 
ATOM      2  O2  UNL     1      19.191   5.061  30.826  0.00  0.00    -0.270 OA
ATOM      3  N1  UNL     1      21.138   6.104  31.593  0.00  0.00    -0.297 N 
ATOM      4  C7  UNL     1      22.507   6.498  31.223  0.00  0.00    +0.108 C 
ATOM      5  C8  UNL     1      23.390   6.639  32.473  0.00  0.00    +0.020 C 
ATOM      6  C9  UNL     1      22.651   7.235  33.692  0.00  0.00    +0.016 C 
ATOM      7  C10 UNL     1      21.323   7.909  33.306  0.00  0.00    +0.092 C 
ATOM      8  C17 UNL     1      20.406   6.882  32.606  0.00  0.00    +0.120 C 
ENDROOT
BRANCH   1  12
ATOM      9  C2  UNL     1      22.518   1.583  29.378  0.00  0.00    +0.146 A 
ATOM     10  C3  UNL     1      22.188   1.706  30.738  0.00  0.00    +0.048 A 
ATOM     11  C4  UNL     1      21.527   2.840  31.207  0.00  0.00    +0.017 A 
ATOM     12  C5  UNL     1      21.185   3.887  30.338  0.00  0.00    +0.046 A 
ATOM     13  C18 UNL     1      21.521   3.785  28.965  0.00  0.00    +0.016 A 
ATOM     14  C19 UNL     1      21.251   4.812  28.039  0.00  0.00    +0.012 A 
ATOM     15  C20 UNL     1      21.602   4.660  26.698  0.00  0.00    +0.020 A 
ATOM     16  C21 UNL     1      22.234   3.491  26.280  0.00  0.00    +0.111 A 
ATOM     17  N4  UNL     1      22.514   2.512  27.178  0.00  0.00    -0.251 NA
ATOM     18  C22 UNL     1      22.186   2.621  28.495  0.00  0.00    +0.113 A 
BRANCH   9  20
ATOM     19  C1  UNL     1      22.631  -0.864  28.862  0.00  0.00    +0.277 C 
ATOM     20  O1  UNL     1      23.177   0.451  28.871  0.00  0.00    -0.493 OA
ENDBRANCH   9  20
ENDBRANCH   1  12
BRANCH   7  21
ATOM     21  C11 UNL     1      20.658   8.509  34.532  0.00  0.00    +0.220 C 
ATOM     22  O3  UNL     1      20.690   7.855  35.612  0.00  0.00    -0.275 OA
ATOM     23  N2  UNL     1      20.051   9.825  34.513  0.00  0.00    -0.300 N 
ATOM     24  C12 UNL     1      19.234  10.283  35.649  0.00  0.00    +0.108 C 
ATOM     25  C13 UNL     1      19.747  11.633  36.175  0.00  0.00    +0.020 C 
ATOM     26  C14 UNL     1      20.184  12.606  35.058  0.00  0.00    +0.021 C 
ATOM     27  C15 UNL     1      19.720  12.156  33.662  0.00  0.00    +0.068 C 
ATOM     28  C16 UNL     1      20.240  10.731  33.365  0.00  0.00    +0.126 C 
BRANCH  27  29
ATOM     29  N3  UNL     1      20.176  13.110  32.649  0.00  0.00    -0.326 NA
ATOM     30  H20 UNL     1      19.348  13.568  32.201  0.00  0.00    +0.119 HD
ATOM     31  H21 UNL     1      20.729  13.861  33.122  0.00  0.00    +0.119 HD
ENDBRANCH  27  29
ENDBRANCH   7  21
TORSDOF 4
ENDMDL
MODEL 2
REMARK VINA RESULT:    -6.380      4.612      8.178
REMARK INTER + INTRA:          -8.471
REMARK INTER:                  -7.747
REMARK INTRA:                  -0.723
REMARK UNBOUND:                -0.786
REMARK  Name = /home/qwerty/github/datacon2025hack/step_04_hit_selection/docking/ligands/lig_19.pdb
REMARK  5 active torsions:
REMARK  status: ('A' for Active; 'I' for Inactive)
REMARK    1  A    between atoms: C1_1  and  O1_2
REMARK    2  A    between atoms: O1_2  and  C2_3
REMARK    3  A    between atoms: C5_6  and  C6_7
REMARK    4  A    between atoms: C10_13  and  C11_14
REMARK    5  A    between atoms: C15_20  and  N3_21
REMARK                            x       y       z     vdW  Elec       q    Type
REMARK                         _______ _______ _______ _____ _____    ______ ____
ROOT
ATOM      1  C6  UNL     1      20.038  10.816  35.648  0.00  0.00    +0.247 C 
ATOM      2  O2  UNL     1      20.468  11.844  36.238  0.00  0.00    -0.270 OA
ATOM      3  N1  UNL     1      18.618  10.569  35.589  0.00  0.00    -0.297 N 
ATOM      4  C7  UNL     1      18.085   9.200  35.496  0.00  0.00    +0.108 C 
ATOM      5  C8  UNL     1      16.998   9.111  34.412  0.00  0.00    +0.020 C 
ATOM      6  C9  UNL     1      16.099  10.365  34.329  0.00  0.00    +0.016 C 
ATOM      7  C10 UNL     1      16.221  11.263  35.572  0.00  0.00    +0.092 C 
ATOM      8  C17 UNL     1      17.692  11.701  35.751  0.00  0.00    +0.120 C 
ENDROOT
BRANCH   1  12
ATOM      9  C2  UNL     1      22.890   8.375  33.531  0.00  0.00    +0.146 A 
ATOM     10  C3  UNL     1      22.245   9.459  32.912  0.00  0.00    +0.048 A 
ATOM     11  C4  UNL     1      21.319  10.227  33.615  0.00  0.00    +0.017 A 
ATOM     12  C5  UNL     1      21.003   9.934  34.950  0.00  0.00    +0.046 A 
ATOM     13  C18 UNL     1      21.635   8.838  35.587  0.00  0.00    +0.016 A 
ATOM     14  C19 UNL     1      21.338   8.454  36.909  0.00  0.00    +0.012 A 
ATOM     15  C20 UNL     1      21.990   7.366  37.490  0.00  0.00    +0.020 A 
ATOM     16  C21 UNL     1      22.929   6.652  36.749  0.00  0.00    +0.111 A 
ATOM     17  N4  UNL     1      23.198   7.010  35.467  0.00  0.00    -0.251 NA
ATOM     18  C22 UNL     1      22.584   8.066  34.866  0.00  0.00    +0.113 A 
BRANCH   9  20
ATOM     19  C1  UNL     1      23.516   6.647  31.833  0.00  0.00    +0.277 C 
ATOM     20  O1  UNL     1      23.834   7.584  32.856  0.00  0.00    -0.493 OA
ENDBRANCH   9  20
ENDBRANCH   1  12
BRANCH   7  21
ATOM     21  C11 UNL     1      15.292  12.457  35.456  0.00  0.00    +0.220 C 
ATOM     22  O3  UNL     1      15.621  13.401  34.684  0.00  0.00    -0.275 OA
ATOM     23  N2  UNL     1      14.021  12.515  36.149  0.00  0.00    -0.300 N 
ATOM     24  C12 UNL     1      13.249  13.768  36.184  0.00  0.00    +0.108 C 
ATOM     25  C13 UNL     1      11.817  13.537  35.676  0.00  0.00    +0.020 C 
ATOM     26  C14 UNL     1      11.201  12.202  36.150  0.00  0.00    +0.021 C 
ATOM     27  C15 UNL     1      12.009  11.542  37.280  0.00  0.00    +0.068 C 
ATOM     28  C16 UNL     1      13.472  11.326  36.827  0.00  0.00    +0.126 C 
BRANCH  27  29
ATOM     29  N3  UNL     1      11.384  10.279  37.675  0.00  0.00    -0.326 NA
ATOM     30  H20 UNL     1      12.125   9.566  37.871  0.00  0.00    +0.119 HD
ATOM     31  H21 UNL     1      10.855  10.431  38.565  0.00  0.00    +0.119 HD
ENDBRANCH  27  29
ENDBRANCH   7  21
TORSDOF 4
ENDMDL
MODEL 3
REMARK VINA RESULT:    -6.327     11.617     15.685
REMARK INTER + INTRA:          -8.407
REMARK INTER:                  -7.638
REMARK INTRA:                  -0.769
REMARK UNBOUND:                -0.786
REMARK  Name = /home/qwerty/github/datacon2025hack/step_04_hit_selection/docking/ligands/lig_19.pdb
REMARK  5 active torsions:
REMARK  status: ('A' for Active; 'I' for Inactive)
REMARK    1  A    between atoms: C1_1  and  O1_2
REMARK    2  A    between atoms: O1_2  and  C2_3
REMARK    3  A    between atoms: C5_6  and  C6_7
REMARK    4  A    between atoms: C10_13  and  C11_14
REMARK    5  A    between atoms: C15_20  and  N3_21
REMARK                            x       y       z     vdW  Elec       q    Type
REMARK                         _______ _______ _______ _____ _____    ______ ____
ROOT
ATOM      1  C6  UNL     1      11.060   9.575  26.010  0.00  0.00    +0.247 C 
ATOM      2  O2  UNL     1      11.679   8.789  26.778  0.00  0.00    -0.270 OA
ATOM      3  N1  UNL     1      11.030   9.312  24.593  0.00  0.00    -0.297 N 
ATOM      4  C7  UNL     1      10.898  10.405  23.615  0.00  0.00    +0.108 C 
ATOM      5  C8  UNL     1       9.841  10.061  22.553  0.00  0.00    +0.020 C 
ATOM      6  C9  UNL     1       9.832   8.570  22.145  0.00  0.00    +0.016 C 
ATOM      7  C10 UNL     1      11.105   7.829  22.587  0.00  0.00    +0.092 C 
ATOM      8  C17 UNL     1      11.262   7.937  24.120  0.00  0.00    +0.120 C 
ENDROOT
BRANCH   1  12
ATOM      9  C2  UNL     1       8.754  12.755  27.785  0.00  0.00    +0.146 A 
ATOM     10  C3  UNL     1       8.149  11.570  27.333  0.00  0.00    +0.048 A 
ATOM     11  C4  UNL     1       8.916  10.560  26.753  0.00  0.00    +0.017 A 
ATOM     12  C5  UNL     1      10.303  10.704  26.600  0.00  0.00    +0.046 A 
ATOM     13  C18 UNL     1      10.928  11.898  27.039  0.00  0.00    +0.016 A 
ATOM     14  C19 UNL     1      12.307  12.135  26.879  0.00  0.00    +0.012 A 
ATOM     15  C20 UNL     1      12.873  13.327  27.331  0.00  0.00    +0.020 A 
ATOM     16  C21 UNL     1      12.062  14.289  27.930  0.00  0.00    +0.111 A 
ATOM     17  N4  UNL     1      10.729  14.068  28.063  0.00  0.00    -0.251 NA
ATOM     18  C22 UNL     1      10.140  12.917  27.637  0.00  0.00    +0.113 A 
BRANCH   9  20
ATOM     19  C1  UNL     1       7.505  13.755  29.709  0.00  0.00    +0.277 C 
ATOM     20  O1  UNL     1       8.014  13.789  28.380  0.00  0.00    -0.493 OA
ENDBRANCH   9  20
ENDBRANCH   1  12
BRANCH   7  21
ATOM     21  C11 UNL     1      11.061   6.383  22.130  0.00  0.00    +0.220 C 
ATOM     22  O3  UNL     1       9.945   5.792  22.114  0.00  0.00    -0.275 OA
ATOM     23  N2  UNL     1      12.241   5.688  21.655  0.00  0.00    -0.300 N 
ATOM     24  C12 UNL     1      12.206   4.235  21.424  0.00  0.00    +0.108 C 
ATOM     25  C13 UNL     1      12.668   3.902  19.996  0.00  0.00    +0.020 C 
ATOM     26  C14 UNL     1      13.859   4.761  19.516  0.00  0.00    +0.021 C 
ATOM     27  C15 UNL     1      14.534   5.534  20.661  0.00  0.00    +0.068 C 
ATOM     28  C16 UNL     1      13.495   6.417  21.389  0.00  0.00    +0.126 C 
BRANCH  27  29
ATOM     29  N3  UNL     1      15.642   6.337  20.141  0.00  0.00    -0.326 NA
ATOM     30  H20 UNL     1      16.314   5.718  19.629  0.00  0.00    +0.119 HD
ATOM     31  H21 UNL     1      15.262   7.023  19.449  0.00  0.00    +0.119 HD
ENDBRANCH  27  29
ENDBRANCH   7  21
TORSDOF 4
ENDMDL
MODEL 4
REMARK VINA RESULT:    -6.306      8.938     12.366
REMARK INTER + INTRA:          -8.382
REMARK INTER:                  -7.598
REMARK INTRA:                  -0.784
REMARK UNBOUND:                -0.786
REMARK  Name = /home/qwerty/github/datacon2025hack/step_04_hit_selection/docking/ligands/lig_19.pdb
REMARK  5 active torsions:
REMARK  status: ('A' for Active; 'I' for Inactive)
REMARK    1  A    between atoms: C1_1  and  O1_2
REMARK    2  A    between atoms: O1_2  and  C2_3
REMARK    3  A    between atoms: C5_6  and  C6_7
REMARK    4  A    between atoms: C10_13  and  C11_14
REMARK    5  A    between atoms: C15_20  and  N3_21
REMARK                            x       y       z     vdW  Elec       q    Type
REMARK                         _______ _______ _______ _____ _____    ______ ____
ROOT
ATOM      1  C6  UNL     1      12.102  11.115  31.196  0.00  0.00    +0.247 C 
ATOM      2  O2  UNL     1      12.934  10.517  30.460  0.00  0.00    -0.270 OA
ATOM      3  N1  UNL     1      12.364  11.248  32.607  0.00  0.00    -0.297 N 
ATOM      4  C7  UNL     1      11.266  11.349  33.582  0.00  0.00    +0.108 C 
ATOM      5  C8  UNL     1      11.526  12.489  34.580  0.00  0.00    +0.020 C 
ATOM      6  C9  UNL     1      13.012  12.640  34.977  0.00  0.00    +0.016 C 
ATOM      7  C10 UNL     1      13.851  11.406  34.605  0.00  0.00    +0.092 C 
ATOM      8  C17 UNL     1      13.753  11.153  33.084  0.00  0.00    +0.120 C 
ENDROOT
BRANCH   1  12
ATOM      9  C2  UNL     1       8.748  13.051  29.303  0.00  0.00    +0.146 A 
ATOM     10  C3  UNL     1       9.910  13.761  29.648  0.00  0.00    +0.048 A 
ATOM     11  C4  UNL     1      10.978  13.114  30.269  0.00  0.00    +0.017 A 
ATOM     12  C5  UNL     1      10.916  11.746  30.570  0.00  0.00    +0.046 A 
ATOM     13  C18 UNL     1       9.747  11.016  30.240  0.00  0.00    +0.016 A 
ATOM     14  C19 UNL     1       9.592   9.650  30.549  0.00  0.00    +0.012 A 
ATOM     15  C20 UNL     1       8.420   8.978  30.201  0.00  0.00    +0.020 A 
ATOM     16  C21 UNL     1       7.397   9.669  29.555  0.00  0.00    +0.111 A 
ATOM     17  N4  UNL     1       7.540  10.990  29.277  0.00  0.00    -0.251 NA
ATOM     18  C22 UNL     1       8.668  11.681  29.599  0.00  0.00    +0.113 A 
BRANCH   9  20
ATOM     19  C1  UNL     1       7.671  14.157  27.334  0.00  0.00    +0.277 C 
ATOM     20  O1  UNL     1       7.657  13.668  28.671  0.00  0.00    -0.493 OA
ENDBRANCH   9  20
ENDBRANCH   1  12
BRANCH   7  21
ATOM     21  C11 UNL     1      15.290  11.590  35.050  0.00  0.00    +0.220 C 
ATOM     22  O3  UNL     1      15.822  12.727  34.906  0.00  0.00    -0.275 OA
ATOM     23  N2  UNL     1      16.041  10.528  35.689  0.00  0.00    -0.300 N 
ATOM     24  C12 UNL     1      17.490  10.672  35.911  0.00  0.00    +0.108 C 
ATOM     25  C13 UNL     1      17.836  10.437  37.390  0.00  0.00    +0.020 C 
ATOM     26  C14 UNL     1      17.036   9.284  38.036  0.00  0.00    +0.021 C 
ATOM     27  C15 UNL     1      16.308   8.412  37.000  0.00  0.00    +0.068 C 
ATOM     28  C16 UNL     1      15.377   9.289  36.131  0.00  0.00    +0.126 C 
BRANCH  27  29
ATOM     29  N3  UNL     1      15.560   7.349  37.674  0.00  0.00    -0.326 NA
ATOM     30  H20 UNL     1      15.595   7.498  38.710  0.00  0.00    +0.119 HD
ATOM     31  H21 UNL     1      14.556   7.412  37.385  0.00  0.00    +0.119 HD
ENDBRANCH  27  29
ENDBRANCH   7  21
TORSDOF 4
ENDMDL
MODEL 5
REMARK VINA RESULT:    -6.243     10.648     12.361
REMARK INTER + INTRA:          -8.306
REMARK INTER:                  -7.571
REMARK INTRA:                  -0.735
REMARK UNBOUND:                -0.786
REMARK  Name = /home/qwerty/github/datacon2025hack/step_04_hit_selection/docking/ligands/lig_19.pdb
REMARK  5 active torsions:
REMARK  status: ('A' for Active; 'I' for Inactive)
REMARK    1  A    between atoms: C1_1  and  O1_2
REMARK    2  A    between atoms: O1_2  and  C2_3
REMARK    3  A    between atoms: C5_6  and  C6_7
REMARK    4  A    between atoms: C10_13  and  C11_14
REMARK    5  A    between atoms: C15_20  and  N3_21
REMARK                            x       y       z     vdW  Elec       q    Type
REMARK                         _______ _______ _______ _____ _____    ______ ____
ROOT
ATOM      1  C6  UNL     1       9.807  12.418  29.674  0.00  0.00    +0.247 C 
ATOM      2  O2  UNL     1       9.457  13.615  29.482  0.00  0.00    -0.270 OA
ATOM      3  N1  UNL     1      10.837  12.123  30.638  0.00  0.00    -0.297 N 
ATOM      4  C7  UNL     1      11.699  10.938  30.496  0.00  0.00    +0.108 C 
ATOM      5  C8  UNL     1      11.814  10.184  31.831  0.00  0.00    +0.020 C 
ATOM      6  C9  UNL     1      11.867  11.111  33.066  0.00  0.00    +0.016 C 
ATOM      7  C10 UNL     1      12.177  12.571  32.696  0.00  0.00    +0.092 C 
ATOM      8  C17 UNL     1      11.108  13.094  31.711  0.00  0.00    +0.120 C 
ENDROOT
BRANCH   1  12
ATOM      9  C2  UNL     1       7.566   9.323  27.682  0.00  0.00    +0.146 A 
ATOM     10  C3  UNL     1       7.209   9.783  28.960  0.00  0.00    +0.048 A 
ATOM     11  C4  UNL     1       7.956  10.779  29.588  0.00  0.00    +0.017 A 
ATOM     12  C5  UNL     1       9.082  11.338  28.966  0.00  0.00    +0.046 A 
ATOM     13  C18 UNL     1       9.464  10.876  27.681  0.00  0.00    +0.016 A 
ATOM     14  C19 UNL     1      10.606  11.356  27.011  0.00  0.00    +0.012 A 
ATOM     15  C20 UNL     1      10.937  10.868  25.747  0.00  0.00    +0.020 A 
ATOM     16  C21 UNL     1      10.136   9.894  25.154  0.00  0.00    +0.111 A 
ATOM     17  N4  UNL     1       9.048   9.417  25.811  0.00  0.00    -0.251 NA
ATOM     18  C22 UNL     1       8.692   9.868  27.045  0.00  0.00    +0.113 A 
BRANCH   9  20
ATOM     19  C1  UNL     1       6.927   6.934  27.297  0.00  0.00    +0.277 C 
ATOM     20  O1  UNL     1       6.833   8.326  27.017  0.00  0.00    -0.493 OA
ENDBRANCH   9  20
ENDBRANCH   1  12
BRANCH   7  21
ATOM     21  C11 UNL     1      12.254  13.429  33.945  0.00  0.00    +0.220 C 
ATOM     22  O3  UNL     1      11.176  13.759  34.514  0.00  0.00    -0.275 OA
ATOM     23  N2  UNL     1      13.519  13.822  34.534  0.00  0.00    -0.300 N 
ATOM     24  C12 UNL     1      13.558  14.824  35.612  0.00  0.00    +0.108 C 
ATOM     25  C13 UNL     1      14.310  14.274  36.834  0.00  0.00    +0.020 C 
ATOM     26  C14 UNL     1      15.558  13.441  36.468  0.00  0.00    +0.021 C 
ATOM     27  C15 UNL     1      15.970  13.601  34.995  0.00  0.00    +0.068 C 
ATOM     28  C16 UNL     1      14.787  13.229  34.072  0.00  0.00    +0.126 C 
BRANCH  27  29
ATOM     29  N3  UNL     1      17.147  12.779  34.709  0.00  0.00    -0.326 NA
ATOM     30  H20 UNL     1      17.381  12.198  35.548  0.00  0.00    +0.119 HD
ATOM     31  H21 UNL     1      16.913  12.121  33.930  0.00  0.00    +0.119 HD
ENDBRANCH  27  29
ENDBRANCH   7  21
TORSDOF 4
ENDMDL
MODEL 6
REMARK VINA RESULT:    -6.194     12.516     13.756
REMARK INTER + INTRA:          -8.246
REMARK INTER:                  -7.398
REMARK INTRA:                  -0.848
REMARK UNBOUND:                -0.786
REMARK  Name = /home/qwerty/github/datacon2025hack/step_04_hit_selection/docking/ligands/lig_19.pdb
REMARK  5 active torsions:
REMARK  status: ('A' for Active; 'I' for Inactive)
REMARK    1  A    between atoms: C1_1  and  O1_2
REMARK    2  A    between atoms: O1_2  and  C2_3
REMARK    3  A    between atoms: C5_6  and  C6_7
REMARK    4  A    between atoms: C10_13  and  C11_14
REMARK    5  A    between atoms: C15_20  and  N3_21
REMARK                            x       y       z     vdW  Elec       q    Type
REMARK                         _______ _______ _______ _____ _____    ______ ____
ROOT
ATOM      1  C6  UNL     1       9.117   8.233  22.734  0.00  0.00    +0.247 C 
ATOM      2  O2  UNL     1       8.154   8.828  22.179  0.00  0.00    -0.270 OA
ATOM      3  N1  UNL     1       9.728   8.804  23.909  0.00  0.00    -0.297 N 
ATOM      4  C7  UNL     1      11.141   8.554  24.233  0.00  0.00    +0.108 C 
ATOM      5  C8  UNL     1      11.302   8.183  25.716  0.00  0.00    +0.020 C 
ATOM      6  C9  UNL     1      10.355   8.959  26.658  0.00  0.00    +0.016 C 
ATOM      7  C10 UNL     1       9.732  10.193  25.982  0.00  0.00    +0.092 C 
ATOM      8  C17 UNL     1       8.952   9.754  24.723  0.00  0.00    +0.120 C 
ENDROOT
BRANCH   1  12
ATOM      9  C2  UNL     1      10.473   4.454  21.165  0.00  0.00    +0.146 A 
ATOM     10  C3  UNL     1      10.802   5.671  20.544  0.00  0.00    +0.048 A 
ATOM     11  C4  UNL     1      10.343   6.880  21.066  0.00  0.00    +0.017 A 
ATOM     12  C5  UNL     1       9.537   6.911  22.213  0.00  0.00    +0.046 A 
ATOM     13  C18 UNL     1       9.185   5.693  22.846  0.00  0.00    +0.016 A 
ATOM     14  C19 UNL     1       8.344   5.639  23.975  0.00  0.00    +0.012 A 
ATOM     15  C20 UNL     1       8.029   4.413  24.560  0.00  0.00    +0.020 A 
ATOM     16  C21 UNL     1       8.541   3.238  24.013  0.00  0.00    +0.111 A 
ATOM     17  N4  UNL     1       9.333   3.290  22.912  0.00  0.00    -0.251 NA
ATOM     18  C22 UNL     1       9.665   4.467  22.313  0.00  0.00    +0.113 A 
BRANCH   9  20
ATOM     19  C1  UNL     1      12.287   2.810  20.648  0.00  0.00    +0.277 C 
ATOM     20  O1  UNL     1      10.924   3.220  20.672  0.00  0.00    -0.493 OA
ENDBRANCH   9  20
ENDBRANCH   1  12
BRANCH   7  21
ATOM     21  C11 UNL     1       8.841  10.938  26.959  0.00  0.00    +0.220 C 
ATOM     22  O3  UNL     1       7.749  10.405  27.304  0.00  0.00    -0.275 OA
ATOM     23  N2  UNL     1       9.236  12.201  27.552  0.00  0.00    -0.300 N 
ATOM     24  C12 UNL     1       8.265  12.995  28.324  0.00  0.00    +0.108 C 
ATOM     25  C13 UNL     1       8.819  13.319  29.720  0.00  0.00    +0.020 C 
ATOM     26  C14 UNL     1      10.324  13.668  29.722  0.00  0.00    +0.021 C 
ATOM     27  C15 UNL     1      10.875  13.935  28.312  0.00  0.00    +0.068 C 
ATOM     28  C16 UNL     1      10.610  12.714  27.401  0.00  0.00    +0.126 C 
BRANCH  27  29
ATOM     29  N3  UNL     1      12.303  14.246  28.380  0.00  0.00    -0.326 NA
ATOM     30  H20 UNL     1      12.615  14.246  29.380  0.00  0.00    +0.119 HD
ATOM     31  H21 UNL     1      12.834  13.490  27.889  0.00  0.00    +0.119 HD
ENDBRANCH  27  29
ENDBRANCH   7  21
TORSDOF 4
ENDMDL
MODEL 7
REMARK VINA RESULT:    -6.174      3.184      4.657
REMARK INTER + INTRA:          -8.222
REMARK INTER:                  -7.442
REMARK INTRA:                  -0.780
REMARK UNBOUND:                -0.786
REMARK  Name = /home/qwerty/github/datacon2025hack/step_04_hit_selection/docking/ligands/lig_19.pdb
REMARK  5 active torsions:
REMARK  status: ('A' for Active; 'I' for Inactive)
REMARK    1  A    between atoms: C1_1  and  O1_2
REMARK    2  A    between atoms: O1_2  and  C2_3
REMARK    3  A    between atoms: C5_6  and  C6_7
REMARK    4  A    between atoms: C10_13  and  C11_14
REMARK    5  A    between atoms: C15_20  and  N3_21
REMARK                            x       y       z     vdW  Elec       q    Type
REMARK                         _______ _______ _______ _____ _____    ______ ____
ROOT
ATOM      1  C6  UNL     1      21.602   2.465  29.440  0.00  0.00    +0.247 C 
ATOM      2  O2  UNL     1      22.105   1.437  29.970  0.00  0.00    -0.270 OA
ATOM      3  N1  UNL     1      21.355   3.634  30.247  0.00  0.00    -0.297 N 
ATOM      4  C7  UNL     1      20.277   4.579  29.912  0.00  0.00    +0.108 C 
ATOM      5  C8  UNL     1      20.783   6.029  29.982  0.00  0.00    +0.020 C 
ATOM      6  C9  UNL     1      21.789   6.282  31.127  0.00  0.00    +0.016 C 
ATOM      7  C10 UNL     1      21.785   5.157  32.176  0.00  0.00    +0.092 C 
ATOM      8  C17 UNL     1      22.117   3.812  31.494  0.00  0.00    +0.120 C 
ENDROOT
BRANCH   1  12
ATOM      9  C2  UNL     1      21.053   2.472  25.165  0.00  0.00    +0.146 A 
ATOM     10  C3  UNL     1      22.206   3.010  25.761  0.00  0.00    +0.048 A 
ATOM     11  C4  UNL     1      22.356   3.004  27.147  0.00  0.00    +0.017 A 
ATOM     12  C5  UNL     1      21.359   2.472  27.979  0.00  0.00    +0.046 A 
ATOM     13  C18 UNL     1      20.184   1.937  27.396  0.00  0.00    +0.016 A 
ATOM     14  C19 UNL     1      19.120   1.425  28.165  0.00  0.00    +0.012 A 
ATOM     15  C20 UNL     1      17.985   0.909  27.541  0.00  0.00    +0.020 A 
ATOM     16  C21 UNL     1      17.903   0.913  26.150  0.00  0.00    +0.111 A 
ATOM     17  N4  UNL     1      18.920   1.426  25.410  0.00  0.00    -0.251 NA
ATOM     18  C22 UNL     1      20.045   1.938  25.982  0.00  0.00    +0.113 A 
BRANCH   9  20
ATOM     19  C1  UNL     1      20.611   3.607  22.979  0.00  0.00    +0.277 C 
ATOM     20  O1  UNL     1      20.873   2.454  23.773  0.00  0.00    -0.493 OA
ENDBRANCH   9  20
ENDBRANCH   1  12
BRANCH   7  21
ATOM     21  C11 UNL     1      22.761   5.472  33.295  0.00  0.00    +0.220 C 
ATOM     22  O3  UNL     1      23.997   5.463  33.033  0.00  0.00    -0.275 OA
ATOM     23  N2  UNL     1      22.317   5.845  34.623  0.00  0.00    -0.300 N 
ATOM     24  C12 UNL     1      23.282   5.934  35.732  0.00  0.00    +0.108 C 
ATOM     25  C13 UNL     1      23.197   7.309  36.414  0.00  0.00    +0.020 C 
ATOM     26  C14 UNL     1      21.753   7.837  36.563  0.00  0.00    +0.021 C 
ATOM     27  C15 UNL     1      20.694   6.753  36.299  0.00  0.00    +0.068 C 
ATOM     28  C16 UNL     1      20.899   6.144  34.893  0.00  0.00    +0.126 C 
BRANCH  27  29
ATOM     29  N3  UNL     1      19.351   7.317  36.442  0.00  0.00    -0.326 NA
ATOM     30  H20 UNL     1      18.636   6.578  36.244  0.00  0.00    +0.119 HD
ATOM     31  H21 UNL     1      19.219   7.619  37.436  0.00  0.00    +0.119 HD
ENDBRANCH  27  29
ENDBRANCH   7  21
TORSDOF 4
ENDMDL
MODEL 8
REMARK VINA RESULT:    -6.123      5.064     10.543
REMARK INTER + INTRA:          -8.161
REMARK INTER:                  -7.376
REMARK INTRA:                  -0.785
REMARK UNBOUND:                -0.786
REMARK  Name = /home/qwerty/github/datacon2025hack/step_04_hit_selection/docking/ligands/lig_19.pdb
REMARK  5 active torsions:
REMARK  status: ('A' for Active; 'I' for Inactive)
REMARK    1  A    between atoms: C1_1  and  O1_2
REMARK    2  A    between atoms: O1_2  and  C2_3
REMARK    3  A    between atoms: C5_6  and  C6_7
REMARK    4  A    between atoms: C10_13  and  C11_14
REMARK    5  A    between atoms: C15_20  and  N3_21
REMARK                            x       y       z     vdW  Elec       q    Type
REMARK                         _______ _______ _______ _____ _____    ______ ____
ROOT
ATOM      1  C6  UNL     1      18.661   3.012  28.193  0.00  0.00    +0.247 C 
ATOM      2  O2  UNL     1      17.472   3.376  28.404  0.00  0.00    -0.270 OA
ATOM      3  N1  UNL     1      19.018   2.450  26.913  0.00  0.00    -0.297 N 
ATOM      4  C7  UNL     1      20.121   1.485  26.784  0.00  0.00    +0.108 C 
ATOM      5  C8  UNL     1      21.034   1.856  25.603  0.00  0.00    +0.020 C 
ATOM      6  C9  UNL     1      20.273   2.422  24.383  0.00  0.00    +0.016 C 
ATOM      7  C10 UNL     1      18.761   2.145  24.450  0.00  0.00    +0.092 C 
ATOM      8  C17 UNL     1      18.179   2.758  25.743  0.00  0.00    +0.120 C 
ENDROOT
BRANCH   1  12
ATOM      9  C2  UNL     1      21.608   3.872  31.217  0.00  0.00    +0.146 A 
ATOM     10  C3  UNL     1      21.405   4.729  30.122  0.00  0.00    +0.048 A 
ATOM     11  C4  UNL     1      20.452   4.424  29.151  0.00  0.00    +0.017 A 
ATOM     12  C5  UNL     1      19.682   3.254  29.239  0.00  0.00    +0.046 A 
ATOM     13  C18 UNL     1      19.882   2.373  30.330  0.00  0.00    +0.016 A 
ATOM     14  C19 UNL     1      19.181   1.159  30.464  0.00  0.00    +0.012 A 
ATOM     15  C20 UNL     1      19.415   0.327  31.558  0.00  0.00    +0.020 A 
ATOM     16  C21 UNL     1      20.359   0.698  32.514  0.00  0.00    +0.111 A 
ATOM     17  N4  UNL     1      21.051   1.857  32.372  0.00  0.00    -0.251 NA
ATOM     18  C22 UNL     1      20.849   2.697  31.319  0.00  0.00    +0.113 A 
BRANCH   9  20
ATOM     19  C1  UNL     1      22.568   5.339  33.004  0.00  0.00    +0.277 C 
ATOM     20  O1  UNL     1      22.554   4.153  32.216  0.00  0.00    -0.493 OA
ENDBRANCH   9  20
ENDBRANCH   1  12
BRANCH   7  21
ATOM     21  C11 UNL     1      18.069   2.688  23.213  0.00  0.00    +0.220 C 
ATOM     22  O3  UNL     1      18.510   3.753  22.697  0.00  0.00    -0.275 OA
ATOM     23  N2  UNL     1      16.969   1.991  22.577  0.00  0.00    -0.300 N 
ATOM     24  C12 UNL     1      16.188   2.647  21.515  0.00  0.00    +0.108 C 
ATOM     25  C13 UNL     1      16.150   1.772  20.252  0.00  0.00    +0.020 C 
ATOM     26  C14 UNL     1      15.992   0.264  20.549  0.00  0.00    +0.021 C 
ATOM     27  C15 UNL     1      15.585  -0.015  22.005  0.00  0.00    +0.068 C 
ATOM     28  C16 UNL     1      16.611   0.616  22.973  0.00  0.00    +0.126 C 
BRANCH  27  29
ATOM     29  N3  UNL     1      15.464  -1.457  22.226  0.00  0.00    -0.326 NA
ATOM     30  H20 UNL     1      16.416  -1.894  22.217  0.00  0.00    +0.119 HD
ATOM     31  H21 UNL     1      15.058  -1.618  23.177  0.00  0.00    +0.119 HD
ENDBRANCH  27  29
ENDBRANCH   7  21
TORSDOF 4
ENDMDL
