MODEL 1
REMARK VINA RESULT:    -6.237      0.000      0.000
REMARK INTER + INTRA:          -7.299
REMARK INTER:                  -6.966
REMARK INTRA:                  -0.334
REMARK UNBOUND:                -0.334
REMARK  Name = /home/qwerty/github/datacon2025hack/step_04_hit_selection/docking/ligands/lig_499.pdb
REMARK  3 active torsions:
REMARK  status: ('A' for Active; 'I' for Inactive)
REMARK    1  A    between atoms: C1_1  and  C2_2
REMARK    2  A    between atoms: C5_5  and  N1_6
REMARK    3  A    between atoms: N2_9  and  C7_10
REMARK                            x       y       z     vdW  Elec       q    Type
REMARK                         _______ _______ _______ _____ _____    ______ ____
ROOT
ATOM      1  N1  UNL     1      22.657   4.721  34.189  0.00  0.00    -0.269 N 
ATOM      2  C6  UNL     1      21.829   3.890  33.361  0.00  0.00    +0.308 C 
ATOM      3  O1  UNL     1      21.429   4.306  32.239  0.00  0.00    -0.252 OA
ATOM      4  N2  UNL     1      21.462   2.581  33.820  0.00  0.00    -0.269 N 
ATOM      5  H6  UNL     1      22.742   4.462  35.198  0.00  0.00    +0.156 HD
ATOM      6  H7  UNL     1      22.004   2.180  34.619  0.00  0.00    +0.156 HD
ENDROOT
BRANCH   4   7
ATOM      7  C7  UNL     1      20.476   1.751  33.181  0.00  0.00    +0.040 A 
ATOM      8  C8  UNL     1      20.756   1.046  31.988  0.00  0.00    +0.024 A 
ATOM      9  C9  UNL     1      19.764   0.258  31.375  0.00  0.00    +0.004 A 
ATOM     10  C10 UNL     1      18.481   0.171  31.937  0.00  0.00    +0.023 A 
ATOM     11  C11 UNL     1      18.221   0.891  33.102  0.00  0.00    +0.032 A 
ATOM     12  C12 UNL     1      19.177   1.662  33.703  0.00  0.00    -0.004 A 
ATOM     13  C13 UNL     1      18.616   2.303  34.929  0.00  0.00    +0.057 C 
ATOM     14  C14 UNL     1      17.157   1.787  34.974  0.00  0.00    +0.106 C 
ATOM     15  N3  UNL     1      16.999   0.925  33.807  0.00  0.00    -0.343 N 
ATOM     16  H15 UNL     1      16.128   0.415  33.542  0.00  0.00    +0.146 HD
ENDBRANCH   4   7
BRANCH   1  21
ATOM     17  C1  UNL     1      25.122   9.567  32.305  0.00  0.00    +0.044 C 
ATOM     18  C2  UNL     1      24.489   8.313  32.831  0.00  0.00    -0.050 A 
ATOM     19  C3  UNL     1      25.143   7.080  32.695  0.00  0.00    +0.005 A 
ATOM     20  C4  UNL     1      24.535   5.905  33.150  0.00  0.00    +0.023 A 
ATOM     21  C5  UNL     1      23.268   5.947  33.751  0.00  0.00    +0.035 A 
ATOM     22  C15 UNL     1      22.597   7.178  33.850  0.00  0.00    +0.023 A 
ATOM     23  C16 UNL     1      23.204   8.352  33.393  0.00  0.00    +0.005 A 
ENDBRANCH   1  21
TORSDOF 2
ENDMDL
MODEL 2
REMARK VINA RESULT:    -6.200     14.042     16.421
REMARK INTER + INTRA:          -7.258
REMARK INTER:                  -6.843
REMARK INTRA:                  -0.416
REMARK UNBOUND:                -0.334
REMARK  Name = /home/qwerty/github/datacon2025hack/step_04_hit_selection/docking/ligands/lig_499.pdb
REMARK  3 active torsions:
REMARK  status: ('A' for Active; 'I' for Inactive)
REMARK    1  A    between atoms: C1_1  and  C2_2
REMARK    2  A    between atoms: C5_5  and  N1_6
REMARK    3  A    between atoms: N2_9  and  C7_10
REMARK                            x       y       z     vdW  Elec       q    Type
REMARK                         _______ _______ _______ _____ _____    ______ ____
ROOT
ATOM      1  N1  UNL     1       7.806  11.027  29.481  0.00  0.00    -0.269 N 
ATOM      2  C6  UNL     1       9.128  11.567  29.629  0.00  0.00    +0.308 C 
ATOM      3  O1  UNL     1      10.127  10.800  29.687  0.00  0.00    -0.252 OA
ATOM      4  N2  UNL     1       9.302  12.990  29.712  0.00  0.00    -0.269 N 
ATOM      5  H6  UNL     1       7.001  11.654  29.704  0.00  0.00    +0.156 HD
ATOM      6  H7  UNL     1       8.502  13.591  29.414  0.00  0.00    +0.156 HD
ENDROOT
BRANCH   4   7
ATOM      7  C7  UNL     1      10.539  13.629  30.070  0.00  0.00    +0.040 A 
ATOM      8  C8  UNL     1      10.934  13.786  31.419  0.00  0.00    +0.024 A 
ATOM      9  C9  UNL     1      12.141  14.435  31.739  0.00  0.00    +0.004 A 
ATOM     10  C10 UNL     1      12.963  14.944  30.722  0.00  0.00    +0.023 A 
ATOM     11  C11 UNL     1      12.545  14.796  29.401  0.00  0.00    +0.032 A 
ATOM     12  C12 UNL     1      11.372  14.170  29.080  0.00  0.00    -0.004 A 
ATOM     13  C13 UNL     1      11.192  14.155  27.597  0.00  0.00    +0.057 C 
ATOM     14  C14 UNL     1      12.459  14.874  27.071  0.00  0.00    +0.106 C 
ATOM     15  N3  UNL     1      13.234  15.239  28.252  0.00  0.00    -0.343 N 
ATOM     16  H15 UNL     1      14.151  15.739  28.247  0.00  0.00    +0.146 HD
ENDBRANCH   4   7
BRANCH   1  21
ATOM     17  C1  UNL     1       6.804   5.519  28.150  0.00  0.00    +0.044 C 
ATOM     18  C2  UNL     1       7.028   6.959  28.503  0.00  0.00    -0.050 A 
ATOM     19  C3  UNL     1       7.265   7.905  27.495  0.00  0.00    +0.005 A 
ATOM     20  C4  UNL     1       7.514   9.241  27.826  0.00  0.00    +0.023 A 
ATOM     21  C5  UNL     1       7.526   9.651  29.168  0.00  0.00    +0.035 A 
ATOM     22  C15 UNL     1       7.328   8.694  30.178  0.00  0.00    +0.023 A 
ATOM     23  C16 UNL     1       7.081   7.358  29.846  0.00  0.00    +0.005 A 
ENDBRANCH   1  21
TORSDOF 2
ENDMDL
MODEL 3
REMARK VINA RESULT:    -6.180      5.184      6.759
REMARK INTER + INTRA:          -7.236
REMARK INTER:                  -6.817
REMARK INTRA:                  -0.420
REMARK UNBOUND:                -0.334
REMARK  Name = /home/qwerty/github/datacon2025hack/step_04_hit_selection/docking/ligands/lig_499.pdb
REMARK  3 active torsions:
REMARK  status: ('A' for Active; 'I' for Inactive)
REMARK    1  A    between atoms: C1_1  and  C2_2
REMARK    2  A    between atoms: C5_5  and  N1_6
REMARK    3  A    between atoms: N2_9  and  C7_10
REMARK                            x       y       z     vdW  Elec       q    Type
REMARK                         _______ _______ _______ _____ _____    ______ ____
ROOT
ATOM      1  N1  UNL     1      22.497   2.437  27.375  0.00  0.00    -0.269 N 
ATOM      2  C6  UNL     1      21.854   2.639  28.643  0.00  0.00    +0.308 C 
ATOM      3  O1  UNL     1      20.892   3.448  28.747  0.00  0.00    -0.252 OA
ATOM      4  N2  UNL     1      22.316   1.912  29.791  0.00  0.00    -0.269 N 
ATOM      5  H6  UNL     1      23.437   1.980  27.379  0.00  0.00    +0.156 HD
ATOM      6  H7  UNL     1      22.931   1.084  29.622  0.00  0.00    +0.156 HD
ENDROOT
BRANCH   4   7
ATOM      7  C7  UNL     1      21.895   2.185  31.139  0.00  0.00    +0.040 A 
ATOM      8  C8  UNL     1      22.500   3.199  31.917  0.00  0.00    +0.024 A 
ATOM      9  C9  UNL     1      22.080   3.428  33.241  0.00  0.00    +0.004 A 
ATOM     10  C10 UNL     1      21.062   2.646  33.807  0.00  0.00    +0.023 A 
ATOM     11  C11 UNL     1      20.494   1.639  33.029  0.00  0.00    +0.032 A 
ATOM     12  C12 UNL     1      20.898   1.405  31.743  0.00  0.00    -0.004 A 
ATOM     13  C13 UNL     1      20.111   0.278  31.160  0.00  0.00    +0.057 C 
ATOM     14  C14 UNL     1      19.157  -0.132  32.309  0.00  0.00    +0.106 C 
ATOM     15  N3  UNL     1      19.466   0.757  33.424  0.00  0.00    -0.343 N 
ATOM     16  H15 UNL     1      18.998   0.747  34.357  0.00  0.00    +0.146 HD
ENDBRANCH   4   7
BRANCH   1  21
ATOM     17  C1  UNL     1      20.336   4.398  22.416  0.00  0.00    +0.044 C 
ATOM     18  C2  UNL     1      20.930   3.877  23.690  0.00  0.00    -0.050 A 
ATOM     19  C3  UNL     1      20.517   2.642  24.210  0.00  0.00    +0.005 A 
ATOM     20  C4  UNL     1      21.042   2.174  25.419  0.00  0.00    +0.023 A 
ATOM     21  C5  UNL     1      21.990   2.931  26.124  0.00  0.00    +0.035 A 
ATOM     22  C15 UNL     1      22.373   4.187  25.621  0.00  0.00    +0.023 A 
ATOM     23  C16 UNL     1      21.846   4.655  24.413  0.00  0.00    +0.005 A 
ENDBRANCH   1  21
TORSDOF 2
ENDMDL
MODEL 4
REMARK VINA RESULT:    -6.160      5.041      7.892
REMARK INTER + INTRA:          -7.214
REMARK INTER:                  -6.800
REMARK INTRA:                  -0.414
REMARK UNBOUND:                -0.334
REMARK  Name = /home/qwerty/github/datacon2025hack/step_04_hit_selection/docking/ligands/lig_499.pdb
REMARK  3 active torsions:
REMARK  status: ('A' for Active; 'I' for Inactive)
REMARK    1  A    between atoms: C1_1  and  C2_2
REMARK    2  A    between atoms: C5_5  and  N1_6
REMARK    3  A    between atoms: N2_9  and  C7_10
REMARK                            x       y       z     vdW  Elec       q    Type
REMARK                         _______ _______ _______ _____ _____    ______ ____
ROOT
ATOM      1  N1  UNL     1      20.725   0.464  30.408  0.00  0.00    -0.269 N 
ATOM      2  C6  UNL     1      20.448   1.125  29.164  0.00  0.00    +0.308 C 
ATOM      3  O1  UNL     1      19.510   1.966  29.085  0.00  0.00    -0.252 OA
ATOM      4  N2  UNL     1      21.246   0.821  28.011  0.00  0.00    -0.269 N 
ATOM      5  H6  UNL     1      21.312  -0.400  30.374  0.00  0.00    +0.156 HD
ATOM      6  H7  UNL     1      22.151   0.323  28.169  0.00  0.00    +0.156 HD
ENDROOT
BRANCH   4   7
ATOM      7  C7  UNL     1      20.932   1.254  26.677  0.00  0.00    +0.040 A 
ATOM      8  C8  UNL     1      20.006   0.559  25.866  0.00  0.00    +0.024 A 
ATOM      9  C9  UNL     1      19.734   0.996  24.556  0.00  0.00    +0.004 A 
ATOM     10  C10 UNL     1      20.387   2.124  24.036  0.00  0.00    +0.023 A 
ATOM     11  C11 UNL     1      21.311   2.783  24.846  0.00  0.00    +0.032 A 
ATOM     12  C12 UNL     1      21.585   2.363  26.118  0.00  0.00    -0.004 A 
ATOM     13  C13 UNL     1      22.602   3.261  26.742  0.00  0.00    +0.057 C 
ATOM     14  C14 UNL     1      22.897   4.301  25.634  0.00  0.00    +0.106 C 
ATOM     15  N3  UNL     1      22.060   3.926  24.498  0.00  0.00    -0.343 N 
ATOM     16  H15 UNL     1      22.018   4.427  23.583  0.00  0.00    +0.146 HD
ENDBRANCH   4   7
BRANCH   1  21
ATOM     17  C1  UNL     1      18.421   2.112  35.417  0.00  0.00    +0.044 C 
ATOM     18  C2  UNL     1      19.035   1.652  34.128  0.00  0.00    -0.050 A 
ATOM     19  C3  UNL     1      20.222   2.236  33.662  0.00  0.00    +0.005 A 
ATOM     20  C4  UNL     1      20.773   1.834  32.441  0.00  0.00    +0.023 A 
ATOM     21  C5  UNL     1      20.149   0.842  31.670  0.00  0.00    +0.035 A 
ATOM     22  C15 UNL     1      18.938   0.287  32.120  0.00  0.00    +0.023 A 
ATOM     23  C16 UNL     1      18.386   0.690  33.340  0.00  0.00    +0.005 A 
ENDBRANCH   1  21
TORSDOF 2
ENDMDL
MODEL 5
REMARK VINA RESULT:    -6.073     14.658     16.465
REMARK INTER + INTRA:          -7.117
REMARK INTER:                  -6.808
REMARK INTRA:                  -0.309
REMARK UNBOUND:                -0.334
REMARK  Name = /home/qwerty/github/datacon2025hack/step_04_hit_selection/docking/ligands/lig_499.pdb
REMARK  3 active torsions:
REMARK  status: ('A' for Active; 'I' for Inactive)
REMARK    1  A    between atoms: C1_1  and  C2_2
REMARK    2  A    between atoms: C5_5  and  N1_6
REMARK    3  A    between atoms: N2_9  and  C7_10
REMARK                            x       y       z     vdW  Elec       q    Type
REMARK                         _______ _______ _______ _____ _____    ______ ____
ROOT
ATOM      1  N1  UNL     1       9.978   6.147  20.051  0.00  0.00    -0.269 N 
ATOM      2  C6  UNL     1      10.598   5.139  20.865  0.00  0.00    +0.308 C 
ATOM      3  O1  UNL     1      10.905   5.389  22.063  0.00  0.00    -0.252 OA
ATOM      4  N2  UNL     1      10.865   3.846  20.303  0.00  0.00    -0.269 N 
ATOM      5  H6  UNL     1       9.986   6.002  19.016  0.00  0.00    +0.156 HD
ATOM      6  H7  UNL     1      10.381   3.598  19.411  0.00  0.00    +0.156 HD
ENDROOT
BRANCH   4   7
ATOM      7  C7  UNL     1      11.664   2.839  20.948  0.00  0.00    +0.040 A 
ATOM      8  C8  UNL     1      12.995   2.575  20.549  0.00  0.00    +0.024 A 
ATOM      9  C9  UNL     1      13.744   1.568  21.185  0.00  0.00    +0.004 A 
ATOM     10  C10 UNL     1      13.176   0.807  22.218  0.00  0.00    +0.023 A 
ATOM     11  C11 UNL     1      11.857   1.071  22.581  0.00  0.00    +0.032 A 
ATOM     12  C12 UNL     1      11.119   2.044  21.966  0.00  0.00    -0.004 A 
ATOM     13  C13 UNL     1       9.753   2.102  22.567  0.00  0.00    +0.057 C 
ATOM     14  C14 UNL     1       9.787   1.001  23.655  0.00  0.00    +0.106 C 
ATOM     15  N3  UNL     1      11.122   0.414  23.591  0.00  0.00    -0.343 N 
ATOM     16  H15 UNL     1      11.475  -0.360  24.196  0.00  0.00    +0.146 HD
ENDBRANCH   4   7
BRANCH   1  21
ATOM     17  C1  UNL     1       7.924  11.178  21.940  0.00  0.00    +0.044 C 
ATOM     18  C2  UNL     1       8.472   9.860  21.482  0.00  0.00    -0.050 A 
ATOM     19  C3  UNL     1       9.655   9.809  20.730  0.00  0.00    +0.005 A 
ATOM     20  C4  UNL     1      10.145   8.583  20.269  0.00  0.00    +0.023 A 
ATOM     21  C5  UNL     1       9.463   7.391  20.556  0.00  0.00    +0.035 A 
ATOM     22  C15 UNL     1       8.257   7.448  21.275  0.00  0.00    +0.023 A 
ATOM     23  C16 UNL     1       7.766   8.675  21.734  0.00  0.00    +0.005 A 
ENDBRANCH   1  21
TORSDOF 2
ENDMDL
MODEL 6
REMARK VINA RESULT:    -5.965     14.265     16.744
REMARK INTER + INTRA:          -6.996
REMARK INTER:                  -6.603
REMARK INTRA:                  -0.394
REMARK UNBOUND:                -0.334
REMARK  Name = /home/qwerty/github/datacon2025hack/step_04_hit_selection/docking/ligands/lig_499.pdb
REMARK  3 active torsions:
REMARK  status: ('A' for Active; 'I' for Inactive)
REMARK    1  A    between atoms: C1_1  and  C2_2
REMARK    2  A    between atoms: C5_5  and  N1_6
REMARK    3  A    between atoms: N2_9  and  C7_10
REMARK                            x       y       z     vdW  Elec       q    Type
REMARK                         _______ _______ _______ _____ _____    ______ ____
ROOT
ATOM      1  N1  UNL     1      11.971   2.613  20.286  0.00  0.00    -0.269 N 
ATOM      2  C6  UNL     1      11.232   3.708  20.849  0.00  0.00    +0.308 C 
ATOM      3  O1  UNL     1      11.406   4.040  22.054  0.00  0.00    -0.252 OA
ATOM      4  N2  UNL     1      10.293   4.420  20.030  0.00  0.00    -0.269 N 
ATOM      5  H6  UNL     1      11.616   2.201  19.393  0.00  0.00    +0.156 HD
ATOM      6  H7  UNL     1      10.357   4.286  18.996  0.00  0.00    +0.156 HD
ENDROOT
BRANCH   4   7
ATOM      7  C7  UNL     1       9.354   5.383  20.536  0.00  0.00    +0.040 A 
ATOM      8  C8  UNL     1       8.046   5.015  20.928  0.00  0.00    +0.024 A 
ATOM      9  C9  UNL     1       7.142   5.985  21.399  0.00  0.00    +0.004 A 
ATOM     10  C10 UNL     1       7.525   7.333  21.476  0.00  0.00    +0.023 A 
ATOM     11  C11 UNL     1       8.812   7.676  21.066  0.00  0.00    +0.032 A 
ATOM     12  C12 UNL     1       9.696   6.742  20.602  0.00  0.00    -0.004 A 
ATOM     13  C13 UNL     1      10.989   7.398  20.246  0.00  0.00    +0.057 C 
ATOM     14  C14 UNL     1      10.742   8.891  20.577  0.00  0.00    +0.106 C 
ATOM     15  N3  UNL     1       9.371   8.971  21.072  0.00  0.00    -0.343 N 
ATOM     16  H15 UNL     1       8.889   9.843  21.385  0.00  0.00    +0.146 HD
ENDBRANCH   4   7
BRANCH   1  21
ATOM     17  C1  UNL     1      16.380  -0.074  22.826  0.00  0.00    +0.044 C 
ATOM     18  C2  UNL     1      15.236   0.655  22.187  0.00  0.00    -0.050 A 
ATOM     19  C3  UNL     1      13.913   0.303  22.492  0.00  0.00    +0.005 A 
ATOM     20  C4  UNL     1      12.847   0.956  21.866  0.00  0.00    +0.023 A 
ATOM     21  C5  UNL     1      13.086   1.973  20.930  0.00  0.00    +0.035 A 
ATOM     22  C15 UNL     1      14.413   2.298  20.596  0.00  0.00    +0.023 A 
ATOM     23  C16 UNL     1      15.479   1.643  21.221  0.00  0.00    +0.005 A 
ENDBRANCH   1  21
TORSDOF 2
ENDMDL
MODEL 7
REMARK VINA RESULT:    -5.931      7.055      9.060
REMARK INTER + INTRA:          -6.958
REMARK INTER:                  -6.644
REMARK INTRA:                  -0.313
REMARK UNBOUND:                -0.334
REMARK  Name = /home/qwerty/github/datacon2025hack/step_04_hit_selection/docking/ligands/lig_499.pdb
REMARK  3 active torsions:
REMARK  status: ('A' for Active; 'I' for Inactive)
REMARK    1  A    between atoms: C1_1  and  C2_2
REMARK    2  A    between atoms: C5_5  and  N1_6
REMARK    3  A    between atoms: N2_9  and  C7_10
REMARK                            x       y       z     vdW  Elec       q    Type
REMARK                         _______ _______ _______ _____ _____    ______ ____
ROOT
ATOM      1  N1  UNL     1      20.807   0.657  26.408  0.00  0.00    -0.269 N 
ATOM      2  C6  UNL     1      19.481   0.743  25.864  0.00  0.00    +0.308 C 
ATOM      3  O1  UNL     1      18.517   1.108  26.591  0.00  0.00    -0.252 OA
ATOM      4  N2  UNL     1      19.262   0.410  24.485  0.00  0.00    -0.269 N 
ATOM      5  H6  UNL     1      21.514   0.106  25.870  0.00  0.00    +0.156 HD
ATOM      6  H7  UNL     1      20.100   0.358  23.863  0.00  0.00    +0.156 HD
ENDROOT
BRANCH   4   7
ATOM      7  C7  UNL     1      17.962   0.256  23.892  0.00  0.00    +0.040 A 
ATOM      8  C8  UNL     1      17.360   1.289  23.136  0.00  0.00    +0.024 A 
ATOM      9  C9  UNL     1      16.077   1.116  22.585  0.00  0.00    +0.004 A 
ATOM     10  C10 UNL     1      15.374  -0.082  22.787  0.00  0.00    +0.023 A 
ATOM     11  C11 UNL     1      15.978  -1.078  23.552  0.00  0.00    +0.032 A 
ATOM     12  C12 UNL     1      17.222  -0.918  24.095  0.00  0.00    -0.004 A 
ATOM     13  C13 UNL     1      17.610  -2.147  24.851  0.00  0.00    +0.057 C 
ATOM     14  C14 UNL     1      16.390  -3.083  24.671  0.00  0.00    +0.106 C 
ATOM     15  N3  UNL     1      15.429  -2.341  23.860  0.00  0.00    -0.343 N 
ATOM     16  H15 UNL     1      14.494  -2.691  23.554  0.00  0.00    +0.146 HD
ENDBRANCH   4   7
BRANCH   1  21
ATOM     17  C1  UNL     1      22.209   2.785  31.567  0.00  0.00    +0.044 C 
ATOM     18  C2  UNL     1      21.880   2.225  30.216  0.00  0.00    -0.050 A 
ATOM     19  C3  UNL     1      21.544   3.081  29.157  0.00  0.00    +0.005 A 
ATOM     20  C4  UNL     1      21.199   2.556  27.907  0.00  0.00    +0.023 A 
ATOM     21  C5  UNL     1      21.188   1.170  27.696  0.00  0.00    +0.035 A 
ATOM     22  C15 UNL     1      21.485   0.311  28.770  0.00  0.00    +0.023 A 
ATOM     23  C16 UNL     1      21.829   0.837  30.020  0.00  0.00    +0.005 A 
ENDBRANCH   1  21
TORSDOF 2
ENDMDL
MODEL 8
REMARK VINA RESULT:    -5.916     14.220     16.307
REMARK INTER + INTRA:          -6.941
REMARK INTER:                  -6.572
REMARK INTRA:                  -0.369
REMARK UNBOUND:                -0.334
REMARK  Name = /home/qwerty/github/datacon2025hack/step_04_hit_selection/docking/ligands/lig_499.pdb
REMARK  3 active torsions:
REMARK  status: ('A' for Active; 'I' for Inactive)
REMARK    1  A    between atoms: C1_1  and  C2_2
REMARK    2  A    between atoms: C5_5  and  N1_6
REMARK    3  A    between atoms: N2_9  and  C7_10
REMARK                            x       y       z     vdW  Elec       q    Type
REMARK                         _______ _______ _______ _____ _____    ______ ____
ROOT
ATOM      1  N1  UNL     1      10.531   5.150  19.926  0.00  0.00    -0.269 N 
ATOM      2  C6  UNL     1      11.370   4.330  20.753  0.00  0.00    +0.308 C 
ATOM      3  O1  UNL     1      11.822   4.778  21.843  0.00  0.00    -0.252 OA
ATOM      4  N2  UNL     1      11.690   2.997  20.330  0.00  0.00    -0.269 N 
ATOM      5  H6  UNL     1      10.401   4.856  18.931  0.00  0.00    +0.156 HD
ATOM      6  H7  UNL     1      11.109   2.580  19.568  0.00  0.00    +0.156 HD
ENDROOT
BRANCH   4   7
ATOM      7  C7  UNL     1      12.680   2.168  20.962  0.00  0.00    +0.040 A 
ATOM      8  C8  UNL     1      12.331   1.184  21.916  0.00  0.00    +0.024 A 
ATOM      9  C9  UNL     1      13.325   0.402  22.533  0.00  0.00    +0.004 A 
ATOM     10  C10 UNL     1      14.678   0.597  22.216  0.00  0.00    +0.023 A 
ATOM     11  C11 UNL     1      15.002   1.586  21.289  0.00  0.00    +0.032 A 
ATOM     12  C12 UNL     1      14.044   2.353  20.687  0.00  0.00    -0.004 A 
ATOM     13  C13 UNL     1      14.683   3.317  19.741  0.00  0.00    +0.057 C 
ATOM     14  C14 UNL     1      16.193   3.001  19.868  0.00  0.00    +0.106 C 
ATOM     15  N3  UNL     1      16.298   1.924  20.847  0.00  0.00    -0.343 N 
ATOM     16  H15 UNL     1      17.186   1.474  21.162  0.00  0.00    +0.146 HD
ENDBRANCH   4   7
BRANCH   1  21
ATOM     17  C1  UNL     1       8.238  10.115  21.713  0.00  0.00    +0.044 C 
ATOM     18  C2  UNL     1       8.828   8.831  21.212  0.00  0.00    -0.050 A 
ATOM     19  C3  UNL     1       8.111   7.631  21.329  0.00  0.00    +0.005 A 
ATOM     20  C4  UNL     1       8.677   6.427  20.898  0.00  0.00    +0.023 A 
ATOM     21  C5  UNL     1       9.965   6.405  20.340  0.00  0.00    +0.035 A 
ATOM     22  C15 UNL     1      10.697   7.603  20.261  0.00  0.00    +0.023 A 
ATOM     23  C16 UNL     1      10.131   8.806  20.694  0.00  0.00    +0.005 A 
ENDBRANCH   1  21
TORSDOF 2
ENDMDL
MODEL 9
REMARK VINA RESULT:    -5.868     12.963     14.450
REMARK INTER + INTRA:          -6.887
REMARK INTER:                  -6.502
REMARK INTRA:                  -0.386
REMARK UNBOUND:                -0.334
REMARK  Name = /home/qwerty/github/datacon2025hack/step_04_hit_selection/docking/ligands/lig_499.pdb
REMARK  3 active torsions:
REMARK  status: ('A' for Active; 'I' for Inactive)
REMARK    1  A    between atoms: C1_1  and  C2_2
REMARK    2  A    between atoms: C5_5  and  N1_6
REMARK    3  A    between atoms: N2_9  and  C7_10
REMARK                            x       y       z     vdW  Elec       q    Type
REMARK                         _______ _______ _______ _____ _____    ______ ____
ROOT
ATOM      1  N1  UNL     1      11.540  12.048  30.654  0.00  0.00    -0.269 N 
ATOM      2  C6  UNL     1      11.736  12.524  31.994  0.00  0.00    +0.308 C 
ATOM      3  O1  UNL     1      11.192  13.597  32.374  0.00  0.00    -0.252 OA
ATOM      4  N2  UNL     1      12.557  11.769  32.897  0.00  0.00    -0.269 N 
ATOM      5  H6  UNL     1      12.204  11.323  30.298  0.00  0.00    +0.156 HD
ATOM      6  H7  UNL     1      12.780  10.782  32.636  0.00  0.00    +0.156 HD
ENDROOT
BRANCH   4   7
ATOM      7  C7  UNL     1      12.994  12.249  34.180  0.00  0.00    +0.040 A 
ATOM      8  C8  UNL     1      14.038  13.195  34.306  0.00  0.00    +0.024 A 
ATOM      9  C9  UNL     1      14.457  13.630  35.578  0.00  0.00    +0.004 A 
ATOM     10  C10 UNL     1      13.849  13.122  36.736  0.00  0.00    +0.023 A 
ATOM     11  C11 UNL     1      12.836  12.176  36.589  0.00  0.00    +0.032 A 
ATOM     12  C12 UNL     1      12.425  11.744  35.359  0.00  0.00    -0.004 A 
ATOM     13  C13 UNL     1      11.327  10.743  35.512  0.00  0.00    +0.057 C 
ATOM     14  C14 UNL     1      11.139  10.644  37.045  0.00  0.00    +0.106 C 
ATOM     15  N3  UNL     1      12.114  11.558  37.631  0.00  0.00    -0.343 N 
ATOM     16  H15 UNL     1      12.248  11.731  38.652  0.00  0.00    +0.146 HD
ENDBRANCH   4   7
BRANCH   1  21
ATOM     17  C1  UNL     1       7.594  14.254  27.095  0.00  0.00    +0.044 C 
ATOM     18  C2  UNL     1       8.633  13.656  27.994  0.00  0.00    -0.050 A 
ATOM     19  C3  UNL     1       8.268  12.722  28.975  0.00  0.00    +0.005 A 
ATOM     20  C4  UNL     1       9.232  12.194  29.840  0.00  0.00    +0.023 A 
ATOM     21  C5  UNL     1      10.574  12.589  29.737  0.00  0.00    +0.035 A 
ATOM     22  C15 UNL     1      10.931  13.556  28.780  0.00  0.00    +0.023 A 
ATOM     23  C16 UNL     1       9.967  14.085  27.916  0.00  0.00    +0.005 A 
ENDBRANCH   1  21
TORSDOF 2
ENDMDL
