REMARK  Name = /home/qwerty/github/datacon2025hack/step_04_hit_selection/docking/ligands/lig_649.pdb
REMARK  9 active torsions:
REMARK  status: ('A' for Active; 'I' for Inactive)
REMARK    1  A    between atoms: C1_1  and  C2_2
REMARK    2  A    between atoms: C2_2  and  C3_3
REMARK    3  A    between atoms: C2_2  and  N2_13
REMARK    4  A    between atoms: C5_7  and  O2_8
REMARK    5  A    between atoms: C7_10  and  C8_11
REMARK    6  A    between atoms: C8_11  and  O3_12
REMARK    7  A    between atoms: N2_13  and  C9_14
REMARK    8  A    between atoms: N2_13  and  S1_20
REMARK    9  A    between atoms: S1_20  and  C15_21
REMARK                            x       y       z     vdW  Elec       q    Type
REMARK                         _______ _______ _______ _____ _____    ______ ____
ROOT
ATOM      1  C1  UNL     1      -1.175   2.353   0.889  0.00  0.00    +0.040 C 
ATOM      2  C2  UNL     1      -0.408   1.025   0.820  0.00  0.00    +0.180 C 
ENDROOT
BRANCH   2   3
ATOM      3  C3  UNL     1       0.492   0.964  -0.396  0.00  0.00    +0.238 C 
ATOM      4  O1  UNL     1       0.163   1.588  -1.443  0.00  0.00    -0.273 OA
ATOM      5  N1  UNL     1       1.694   0.167  -0.398  0.00  0.00    -0.292 N 
ATOM      6  C4  UNL     1       1.947  -0.905   0.554  0.00  0.00    +0.139 C 
ATOM      7  C5  UNL     1       3.242  -1.576   0.096  0.00  0.00    +0.134 C 
ATOM      8  C6  UNL     1       3.436  -1.129  -1.352  0.00  0.00    +0.057 C 
ATOM      9  C7  UNL     1       2.662   0.185  -1.490  0.00  0.00    +0.104 C 
BRANCH   7  10
ATOM     10  O2  UNL     1       4.324  -1.129   0.873  0.00  0.00    -0.390 OA
ATOM     11  H8  UNL     1       4.284  -1.633   1.727  0.00  0.00    +0.210 HD
ENDBRANCH   7  10
BRANCH   9  12
ATOM     12  C8  UNL     1       3.594   1.401  -1.364  0.00  0.00    +0.178 C 
BRANCH  12  13
ATOM     13  O3  UNL     1       2.869   2.585  -1.553  0.00  0.00    -0.393 OA
ATOM     14  H14 UNL     1       3.514   3.328  -1.421  0.00  0.00    +0.209 HD
ENDBRANCH  12  13
ENDBRANCH   9  12
ENDBRANCH   2   3
BRANCH   2  15
ATOM     15  N2  UNL     1      -1.345  -0.110   0.842  0.00  0.00    -0.196 N 
BRANCH  15  16
ATOM     16  C9  UNL     1      -2.222  -0.369  -0.264  0.00  0.00    +0.052 A 
ATOM     17  C10 UNL     1      -1.763  -1.089  -1.377  0.00  0.00    +0.025 A 
ATOM     18  C11 UNL     1      -2.625  -1.353  -2.447  0.00  0.00    +0.002 A 
ATOM     19  C12 UNL     1      -3.949  -0.907  -2.406  0.00  0.00    +0.000 A 
ATOM     20  C13 UNL     1      -4.415  -0.199  -1.293  0.00  0.00    +0.002 A 
ATOM     21  C14 UNL     1      -3.556   0.066  -0.223  0.00  0.00    +0.025 A 
ENDBRANCH  15  16
BRANCH  15  22
ATOM     22  S1  UNL     1      -1.593  -0.995   2.319  0.00  0.00    +0.043 S 
ATOM     23  C15 UNL     1      -2.375   0.047   3.531  0.00  0.00    +0.218 C 
ATOM     24  O4  UNL     1      -2.474  -2.185   2.052  0.00  0.00    -0.155 OA
ATOM     25  O5  UNL     1      -0.273  -1.480   2.851  0.00  0.00    -0.155 OA
ENDBRANCH  15  22
ENDBRANCH   2  15
TORSDOF 7
