REMARK  Name = /home/qwerty/github/datacon2025hack/step_04_hit_selection/docking/ligands/lig_784.pdb
REMARK  8 active torsions:
REMARK  status: ('A' for Active; 'I' for Inactive)
REMARK    1  A    between atoms: C1_1  and  C2_2
REMARK    2  A    between atoms: C2_2  and  N1_3
REMARK    3  A    between atoms: C5_8  and  C6_9
REMARK    4  A    between atoms: N2_11  and  C7_12
REMARK    5  A    between atoms: C14_19  and  O4_20
REMARK    6  A    between atoms: O4_20  and  C15_21
REMARK    7  A    between atoms: C17_23  and  C18_24
REMARK    8  A    between atoms: N4_28  and  C21_29
REMARK                            x       y       z     vdW  Elec       q    Type
REMARK                         _______ _______ _______ _____ _____    ______ ____
ROOT
ATOM      1  N1  UNL     1      -3.281   0.986  -0.064  0.00  0.00    -0.287 N 
ATOM      2  C3  UNL     1      -3.291   1.850   1.089  0.00  0.00    +0.242 C 
ATOM      3  O1  UNL     1      -3.753   3.023   1.011  0.00  0.00    -0.273 OA
ATOM      4  C4  UNL     1      -2.681   1.386   2.386  0.00  0.00    +0.256 C 
ATOM      5  O2  UNL     1      -2.659  -0.030   2.512  0.00  0.00    -0.356 OA
ATOM      6  C5  UNL     1      -2.089  -0.660   1.371  0.00  0.00    +0.232 C 
ATOM      7  C17 UNL     1      -2.999  -0.446   0.131  0.00  0.00    +0.180 C 
ENDROOT
BRANCH   7   8
ATOM      8  C18 UNL     1      -4.302  -1.192   0.318  0.00  0.00    +0.133 A 
ATOM      9  N3  UNL     1      -5.330  -0.700   1.042  0.00  0.00    -0.239 NA
ATOM     10  C19 UNL     1      -6.266  -1.670   1.001  0.00  0.00    +0.130 A 
ATOM     11  C20 UNL     1      -5.797  -2.734   0.268  0.00  0.00    +0.106 A 
ATOM     12  N4  UNL     1      -4.554  -2.434  -0.149  0.00  0.00    -0.336 N 
ATOM     13  C21 UNL     1      -3.691  -3.274  -0.972  0.00  0.00    +0.150 C 
ENDBRANCH   7   8
BRANCH   6  14
ATOM     14  C6  UNL     1      -0.622  -0.285   1.215  0.00  0.00    +0.248 C 
ATOM     15  O3  UNL     1       0.105  -0.350   2.236  0.00  0.00    -0.273 OA
ATOM     16  N2  UNL     1      -0.052   0.142  -0.039  0.00  0.00    -0.283 N 
ATOM     17  H9  UNL     1      -0.688   0.415  -0.823  0.00  0.00    +0.155 HD
BRANCH  16  18
ATOM     18  C7  UNL     1       1.354   0.377  -0.233  0.00  0.00    +0.034 A 
ATOM     19  C8  UNL     1       1.766   1.422  -1.086  0.00  0.00    +0.023 A 
ATOM     20  C9  UNL     1       3.130   1.678  -1.296  0.00  0.00    +0.006 A 
ATOM     21  C10 UNL     1       4.071   0.880  -0.645  0.00  0.00    -0.042 A 
ATOM     22  C11 UNL     1       3.681  -0.149   0.173  0.00  0.00    -0.040 A 
ATOM     23  C12 UNL     1       2.331  -0.437   0.381  0.00  0.00    +0.027 A 
ATOM     24  C13 UNL     1       4.841  -0.887   0.723  0.00  0.00    +0.067 C 
ATOM     25  C14 UNL     1       6.056  -0.022   0.318  0.00  0.00    +0.126 C 
ATOM     26  C16 UNL     1       5.546   0.976  -0.752  0.00  0.00    +0.067 C 
BRANCH  25  27
ATOM     27  O4  UNL     1       7.084  -0.855  -0.188  0.00  0.00    -0.379 OA
ATOM     28  C15 UNL     1       8.324  -0.178  -0.168  0.00  0.00    +0.194 C 
ENDBRANCH  25  27
ENDBRANCH  16  18
ENDBRANCH   6  14
BRANCH   1  30
ATOM     29  C1  UNL     1      -2.813   2.399  -2.033  0.00  0.00    +0.024 C 
ATOM     30  C2  UNL     1      -3.804   1.460  -1.356  0.00  0.00    +0.105 C 
ENDBRANCH   1  30
TORSDOF 5
