REMARK  Name = /home/qwerty/github/datacon2025hack/step_04_hit_selection/docking/ligands/lig_651.pdb
REMARK  3 active torsions:
REMARK  status: ('A' for Active; 'I' for Inactive)
REMARK    1  A    between atoms: C1_2  and  C8_12
REMARK    2  A    between atoms: N1_3  and  C2_4
REMARK    3  A    between atoms: N2_14  and  C9_15
REMARK                            x       y       z     vdW  Elec       q    Type
REMARK                         _______ _______ _______ _____ _____    ______ ____
ROOT
ATOM      1  C8  UNL     1      -1.326  -0.620   1.057  0.00  0.00    +0.300 C 
ATOM      2  O2  UNL     1      -1.573  -0.884   2.265  0.00  0.00    -0.265 OA
ATOM      3  N2  UNL     1       0.027  -0.669   0.576  0.00  0.00    -0.303 N 
ATOM      4  H5  UNL     1       0.210  -0.460  -0.432  0.00  0.00    +0.149 HD
ENDROOT
BRANCH   3   5
ATOM      5  C9  UNL     1       1.154  -0.985   1.464  0.00  0.00    +0.092 C 
ATOM      6  C10 UNL     1       1.530   0.245   2.293  0.00  0.00    +0.043 C 
ATOM      7  C11 UNL     1       2.652   0.930   1.524  0.00  0.00    +0.108 C 
ATOM      8  N3  UNL     1       3.194  -0.084   0.632  0.00  0.00    -0.311 N 
ATOM      9  C12 UNL     1       4.410   0.040  -0.136  0.00  0.00    +0.157 A 
ATOM     10  N4  UNL     1       4.930  -1.071  -0.733  0.00  0.00    -0.237 NA
ATOM     11  C13 UNL     1       6.070  -1.036  -1.471  0.00  0.00    +0.113 A 
ATOM     12  C14 UNL     1       6.753   0.167  -1.644  0.00  0.00    +0.023 A 
ATOM     13  C15 UNL     1       6.249   1.326  -1.054  0.00  0.00    +0.043 A 
ATOM     14  C16 UNL     1       5.075   1.275  -0.298  0.00  0.00    +0.163 A 
ATOM     15  F2  UNL     1       4.600   2.424   0.241  0.00  0.00    -0.202 F 
ATOM     16  C17 UNL     1       2.415  -1.312   0.661  0.00  0.00    +0.129 C 
ENDBRANCH   3   5
BRANCH   1  18
ATOM     17  O1  UNL     1      -2.189  -0.021  -1.063  0.00  0.00    -0.265 OA
ATOM     18  C1  UNL     1      -2.434  -0.270   0.148  0.00  0.00    +0.303 C 
ATOM     19  N1  UNL     1      -3.779  -0.173   0.647  0.00  0.00    -0.275 N 
ATOM     20  H1  UNL     1      -3.916  -0.074   1.678  0.00  0.00    +0.155 HD
BRANCH  19  21
ATOM     21  C2  UNL     1      -4.941  -0.093  -0.197  0.00  0.00    +0.070 A 
ATOM     22  C3  UNL     1      -5.012  -0.808  -1.408  0.00  0.00    +0.041 A 
ATOM     23  C4  UNL     1      -6.160  -0.738  -2.205  0.00  0.00    +0.020 A 
ATOM     24 BR1  UNL     1      -6.244  -1.711  -3.846  0.00  0.00    -0.050 Br
ATOM     25  C5  UNL     1      -7.250   0.034  -1.794  0.00  0.00    +0.018 A 
ATOM     26  C6  UNL     1      -7.197   0.730  -0.584  0.00  0.00    +0.041 A 
ATOM     27  C7  UNL     1      -6.052   0.663   0.216  0.00  0.00    +0.145 A 
ATOM     28  F1  UNL     1      -6.019   1.349   1.387  0.00  0.00    -0.204 F 
ENDBRANCH  19  21
ENDBRANCH   1  18
TORSDOF 3
