REMARK  Name = /home/qwerty/github/datacon2025hack/step_04_hit_selection/docking/ligands/lig_802.pdb
REMARK  7 active torsions:
REMARK  status: ('A' for Active; 'I' for Inactive)
REMARK    1  A    between atoms: C1_1  and  O1_2
REMARK    2  A    between atoms: O1_2  and  C2_3
REMARK    3  A    between atoms: C11_12  and  N1_13
REMARK    4  A    between atoms: N1_13  and  C12_14
REMARK    5  A    between atoms: N2_17  and  C14_18
REMARK    6  A    between atoms: C15_19  and  C16_20
REMARK    7  A    between atoms: C17_23  and  C18_24
REMARK                            x       y       z     vdW  Elec       q    Type
REMARK                         _______ _______ _______ _____ _____    ______ ____
ROOT
ATOM      1  N1  UNL     1      -0.630   0.288   0.836  0.00  0.00    -0.281 N 
ATOM      2  C12 UNL     1      -0.319  -0.789   1.786  0.00  0.00    +0.134 C 
ATOM      3  C13 UNL     1      -1.970   0.401   0.305  0.00  0.00    +0.307 C 
ATOM      4  O2  UNL     1      -2.233   1.273  -0.569  0.00  0.00    -0.252 OA
ATOM      5  N2  UNL     1      -3.022  -0.458   0.773  0.00  0.00    -0.265 N 
ATOM      6  H17 UNL     1      -2.998  -0.794   1.761  0.00  0.00    +0.157 HD
ENDROOT
BRANCH   1  16
ATOM      7  C2  UNL     1       3.705  -0.893  -1.530  0.00  0.00    +0.120 A 
ATOM      8  C3  UNL     1       2.375  -1.214  -1.810  0.00  0.00    +0.046 A 
ATOM      9  C4  UNL     1       1.333  -0.539  -1.176  0.00  0.00    +0.009 A 
ATOM     10  C5  UNL     1       1.599   0.466  -0.230  0.00  0.00    -0.024 A 
ATOM     11  C6  UNL     1       2.943   0.833   0.023  0.00  0.00    -0.039 A 
ATOM     12  C7  UNL     1       3.984   0.133  -0.609  0.00  0.00    +0.049 A 
ATOM     13  C8  UNL     1       3.292   1.908   1.023  0.00  0.00    +0.035 C 
ATOM     14  C9  UNL     1       2.136   2.882   1.253  0.00  0.00    +0.007 C 
ATOM     15  C10 UNL     1       0.861   2.110   1.586  0.00  0.00    +0.028 C 
ATOM     16  C11 UNL     1       0.436   1.218   0.403  0.00  0.00    +0.108 C 
BRANCH   7  18
ATOM     17  C1  UNL     1       6.110  -1.393  -2.000  0.00  0.00    +0.277 C 
ATOM     18  O1  UNL     1       4.716  -1.611  -2.187  0.00  0.00    -0.495 OA
ENDBRANCH   7  18
ENDBRANCH   1  16
BRANCH   5  19
ATOM     19  C14 UNL     1      -4.198  -0.739   0.002  0.00  0.00    +0.100 A 
ATOM     20  C15 UNL     1      -4.299  -1.001  -1.353  0.00  0.00    +0.102 A 
ATOM     21  C16 UNL     1      -3.204  -1.000  -2.371  0.00  0.00    +0.071 C 
ATOM     22  N3  UNL     1      -5.579  -1.315  -1.638  0.00  0.00    -0.081 NA
ATOM     23  O3  UNL     1      -6.245  -1.278  -0.517  0.00  0.00    -0.358 OA
ATOM     24  C17 UNL     1      -5.467  -0.952   0.490  0.00  0.00    +0.156 A 
ATOM     25  C18 UNL     1      -5.911  -0.859   1.912  0.00  0.00    +0.091 C 
ENDBRANCH   5  19
TORSDOF 3
