MODEL 1
REMARK VINA RESULT:    -6.496      0.000      0.000
REMARK INTER + INTRA:          -8.092
REMARK INTER:                  -7.635
REMARK INTRA:                  -0.457
REMARK UNBOUND:                -0.457
REMARK  Name = /home/qwerty/github/datacon2025hack/step_04_hit_selection/docking/ligands/lig_285.pdb
REMARK  5 active torsions:
REMARK  status: ('A' for Active; 'I' for Inactive)
REMARK    1  A    between atoms: C1_1  and  O1_2
REMARK    2  A    between atoms: O1_2  and  C2_3
REMARK    3  A    between atoms: C9_11  and  N1_12
REMARK    4  A    between atoms: N2_15  and  C11_16
REMARK    5  A    between atoms: C15_20  and  C16_21
REMARK                            x       y       z     vdW  Elec       q    Type
REMARK                         _______ _______ _______ _____ _____    ______ ____
ROOT
ATOM      1  N1  UNL     1      10.773   4.047  20.805  0.00  0.00    -0.293 N 
ATOM      2  C10 UNL     1      12.035   3.441  21.117  0.00  0.00    +0.304 C 
ATOM      3  O3  UNL     1      12.886   4.068  21.806  0.00  0.00    -0.252 OA
ATOM      4  N2  UNL     1      12.335   2.130  20.616  0.00  0.00    -0.267 N 
ATOM      5  H10 UNL     1      10.069   3.476  20.283  0.00  0.00    +0.151 HD
ATOM      6  H11 UNL     1      11.752   1.763  19.830  0.00  0.00    +0.156 HD
ENDROOT
BRANCH   1  15
ATOM      7  C2  UNL     1       8.678   9.241  21.609  0.00  0.00    +0.162 A 
ATOM      8  C3  UNL     1       9.282  10.366  21.013  0.00  0.00    +0.049 A 
ATOM      9  C4  UNL     1      10.367  10.207  20.147  0.00  0.00    +0.004 A 
ATOM     10  C5  UNL     1      10.867   8.932  19.872  0.00  0.00    +0.007 A 
ATOM     11  C6  UNL     1      10.288   7.804  20.469  0.00  0.00    -0.000 A 
ATOM     12  C7  UNL     1       9.179   7.963  21.325  0.00  0.00    +0.165 A 
ATOM     13  O2  UNL     1       8.585   6.841  21.918  0.00  0.00    -0.486 OA
ATOM     14  C8  UNL     1       8.922   5.509  21.531  0.00  0.00    +0.251 C 
ATOM     15  C9  UNL     1      10.426   5.405  21.237  0.00  0.00    +0.116 C 
ATOM     16  C18 UNL     1      10.809   6.425  20.149  0.00  0.00    +0.064 C 
BRANCH   7  18
ATOM     17  C1  UNL     1       7.593  10.096  23.695  0.00  0.00    +0.277 C 
ATOM     18  O1  UNL     1       7.583   9.354  22.479  0.00  0.00    -0.491 OA
ENDBRANCH   7  18
ENDBRANCH   1  15
BRANCH   4  19
ATOM     19  C11 UNL     1      13.499   1.382  21.002  0.00  0.00    +0.070 A 
ATOM     20  C12 UNL     1      14.617   1.372  20.156  0.00  0.00    +0.026 A 
ATOM     21  C13 UNL     1      15.755   0.641  20.498  0.00  0.00    +0.002 A 
ATOM     22  C14 UNL     1      15.783  -0.102  21.680  0.00  0.00    +0.006 A 
ATOM     23  C15 UNL     1      14.665  -0.125  22.528  0.00  0.00    -0.013 A 
ATOM     24  C16 UNL     1      14.680  -0.946  23.784  0.00  0.00    +0.047 C 
ATOM     25  C17 UNL     1      13.518   0.612  22.182  0.00  0.00    +0.147 A 
ATOM     26  F1  UNL     1      12.411   0.535  22.965  0.00  0.00    -0.203 F 
ENDBRANCH   4  19
TORSDOF 3
ENDMDL
MODEL 2
REMARK VINA RESULT:    -6.113     15.844     17.165
REMARK INTER + INTRA:          -7.642
REMARK INTER:                  -7.210
REMARK INTRA:                  -0.432
REMARK UNBOUND:                -0.457
REMARK  Name = /home/qwerty/github/datacon2025hack/step_04_hit_selection/docking/ligands/lig_285.pdb
REMARK  5 active torsions:
REMARK  status: ('A' for Active; 'I' for Inactive)
REMARK    1  A    between atoms: C1_1  and  O1_2
REMARK    2  A    between atoms: O1_2  and  C2_3
REMARK    3  A    between atoms: C9_11  and  N1_12
REMARK    4  A    between atoms: N2_15  and  C11_16
REMARK    5  A    between atoms: C15_20  and  C16_21
REMARK                            x       y       z     vdW  Elec       q    Type
REMARK                         _______ _______ _______ _____ _____    ______ ____
ROOT
ATOM      1  N1  UNL     1      17.488  11.532  36.964  0.00  0.00    -0.293 N 
ATOM      2  C10 UNL     1      18.282  10.411  36.550  0.00  0.00    +0.304 C 
ATOM      3  O3  UNL     1      17.878   9.656  35.623  0.00  0.00    -0.252 OA
ATOM      4  N2  UNL     1      19.523  10.137  37.216  0.00  0.00    -0.267 N 
ATOM      5  H10 UNL     1      17.881  12.170  37.693  0.00  0.00    +0.151 HD
ATOM      6  H11 UNL     1      19.689  10.588  38.144  0.00  0.00    +0.156 HD
ENDROOT
BRANCH   1  15
ATOM      7  C2  UNL     1      12.366  13.449  35.516  0.00  0.00    +0.162 A 
ATOM      8  C3  UNL     1      11.197  12.800  35.960  0.00  0.00    +0.049 A 
ATOM      9  C4  UNL     1      11.284  11.711  36.832  0.00  0.00    +0.004 A 
ATOM     10  C5  UNL     1      12.531  11.255  37.265  0.00  0.00    +0.007 A 
ATOM     11  C6  UNL     1      13.704  11.879  36.820  0.00  0.00    -0.000 A 
ATOM     12  C7  UNL     1      13.615  12.992  35.958  0.00  0.00    +0.165 A 
ATOM     13  O2  UNL     1      14.781  13.631  35.517  0.00  0.00    -0.486 OA
ATOM     14  C8  UNL     1      16.064  13.337  36.068  0.00  0.00    +0.251 C 
ATOM     15  C9  UNL     1      16.185  11.835  36.364  0.00  0.00    +0.116 C 
ATOM     16  C18 UNL     1      15.049  11.405  37.311  0.00  0.00    +0.064 C 
BRANCH   7  18
ATOM     17  C1  UNL     1      12.243  14.451  33.227  0.00  0.00    +0.277 C 
ATOM     18  O1  UNL     1      12.325  14.549  34.646  0.00  0.00    -0.491 OA
ENDBRANCH   7  18
ENDBRANCH   1  15
BRANCH   4  19
ATOM     19  C11 UNL     1      20.456   9.139  36.773  0.00  0.00    +0.070 A 
ATOM     20  C12 UNL     1      20.628   7.976  37.537  0.00  0.00    +0.026 A 
ATOM     21  C13 UNL     1      21.539   6.997  37.139  0.00  0.00    +0.002 A 
ATOM     22  C14 UNL     1      22.301   7.176  35.983  0.00  0.00    +0.006 A 
ATOM     23  C15 UNL     1      22.162   8.345  35.218  0.00  0.00    -0.013 A 
ATOM     24  C16 UNL     1      23.000   8.555  33.991  0.00  0.00    +0.047 C 
ATOM     25  C17 UNL     1      21.244   9.331  35.620  0.00  0.00    +0.147 A 
ATOM     26  F1  UNL     1      21.158  10.492  34.920  0.00  0.00    -0.203 F 
ENDBRANCH   4  19
TORSDOF 3
ENDMDL
MODEL 3
REMARK VINA RESULT:    -6.075     14.811     16.218
REMARK INTER + INTRA:          -7.596
REMARK INTER:                  -7.202
REMARK INTRA:                  -0.395
REMARK UNBOUND:                -0.457
REMARK  Name = /home/qwerty/github/datacon2025hack/step_04_hit_selection/docking/ligands/lig_285.pdb
REMARK  5 active torsions:
REMARK  status: ('A' for Active; 'I' for Inactive)
REMARK    1  A    between atoms: C1_1  and  O1_2
REMARK    2  A    between atoms: O1_2  and  C2_3
REMARK    3  A    between atoms: C9_11  and  N1_12
REMARK    4  A    between atoms: N2_15  and  C11_16
REMARK    5  A    between atoms: C15_20  and  C16_21
REMARK                            x       y       z     vdW  Elec       q    Type
REMARK                         _______ _______ _______ _____ _____    ______ ____
ROOT
ATOM      1  N1  UNL     1      21.729   5.822  34.536  0.00  0.00    -0.293 N 
ATOM      2  C10 UNL     1      21.187   4.759  33.740  0.00  0.00    +0.304 C 
ATOM      3  O3  UNL     1      20.021   4.853  33.266  0.00  0.00    -0.252 OA
ATOM      4  N2  UNL     1      21.965   3.576  33.511  0.00  0.00    -0.267 N 
ATOM      5  H10 UNL     1      22.718   5.735  34.863  0.00  0.00    +0.151 HD
ATOM      6  H11 UNL     1      22.784   3.402  34.137  0.00  0.00    +0.156 HD
ENDROOT
BRANCH   1  15
ATOM      7  C2  UNL     1      19.563  10.627  36.595  0.00  0.00    +0.162 A 
ATOM      8  C3  UNL     1      18.547  10.603  37.569  0.00  0.00    +0.049 A 
ATOM      9  C4  UNL     1      18.107   9.388  38.101  0.00  0.00    +0.004 A 
ATOM     10  C5  UNL     1      18.669   8.186  37.665  0.00  0.00    +0.007 A 
ATOM     11  C6  UNL     1      19.670   8.191  36.685  0.00  0.00    -0.000 A 
ATOM     12  C7  UNL     1      20.129   9.418  36.164  0.00  0.00    +0.165 A 
ATOM     13  O2  UNL     1      21.138   9.434  35.193  0.00  0.00    -0.486 OA
ATOM     14  C8  UNL     1      21.880   8.265  34.849  0.00  0.00    +0.251 C 
ATOM     15  C9  UNL     1      20.964   7.032  34.855  0.00  0.00    +0.116 C 
ATOM     16  C18 UNL     1      20.298   6.894  36.236  0.00  0.00    +0.064 C 
BRANCH   7  18
ATOM     17  C1  UNL     1      19.301  12.641  35.133  0.00  0.00    +0.277 C 
ATOM     18  O1  UNL     1      20.039  11.824  36.038  0.00  0.00    -0.491 OA
ENDBRANCH   7  18
ENDBRANCH   1  15
BRANCH   4  19
ATOM     19  C11 UNL     1      21.575   2.532  32.605  0.00  0.00    +0.070 A 
ATOM     20  C12 UNL     1      22.182   2.458  31.344  0.00  0.00    +0.026 A 
ATOM     21  C13 UNL     1      21.812   1.464  30.437  0.00  0.00    +0.002 A 
ATOM     22  C14 UNL     1      20.816   0.544  30.774  0.00  0.00    +0.006 A 
ATOM     23  C15 UNL     1      20.178   0.617  32.022  0.00  0.00    -0.013 A 
ATOM     24  C16 UNL     1      19.088  -0.352  32.376  0.00  0.00    +0.047 C 
ATOM     25  C17 UNL     1      20.553   1.620  32.934  0.00  0.00    +0.147 A 
ATOM     26  F1  UNL     1      19.889   1.734  34.114  0.00  0.00    -0.203 F 
ENDBRANCH   4  19
TORSDOF 3
ENDMDL
MODEL 4
REMARK VINA RESULT:    -6.073      3.014      9.455
REMARK INTER + INTRA:          -7.595
REMARK INTER:                  -7.216
REMARK INTRA:                  -0.379
REMARK UNBOUND:                -0.457
REMARK  Name = /home/qwerty/github/datacon2025hack/step_04_hit_selection/docking/ligands/lig_285.pdb
REMARK  5 active torsions:
REMARK  status: ('A' for Active; 'I' for Inactive)
REMARK    1  A    between atoms: C1_1  and  O1_2
REMARK    2  A    between atoms: O1_2  and  C2_3
REMARK    3  A    between atoms: C9_11  and  N1_12
REMARK    4  A    between atoms: N2_15  and  C11_16
REMARK    5  A    between atoms: C15_20  and  C16_21
REMARK                            x       y       z     vdW  Elec       q    Type
REMARK                         _______ _______ _______ _____ _____    ______ ____
ROOT
ATOM      1  N1  UNL     1      13.479   1.786  21.305  0.00  0.00    -0.293 N 
ATOM      2  C10 UNL     1      12.388   2.643  21.670  0.00  0.00    +0.304 C 
ATOM      3  O3  UNL     1      12.311   3.107  22.841  0.00  0.00    -0.252 OA
ATOM      4  N2  UNL     1      11.369   2.943  20.705  0.00  0.00    -0.267 N 
ATOM      5  H10 UNL     1      13.543   1.468  20.312  0.00  0.00    +0.151 HD
ATOM      6  H11 UNL     1      11.302   2.331  19.861  0.00  0.00    +0.156 HD
ENDROOT
BRANCH   1  15
ATOM      7  C2  UNL     1      17.870  -0.397  24.128  0.00  0.00    +0.162 A 
ATOM      8  C3  UNL     1      17.713  -1.536  24.942  0.00  0.00    +0.049 A 
ATOM      9  C4  UNL     1      16.482  -2.193  25.005  0.00  0.00    +0.004 A 
ATOM     10  C5  UNL     1      15.394  -1.721  24.267  0.00  0.00    +0.007 A 
ATOM     11  C6  UNL     1      15.529  -0.580  23.465  0.00  0.00    -0.000 A 
ATOM     12  C7  UNL     1      16.777   0.070  23.384  0.00  0.00    +0.165 A 
ATOM     13  O2  UNL     1      16.926   1.204  22.575  0.00  0.00    -0.486 OA
ATOM     14  C8  UNL     1      15.916   1.620  21.656  0.00  0.00    +0.251 C 
ATOM     15  C9  UNL     1      14.522   1.394  22.259  0.00  0.00    +0.116 C 
ATOM     16  C18 UNL     1      14.362  -0.088  22.645  0.00  0.00    +0.064 C 
BRANCH   7  18
ATOM     17  C1  UNL     1      19.822   0.795  25.143  0.00  0.00    +0.277 C 
ATOM     18  O1  UNL     1      19.090   0.291  24.030  0.00  0.00    -0.491 OA
ENDBRANCH   7  18
ENDBRANCH   1  15
BRANCH   4  19
ATOM     19  C11 UNL     1      10.329   3.909  20.925  0.00  0.00    +0.070 A 
ATOM     20  C12 UNL     1      10.416   5.162  20.304  0.00  0.00    +0.026 A 
ATOM     21  C13 UNL     1       9.428   6.125  20.512  0.00  0.00    +0.002 A 
ATOM     22  C14 UNL     1       8.351   5.853  21.357  0.00  0.00    +0.006 A 
ATOM     23  C15 UNL     1       8.258   4.613  22.009  0.00  0.00    -0.013 A 
ATOM     24  C16 UNL     1       7.117   4.327  22.941  0.00  0.00    +0.047 C 
ATOM     25  C17 UNL     1       9.255   3.644  21.798  0.00  0.00    +0.147 A 
ATOM     26  F1  UNL     1       9.204   2.470  22.481  0.00  0.00    -0.203 F 
ENDBRANCH   4  19
TORSDOF 3
ENDMDL
MODEL 5
REMARK VINA RESULT:    -6.056     11.267     13.410
REMARK INTER + INTRA:          -7.575
REMARK INTER:                  -7.830
REMARK INTRA:                   0.255
REMARK UNBOUND:                -0.457
REMARK  Name = /home/qwerty/github/datacon2025hack/step_04_hit_selection/docking/ligands/lig_285.pdb
REMARK  5 active torsions:
REMARK  status: ('A' for Active; 'I' for Inactive)
REMARK    1  A    between atoms: C1_1  and  O1_2
REMARK    2  A    between atoms: O1_2  and  C2_3
REMARK    3  A    between atoms: C9_11  and  N1_12
REMARK    4  A    between atoms: N2_15  and  C11_16
REMARK    5  A    between atoms: C15_20  and  C16_21
REMARK                            x       y       z     vdW  Elec       q    Type
REMARK                         _______ _______ _______ _____ _____    ______ ____
ROOT
ATOM      1  N1  UNL     1      21.751   5.411  25.978  0.00  0.00    -0.293 N 
ATOM      2  C10 UNL     1      21.859   5.226  24.559  0.00  0.00    +0.304 C 
ATOM      3  O3  UNL     1      21.501   4.136  24.033  0.00  0.00    -0.252 OA
ATOM      4  N2  UNL     1      22.404   6.276  23.747  0.00  0.00    -0.267 N 
ATOM      5  H10 UNL     1      22.001   6.346  26.372  0.00  0.00    +0.151 HD
ATOM      6  H11 UNL     1      22.947   7.030  24.225  0.00  0.00    +0.156 HD
ENDROOT
BRANCH   1  15
ATOM      7  C2  UNL     1      20.625   1.766  30.156  0.00  0.00    +0.162 A 
ATOM      8  C3  UNL     1      21.256   0.508  30.209  0.00  0.00    +0.049 A 
ATOM      9  C4  UNL     1      22.232   0.168  29.268  0.00  0.00    +0.004 A 
ATOM     10  C5  UNL     1      22.584   1.072  28.263  0.00  0.00    +0.007 A 
ATOM     11  C6  UNL     1      21.955   2.321  28.187  0.00  0.00    -0.000 A 
ATOM     12  C7  UNL     1      20.986   2.672  29.149  0.00  0.00    +0.165 A 
ATOM     13  O2  UNL     1      20.359   3.924  29.090  0.00  0.00    -0.486 OA
ATOM     14  C8  UNL     1      20.807   4.957  28.212  0.00  0.00    +0.251 C 
ATOM     15  C9  UNL     1      21.257   4.358  26.871  0.00  0.00    +0.116 C 
ATOM     16  C18 UNL     1      22.356   3.309  27.120  0.00  0.00    +0.064 C 
BRANCH   7  18
ATOM     17  C1  UNL     1      18.331   1.601  31.142  0.00  0.00    +0.277 C 
ATOM     18  O1  UNL     1      19.644   2.150  31.084  0.00  0.00    -0.491 OA
ENDBRANCH   7  18
ENDBRANCH   1  15
BRANCH   4  19
ATOM     19  C11 UNL     1      22.407   6.246  22.311  0.00  0.00    +0.070 A 
ATOM     20  C12 UNL     1      21.403   5.535  21.639  0.00  0.00    +0.026 A 
ATOM     21  C13 UNL     1      21.389   5.476  20.245  0.00  0.00    +0.002 A 
ATOM     22  C14 UNL     1      22.389   6.113  19.507  0.00  0.00    +0.006 A 
ATOM     23  C15 UNL     1      23.417   6.809  20.162  0.00  0.00    -0.013 A 
ATOM     24  C16 UNL     1      24.510   7.470  19.373  0.00  0.00    +0.047 C 
ATOM     25  C17 UNL     1      23.430   6.867  21.567  0.00  0.00    +0.147 A 
ATOM     26  F1  UNL     1      24.461   7.481  22.203  0.00  0.00    -0.203 F 
ENDBRANCH   4  19
TORSDOF 3
ENDMDL
MODEL 6
REMARK VINA RESULT:    -6.025     10.231     11.731
REMARK INTER + INTRA:          -7.538
REMARK INTER:                  -7.126
REMARK INTRA:                  -0.413
REMARK UNBOUND:                -0.457
REMARK  Name = /home/qwerty/github/datacon2025hack/step_04_hit_selection/docking/ligands/lig_285.pdb
REMARK  5 active torsions:
REMARK  status: ('A' for Active; 'I' for Inactive)
REMARK    1  A    between atoms: C1_1  and  O1_2
REMARK    2  A    between atoms: O1_2  and  C2_3
REMARK    3  A    between atoms: C9_11  and  N1_12
REMARK    4  A    between atoms: N2_15  and  C11_16
REMARK    5  A    between atoms: C15_20  and  C16_21
REMARK                            x       y       z     vdW  Elec       q    Type
REMARK                         _______ _______ _______ _____ _____    ______ ____
ROOT
ATOM      1  N1  UNL     1      21.750   5.288  22.432  0.00  0.00    -0.293 N 
ATOM      2  C10 UNL     1      21.529   4.757  23.746  0.00  0.00    +0.304 C 
ATOM      3  O3  UNL     1      21.622   5.508  24.756  0.00  0.00    -0.252 OA
ATOM      4  N2  UNL     1      21.233   3.363  23.907  0.00  0.00    -0.267 N 
ATOM      5  H10 UNL     1      21.607   4.652  21.615  0.00  0.00    +0.151 HD
ATOM      6  H11 UNL     1      21.444   2.724  23.108  0.00  0.00    +0.156 HD
ENDROOT
BRANCH   1  15
ATOM      7  C2  UNL     1      23.044  10.422  20.436  0.00  0.00    +0.162 A 
ATOM      8  C3  UNL     1      24.384  10.794  20.210  0.00  0.00    +0.049 A 
ATOM      9  C4  UNL     1      25.414   9.871  20.404  0.00  0.00    +0.004 A 
ATOM     10  C5  UNL     1      25.125   8.572  20.830  0.00  0.00    +0.007 A 
ATOM     11  C6  UNL     1      23.799   8.191  21.075  0.00  0.00    -0.000 A 
ATOM     12  C7  UNL     1      22.757   9.116  20.858  0.00  0.00    +0.165 A 
ATOM     13  O2  UNL     1      21.427   8.740  21.087  0.00  0.00    -0.486 OA
ATOM     14  C8  UNL     1      21.052   7.386  21.336  0.00  0.00    +0.251 C 
ATOM     15  C9  UNL     1      22.113   6.690  22.202  0.00  0.00    +0.116 C 
ATOM     16  C18 UNL     1      23.484   6.780  21.506  0.00  0.00    +0.064 C 
BRANCH   7  18
ATOM     17  C1  UNL     1      21.398  11.623  18.984  0.00  0.00    +0.277 C 
ATOM     18  O1  UNL     1      21.978  11.314  20.248  0.00  0.00    -0.491 OA
ENDBRANCH   7  18
ENDBRANCH   1  15
BRANCH   4  19
ATOM     19  C11 UNL     1      20.844   2.775  25.159  0.00  0.00    +0.070 A 
ATOM     20  C12 UNL     1      19.488   2.516  25.401  0.00  0.00    +0.026 A 
ATOM     21  C13 UNL     1      19.080   1.960  26.614  0.00  0.00    +0.002 A 
ATOM     22  C14 UNL     1      20.021   1.672  27.605  0.00  0.00    +0.006 A 
ATOM     23  C15 UNL     1      21.381   1.946  27.391  0.00  0.00    -0.013 A 
ATOM     24  C16 UNL     1      22.392   1.665  28.464  0.00  0.00    +0.047 C 
ATOM     25  C17 UNL     1      21.790   2.508  26.168  0.00  0.00    +0.147 A 
ATOM     26  F1  UNL     1      23.095   2.838  25.986  0.00  0.00    -0.203 F 
ENDBRANCH   4  19
TORSDOF 3
ENDMDL
MODEL 7
REMARK VINA RESULT:    -5.970     15.685     18.769
REMARK INTER + INTRA:          -7.473
REMARK INTER:                  -7.167
REMARK INTRA:                  -0.307
REMARK UNBOUND:                -0.457
REMARK  Name = /home/qwerty/github/datacon2025hack/step_04_hit_selection/docking/ligands/lig_285.pdb
REMARK  5 active torsions:
REMARK  status: ('A' for Active; 'I' for Inactive)
REMARK    1  A    between atoms: C1_1  and  O1_2
REMARK    2  A    between atoms: O1_2  and  C2_3
REMARK    3  A    between atoms: C9_11  and  N1_12
REMARK    4  A    between atoms: N2_15  and  C11_16
REMARK    5  A    between atoms: C15_20  and  C16_21
REMARK                            x       y       z     vdW  Elec       q    Type
REMARK                         _______ _______ _______ _____ _____    ______ ____
ROOT
ATOM      1  N1  UNL     1      17.427   8.629  36.978  0.00  0.00    -0.293 N 
ATOM      2  C10 UNL     1      16.688   9.804  36.614  0.00  0.00    +0.304 C 
ATOM      3  O3  UNL     1      17.189  10.647  35.819  0.00  0.00    -0.252 OA
ATOM      4  N2  UNL     1      15.391  10.030  37.184  0.00  0.00    -0.267 N 
ATOM      5  H10 UNL     1      16.959   7.924  37.591  0.00  0.00    +0.151 HD
ATOM      6  H11 UNL     1      15.131   9.484  38.036  0.00  0.00    +0.156 HD
ENDROOT
BRANCH   1  15
ATOM      7  C2  UNL     1      22.348   6.514  35.154  0.00  0.00    +0.162 A 
ATOM      8  C3  UNL     1      23.419   6.303  36.044  0.00  0.00    +0.049 A 
ATOM      9  C4  UNL     1      23.258   6.543  37.411  0.00  0.00    +0.004 A 
ATOM     10  C5  UNL     1      22.034   7.000  37.905  0.00  0.00    +0.007 A 
ATOM     11  C6  UNL     1      20.963   7.230  37.032  0.00  0.00    -0.000 A 
ATOM     12  C7  UNL     1      21.119   6.967  35.655  0.00  0.00    +0.165 A 
ATOM     13  O2  UNL     1      20.051   7.182  34.775  0.00  0.00    -0.486 OA
ATOM     14  C8  UNL     1      18.730   7.462  35.237  0.00  0.00    +0.251 C 
ATOM     15  C9  UNL     1      18.781   8.367  36.477  0.00  0.00    +0.116 C 
ATOM     16  C18 UNL     1      19.633   7.696  37.569  0.00  0.00    +0.064 C 
BRANCH   7  18
ATOM     17  C1  UNL     1      23.615   5.726  33.146  0.00  0.00    +0.277 C 
ATOM     18  O1  UNL     1      22.464   6.281  33.775  0.00  0.00    -0.491 OA
ENDBRANCH   7  18
ENDBRANCH   1  15
BRANCH   4  19
ATOM     19  C11 UNL     1      14.515  11.089  36.765  0.00  0.00    +0.070 A 
ATOM     20  C12 UNL     1      14.798  12.405  37.155  0.00  0.00    +0.026 A 
ATOM     21  C13 UNL     1      13.956  13.451  36.776  0.00  0.00    +0.002 A 
ATOM     22  C14 UNL     1      12.813  13.192  36.018  0.00  0.00    +0.006 A 
ATOM     23  C15 UNL     1      12.499  11.877  35.638  0.00  0.00    -0.013 A 
ATOM     24  C16 UNL     1      11.256  11.590  34.847  0.00  0.00    +0.047 C 
ATOM     25  C17 UNL     1      13.348  10.824  36.021  0.00  0.00    +0.147 A 
ATOM     26  F1  UNL     1      13.010   9.544  35.713  0.00  0.00    -0.203 F 
ENDBRANCH   4  19
TORSDOF 3
ENDMDL
MODEL 8
REMARK VINA RESULT:    -5.955      2.786      9.550
REMARK INTER + INTRA:          -7.455
REMARK INTER:                  -7.057
REMARK INTRA:                  -0.398
REMARK UNBOUND:                -0.457
REMARK  Name = /home/qwerty/github/datacon2025hack/step_04_hit_selection/docking/ligands/lig_285.pdb
REMARK  5 active torsions:
REMARK  status: ('A' for Active; 'I' for Inactive)
REMARK    1  A    between atoms: C1_1  and  O1_2
REMARK    2  A    between atoms: O1_2  and  C2_3
REMARK    3  A    between atoms: C9_11  and  N1_12
REMARK    4  A    between atoms: N2_15  and  C11_16
REMARK    5  A    between atoms: C15_20  and  C16_21
REMARK                            x       y       z     vdW  Elec       q    Type
REMARK                         _______ _______ _______ _____ _____    ______ ____
ROOT
ATOM      1  N1  UNL     1      13.316   1.858  21.232  0.00  0.00    -0.293 N 
ATOM      2  C10 UNL     1      12.448   2.975  21.471  0.00  0.00    +0.304 C 
ATOM      3  O3  UNL     1      12.562   3.650  22.532  0.00  0.00    -0.252 OA
ATOM      4  N2  UNL     1      11.432   3.302  20.513  0.00  0.00    -0.267 N 
ATOM      5  H10 UNL     1      13.233   1.359  20.317  0.00  0.00    +0.151 HD
ATOM      6  H11 UNL     1      11.175   2.575  19.808  0.00  0.00    +0.156 HD
ENDROOT
BRANCH   1  15
ATOM      7  C2  UNL     1      17.573  -0.497  24.121  0.00  0.00    +0.162 A 
ATOM      8  C3  UNL     1      17.347  -1.589  24.981  0.00  0.00    +0.049 A 
ATOM      9  C4  UNL     1      16.075  -2.159  25.077  0.00  0.00    +0.004 A 
ATOM     10  C5  UNL     1      15.016  -1.647  24.325  0.00  0.00    +0.007 A 
ATOM     11  C6  UNL     1      15.220  -0.550  23.477  0.00  0.00    -0.000 A 
ATOM     12  C7  UNL     1      16.508   0.012  23.363  0.00  0.00    +0.165 A 
ATOM     13  O2  UNL     1      16.725   1.100  22.509  0.00  0.00    -0.486 OA
ATOM     14  C8  UNL     1      15.739   1.544  21.578  0.00  0.00    +0.251 C 
ATOM     15  C9  UNL     1      14.337   1.436  22.196  0.00  0.00    +0.116 C 
ATOM     16  C18 UNL     1      14.083  -0.015  22.642  0.00  0.00    +0.064 C 
BRANCH   7  18
ATOM     17  C1  UNL     1      19.586   0.646  25.071  0.00  0.00    +0.277 C 
ATOM     18  O1  UNL     1      18.835   0.104  23.989  0.00  0.00    -0.491 OA
ENDBRANCH   7  18
ENDBRANCH   1  15
BRANCH   4  19
ATOM     19  C11 UNL     1      10.624   4.487  20.588  0.00  0.00    +0.070 A 
ATOM     20  C12 UNL     1       9.252   4.364  20.849  0.00  0.00    +0.026 A 
ATOM     21  C13 UNL     1       8.440   5.497  20.912  0.00  0.00    +0.002 A 
ATOM     22  C14 UNL     1       8.986   6.764  20.697  0.00  0.00    +0.006 A 
ATOM     23  C15 UNL     1      10.353   6.906  20.410  0.00  0.00    -0.013 A 
ATOM     24  C16 UNL     1      10.938   8.263  20.150  0.00  0.00    +0.047 C 
ATOM     25  C17 UNL     1      11.170   5.763  20.346  0.00  0.00    +0.147 A 
ATOM     26  F1  UNL     1      12.477   5.893  20.001  0.00  0.00    -0.203 F 
ENDBRANCH   4  19
TORSDOF 3
ENDMDL
MODEL 9
REMARK VINA RESULT:    -5.953      5.579      7.890
REMARK INTER + INTRA:          -7.454
REMARK INTER:                  -7.144
REMARK INTRA:                  -0.310
REMARK UNBOUND:                -0.457
REMARK  Name = /home/qwerty/github/datacon2025hack/step_04_hit_selection/docking/ligands/lig_285.pdb
REMARK  5 active torsions:
REMARK  status: ('A' for Active; 'I' for Inactive)
REMARK    1  A    between atoms: C1_1  and  O1_2
REMARK    2  A    between atoms: O1_2  and  C2_3
REMARK    3  A    between atoms: C9_11  and  N1_12
REMARK    4  A    between atoms: N2_15  and  C11_16
REMARK    5  A    between atoms: C15_20  and  C16_21
REMARK                            x       y       z     vdW  Elec       q    Type
REMARK                         _______ _______ _______ _____ _____    ______ ____
ROOT
ATOM      1  N1  UNL     1      17.424   1.304  23.147  0.00  0.00    -0.293 N 
ATOM      2  C10 UNL     1      18.400   1.968  23.963  0.00  0.00    +0.304 C 
ATOM      3  O3  UNL     1      18.209   3.157  24.340  0.00  0.00    -0.252 OA
ATOM      4  N2  UNL     1      19.608   1.282  24.322  0.00  0.00    -0.267 N 
ATOM      5  H10 UNL     1      17.588   0.301  22.903  0.00  0.00    +0.151 HD
ATOM      6  H11 UNL     1      19.868   0.432  23.773  0.00  0.00    +0.156 HD
ENDROOT
BRANCH   1  15
ATOM      7  C2  UNL     1      12.733   3.108  20.548  0.00  0.00    +0.162 A 
ATOM      8  C3  UNL     1      12.781   4.166  19.621  0.00  0.00    +0.049 A 
ATOM      9  C4  UNL     1      14.005   4.740  19.269  0.00  0.00    +0.004 A 
ATOM     10  C5  UNL     1      15.191   4.273  19.840  0.00  0.00    +0.007 A 
ATOM     11  C6  UNL     1      15.159   3.231  20.776  0.00  0.00    -0.000 A 
ATOM     12  C7  UNL     1      13.926   2.637  21.115  0.00  0.00    +0.165 A 
ATOM     13  O2  UNL     1      13.885   1.587  22.041  0.00  0.00    -0.486 OA
ATOM     14  C8  UNL     1      15.068   0.941  22.511  0.00  0.00    +0.251 C 
ATOM     15  C9  UNL     1      16.195   1.967  22.698  0.00  0.00    +0.116 C 
ATOM     16  C18 UNL     1      16.443   2.707  21.371  0.00  0.00    +0.064 C 
BRANCH   7  18
ATOM     17  C1  UNL     1      10.434   3.182  21.532  0.00  0.00    +0.277 C 
ATOM     18  O1  UNL     1      11.527   2.498  20.926  0.00  0.00    -0.491 OA
ENDBRANCH   7  18
ENDBRANCH   1  15
BRANCH   4  19
ATOM     19  C11 UNL     1      20.567   1.802  25.257  0.00  0.00    +0.070 A 
ATOM     20  C12 UNL     1      20.662   1.224  26.531  0.00  0.00    +0.026 A 
ATOM     21  C13 UNL     1      21.573   1.719  27.465  0.00  0.00    +0.002 A 
ATOM     22  C14 UNL     1      22.387   2.807  27.143  0.00  0.00    +0.006 A 
ATOM     23  C15 UNL     1      22.289   3.415  25.882  0.00  0.00    -0.013 A 
ATOM     24  C16 UNL     1      23.141   4.603  25.542  0.00  0.00    +0.047 C 
ATOM     25  C17 UNL     1      21.369   2.916  24.941  0.00  0.00    +0.147 A 
ATOM     26  F1  UNL     1      21.225   3.546  23.747  0.00  0.00    -0.203 F 
ENDBRANCH   4  19
TORSDOF 3
ENDMDL
