MODEL 1
REMARK VINA RESULT:    -6.618      0.000      0.000
REMARK INTER + INTRA:         -10.972
REMARK INTER:                  -9.133
REMARK INTRA:                  -1.838
REMARK UNBOUND:                -1.838
REMARK  Name = /home/qwerty/github/datacon2025hack/step_04_hit_selection/docking/ligands/lig_398.pdb
REMARK  7 active torsions:
REMARK  status: ('A' for Active; 'I' for Inactive)
REMARK    1  A    between atoms: C1_2  and  C2_3
REMARK    2  A    between atoms: C2_3  and  C3_4
REMARK    3  A    between atoms: C5_7  and  C6_8
REMARK    4  A    between atoms: N2_16  and  C12_17
REMARK    5  A    between atoms: C16_21  and  C17_22
REMARK    6  A    between atoms: C17_22  and  N3_23
REMARK    7  A    between atoms: C20_26  and  O2_27
REMARK                            x       y       z     vdW  Elec       q    Type
REMARK                         _______ _______ _______ _____ _____    ______ ____
ROOT
ATOM      1  O1  UNL     1      21.355   5.835  24.729  0.00  0.00    -0.275 OA
ATOM      2  C1  UNL     1      21.764   4.675  24.447  0.00  0.00    +0.223 C 
ATOM      3  N2  UNL     1      21.409   4.057  23.200  0.00  0.00    -0.285 N 
ATOM      4  H8  UNL     1      21.977   3.235  22.885  0.00  0.00    +0.155 HD
ENDROOT
BRANCH   3   5
ATOM      5  C12 UNL     1      20.421   4.578  22.295  0.00  0.00    +0.034 A 
ATOM      6  C13 UNL     1      20.809   5.498  21.311  0.00  0.00    +0.023 A 
ATOM      7  C14 UNL     1      19.872   6.006  20.409  0.00  0.00    +0.002 A 
ATOM      8  C15 UNL     1      18.542   5.582  20.466  0.00  0.00    +0.005 A 
ATOM      9  C16 UNL     1      18.141   4.633  21.420  0.00  0.00    -0.032 A 
ATOM     10  C23 UNL     1      19.085   4.138  22.336  0.00  0.00    +0.028 A 
BRANCH   9  11
ATOM     11  C17 UNL     1      16.709   4.143  21.455  0.00  0.00    +0.119 C 
BRANCH  11  12
ATOM     12  N3  UNL     1      16.580   2.670  21.533  0.00  0.00    -0.298 NA
ATOM     13  C18 UNL     1      16.271   2.051  20.229  0.00  0.00    +0.087 C 
ATOM     14  C19 UNL     1      16.383   0.527  20.333  0.00  0.00    +0.046 C 
ATOM     15  C20 UNL     1      15.454  -0.011  21.430  0.00  0.00    +0.117 C 
ATOM     16  C21 UNL     1      15.719   0.715  22.759  0.00  0.00    +0.046 C 
ATOM     17  C22 UNL     1      15.627   2.233  22.571  0.00  0.00    +0.087 C 
BRANCH  15  18
ATOM     18  O2  UNL     1      15.671  -1.389  21.582  0.00  0.00    -0.392 OA
ATOM     19  H19 UNL     1      15.053  -1.701  22.294  0.00  0.00    +0.210 HD
ENDBRANCH  15  18
ENDBRANCH  11  12
ENDBRANCH   9  11
ENDBRANCH   3   5
BRANCH   2  20
ATOM     20  C2  UNL     1      22.713   3.986  25.378  0.00  0.00    +0.152 C 
BRANCH  20  21
ATOM     21  C3  UNL     1      21.989   2.929  26.150  0.00  0.00    +0.058 A 
ATOM     22  C4  UNL     1      22.439   2.436  27.373  0.00  0.00    +0.071 A 
ATOM     23  S1  UNL     1      21.377   1.226  27.854  0.00  0.00    -0.075 S 
ATOM     24  C5  UNL     1      20.397   1.368  26.488  0.00  0.00    +0.109 A 
ATOM     25  N1  UNL     1      20.867   2.330  25.662  0.00  0.00    -0.243 NA
BRANCH  24  26
ATOM     26  C6  UNL     1      19.193   0.557  26.195  0.00  0.00    +0.007 A 
ATOM     27  C7  UNL     1      18.012   0.717  26.945  0.00  0.00    +0.012 A 
ATOM     28  C8  UNL     1      16.883  -0.057  26.661  0.00  0.00    +0.020 A 
ATOM     29  C9  UNL     1      16.919  -1.001  25.629  0.00  0.00    +0.041 A 
ATOM     30 CL1  UNL     1      15.503  -1.972  25.279  0.00  0.00    -0.084 Cl
ATOM     31  C10 UNL     1      18.086  -1.168  24.878  0.00  0.00    +0.020 A 
ATOM     32  C11 UNL     1      19.217  -0.395  25.158  0.00  0.00    +0.012 A 
ENDBRANCH  24  26
ENDBRANCH  20  21
ENDBRANCH   2  20
TORSDOF 7
ENDMDL
MODEL 2
REMARK VINA RESULT:    -6.510      8.864     13.050
REMARK INTER + INTRA:         -10.822
REMARK INTER:                  -8.959
REMARK INTRA:                  -1.863
REMARK UNBOUND:                -1.838
REMARK  Name = /home/qwerty/github/datacon2025hack/step_04_hit_selection/docking/ligands/lig_398.pdb
REMARK  7 active torsions:
REMARK  status: ('A' for Active; 'I' for Inactive)
REMARK    1  A    between atoms: C1_2  and  C2_3
REMARK    2  A    between atoms: C2_3  and  C3_4
REMARK    3  A    between atoms: C5_7  and  C6_8
REMARK    4  A    between atoms: N2_16  and  C12_17
REMARK    5  A    between atoms: C16_21  and  C17_22
REMARK    6  A    between atoms: C17_22  and  N3_23
REMARK    7  A    between atoms: C20_26  and  O2_27
REMARK                            x       y       z     vdW  Elec       q    Type
REMARK                         _______ _______ _______ _____ _____    ______ ____
ROOT
ATOM      1  O1  UNL     1      17.289   1.593  33.055  0.00  0.00    -0.275 OA
ATOM      2  C1  UNL     1      18.377   1.146  33.512  0.00  0.00    +0.223 C 
ATOM      3  N2  UNL     1      18.770   1.420  34.866  0.00  0.00    -0.285 N 
ATOM      4  H8  UNL     1      19.517   0.819  35.287  0.00  0.00    +0.155 HD
ENDROOT
BRANCH   3   5
ATOM      5  C12 UNL     1      18.109   2.369  35.720  0.00  0.00    +0.034 A 
ATOM      6  C13 UNL     1      17.244   1.905  36.721  0.00  0.00    +0.023 A 
ATOM      7  C14 UNL     1      16.604   2.805  37.576  0.00  0.00    +0.002 A 
ATOM      8  C15 UNL     1      16.837   4.177  37.452  0.00  0.00    +0.005 A 
ATOM      9  C16 UNL     1      17.729   4.659  36.480  0.00  0.00    -0.032 A 
ATOM     10  C23 UNL     1      18.357   3.749  35.613  0.00  0.00    +0.028 A 
BRANCH   9  11
ATOM     11  C17 UNL     1      18.014   6.142  36.374  0.00  0.00    +0.119 C 
BRANCH  11  12
ATOM     12  N3  UNL     1      19.452   6.469  36.245  0.00  0.00    -0.298 NA
ATOM     13  C18 UNL     1      20.056   6.911  37.518  0.00  0.00    +0.087 C 
ATOM     14  C19 UNL     1      21.578   7.006  37.370  0.00  0.00    +0.046 C 
ATOM     15  C20 UNL     1      21.953   7.957  36.225  0.00  0.00    +0.117 C 
ATOM     16  C21 UNL     1      21.236   7.543  34.929  0.00  0.00    +0.046 C 
ATOM     17  C22 UNL     1      19.725   7.433  35.161  0.00  0.00    +0.087 C 
BRANCH  15  18
ATOM     18  O2  UNL     1      23.343   7.925  36.037  0.00  0.00    -0.392 OA
ATOM     19  H19 UNL     1      23.728   8.633  36.618  0.00  0.00    +0.210 HD
ENDBRANCH  15  18
ENDBRANCH  11  12
ENDBRANCH   9  11
ENDBRANCH   3   5
BRANCH   2  20
ATOM     20  C2  UNL     1      19.208   0.234  32.664  0.00  0.00    +0.152 C 
BRANCH  20  21
ATOM     21  C3  UNL     1      20.210   1.032  31.891  0.00  0.00    +0.058 A 
ATOM     22  C4  UNL     1      20.876   0.540  30.771  0.00  0.00    +0.071 A 
ATOM     23  S1  UNL     1      21.950   1.725  30.258  0.00  0.00    -0.075 S 
ATOM     24  C5  UNL     1      21.536   2.810  31.482  0.00  0.00    +0.109 A 
ATOM     25  N1  UNL     1      20.584   2.281  32.285  0.00  0.00    -0.243 NA
BRANCH  24  26
ATOM     26  C6  UNL     1      22.125   4.153  31.688  0.00  0.00    +0.007 A 
ATOM     27  C7  UNL     1      21.735   5.244  30.889  0.00  0.00    +0.012 A 
ATOM     28  C8  UNL     1      22.301   6.506  31.091  0.00  0.00    +0.020 A 
ATOM     29  C9  UNL     1      23.263   6.695  32.089  0.00  0.00    +0.041 A 
ATOM     30 CL1  UNL     1      23.973   8.278  32.337  0.00  0.00    -0.084 Cl
ATOM     31  C10 UNL     1      23.656   5.618  32.889  0.00  0.00    +0.020 A 
ATOM     32  C11 UNL     1      23.092   4.353  32.691  0.00  0.00    +0.012 A 
ENDBRANCH  24  26
ENDBRANCH  20  21
ENDBRANCH   2  20
TORSDOF 7
ENDMDL
MODEL 3
REMARK VINA RESULT:    -6.426      8.156     11.087
REMARK INTER + INTRA:         -10.706
REMARK INTER:                  -9.976
REMARK INTRA:                  -0.730
REMARK UNBOUND:                -1.838
REMARK  Name = /home/qwerty/github/datacon2025hack/step_04_hit_selection/docking/ligands/lig_398.pdb
REMARK  7 active torsions:
REMARK  status: ('A' for Active; 'I' for Inactive)
REMARK    1  A    between atoms: C1_2  and  C2_3
REMARK    2  A    between atoms: C2_3  and  C3_4
REMARK    3  A    between atoms: C5_7  and  C6_8
REMARK    4  A    between atoms: N2_16  and  C12_17
REMARK    5  A    between atoms: C16_21  and  C17_22
REMARK    6  A    between atoms: C17_22  and  N3_23
REMARK    7  A    between atoms: C20_26  and  O2_27
REMARK                            x       y       z     vdW  Elec       q    Type
REMARK                         _______ _______ _______ _____ _____    ______ ____
ROOT
ATOM      1  O1  UNL     1      22.046   5.658  31.305  0.00  0.00    -0.275 OA
ATOM      2  C1  UNL     1      22.818   5.415  32.273  0.00  0.00    +0.223 C 
ATOM      3  N2  UNL     1      23.008   4.069  32.738  0.00  0.00    -0.285 N 
ATOM      4  H8  UNL     1      23.843   3.875  33.338  0.00  0.00    +0.155 HD
ENDROOT
BRANCH   3   5
ATOM      5  C12 UNL     1      22.207   2.951  32.318  0.00  0.00    +0.034 A 
ATOM      6  C13 UNL     1      21.161   2.509  33.140  0.00  0.00    +0.023 A 
ATOM      7  C14 UNL     1      20.358   1.437  32.748  0.00  0.00    +0.002 A 
ATOM      8  C15 UNL     1      20.577   0.809  31.519  0.00  0.00    +0.005 A 
ATOM      9  C16 UNL     1      21.595   1.261  30.664  0.00  0.00    -0.032 A 
ATOM     10  C23 UNL     1      22.411   2.330  31.073  0.00  0.00    +0.028 A 
BRANCH   9  11
ATOM     11  C17 UNL     1      21.806   0.607  29.314  0.00  0.00    +0.119 C 
BRANCH  11  12
ATOM     12  N3  UNL     1      21.574   1.513  28.167  0.00  0.00    -0.298 NA
ATOM     13  C18 UNL     1      20.878   0.851  27.045  0.00  0.00    +0.087 C 
ATOM     14  C19 UNL     1      20.465   1.891  25.999  0.00  0.00    +0.046 C 
ATOM     15  C20 UNL     1      21.687   2.674  25.501  0.00  0.00    +0.117 C 
ATOM     16  C21 UNL     1      22.459   3.273  26.689  0.00  0.00    +0.046 C 
ATOM     17  C22 UNL     1      22.806   2.184  27.709  0.00  0.00    +0.087 C 
BRANCH  15  18
ATOM     18  O2  UNL     1      21.260   3.697  24.640  0.00  0.00    -0.392 OA
ATOM     19  H19 UNL     1      21.323   4.547  25.150  0.00  0.00    +0.210 HD
ENDBRANCH  15  18
ENDBRANCH  11  12
ENDBRANCH   9  11
ENDBRANCH   3   5
BRANCH   2  20
ATOM     20  C2  UNL     1      23.622   6.530  32.866  0.00  0.00    +0.152 C 
BRANCH  20  21
ATOM     21  C3  UNL     1      23.220   6.742  34.291  0.00  0.00    +0.058 A 
ATOM     22  C4  UNL     1      23.975   6.288  35.371  0.00  0.00    +0.071 A 
ATOM     23  S1  UNL     1      23.135   6.674  36.774  0.00  0.00    -0.075 S 
ATOM     24  C5  UNL     1      21.845   7.390  35.957  0.00  0.00    +0.109 A 
ATOM     25  N1  UNL     1      22.042   7.341  34.619  0.00  0.00    -0.243 NA
BRANCH  24  26
ATOM     26  C6  UNL     1      20.641   7.983  36.584  0.00  0.00    +0.007 A 
ATOM     27  C7  UNL     1      19.771   7.197  37.364  0.00  0.00    +0.012 A 
ATOM     28  C8  UNL     1      18.636   7.768  37.948  0.00  0.00    +0.020 A 
ATOM     29  C9  UNL     1      18.354   9.124  37.759  0.00  0.00    +0.041 A 
ATOM     30 CL1  UNL     1      16.928   9.835  38.489  0.00  0.00    -0.084 Cl
ATOM     31  C10 UNL     1      19.211   9.913  36.986  0.00  0.00    +0.020 A 
ATOM     32  C11 UNL     1      20.348   9.347  36.401  0.00  0.00    +0.012 A 
ENDBRANCH  24  26
ENDBRANCH  20  21
ENDBRANCH   2  20
TORSDOF 7
ENDMDL
MODEL 4
REMARK VINA RESULT:    -6.419     13.572     15.777
REMARK INTER + INTRA:         -10.696
REMARK INTER:                  -9.398
REMARK INTRA:                  -1.298
REMARK UNBOUND:                -1.838
REMARK  Name = /home/qwerty/github/datacon2025hack/step_04_hit_selection/docking/ligands/lig_398.pdb
REMARK  7 active torsions:
REMARK  status: ('A' for Active; 'I' for Inactive)
REMARK    1  A    between atoms: C1_2  and  C2_3
REMARK    2  A    between atoms: C2_3  and  C3_4
REMARK    3  A    between atoms: C5_7  and  C6_8
REMARK    4  A    between atoms: N2_16  and  C12_17
REMARK    5  A    between atoms: C16_21  and  C17_22
REMARK    6  A    between atoms: C17_22  and  N3_23
REMARK    7  A    between atoms: C20_26  and  O2_27
REMARK                            x       y       z     vdW  Elec       q    Type
REMARK                         _______ _______ _______ _____ _____    ______ ____
ROOT
ATOM      1  O1  UNL     1       7.587  12.605  29.625  0.00  0.00    -0.275 OA
ATOM      2  C1  UNL     1       8.132  11.503  29.340  0.00  0.00    +0.223 C 
ATOM      3  N2  UNL     1       9.551  11.420  29.131  0.00  0.00    -0.285 N 
ATOM      4  H8  UNL     1       9.994  10.472  29.173  0.00  0.00    +0.155 HD
ENDROOT
BRANCH   3   5
ATOM      5  C12 UNL     1      10.415  12.562  29.009  0.00  0.00    +0.034 A 
ATOM      6  C13 UNL     1      10.480  13.245  27.788  0.00  0.00    +0.023 A 
ATOM      7  C14 UNL     1      11.299  14.368  27.648  0.00  0.00    +0.002 A 
ATOM      8  C15 UNL     1      12.044  14.832  28.735  0.00  0.00    +0.005 A 
ATOM      9  C16 UNL     1      11.964  14.183  29.977  0.00  0.00    -0.032 A 
ATOM     10  C23 UNL     1      11.151  13.045  30.107  0.00  0.00    +0.028 A 
BRANCH   9  11
ATOM     11  C17 UNL     1      12.740  14.711  31.166  0.00  0.00    +0.119 C 
BRANCH  11  12
ATOM     12  N3  UNL     1      12.412  14.038  32.443  0.00  0.00    -0.298 NA
ATOM     13  C18 UNL     1      11.384  14.756  33.223  0.00  0.00    +0.087 C 
ATOM     14  C19 UNL     1      10.926  13.895  34.404  0.00  0.00    +0.046 C 
ATOM     15  C20 UNL     1      12.120  13.514  35.291  0.00  0.00    +0.117 C 
ATOM     16  C21 UNL     1      13.226  12.859  34.447  0.00  0.00    +0.046 C 
ATOM     17  C22 UNL     1      13.605  13.757  33.265  0.00  0.00    +0.087 C 
BRANCH  15  18
ATOM     18  O2  UNL     1      11.688  12.627  36.289  0.00  0.00    -0.392 OA
ATOM     19  H19 UNL     1      10.704  12.745  36.372  0.00  0.00    +0.210 HD
ENDBRANCH  15  18
ENDBRANCH  11  12
ENDBRANCH   9  11
ENDBRANCH   3   5
BRANCH   2  20
ATOM     20  C2  UNL     1       7.301  10.257  29.326  0.00  0.00    +0.152 C 
BRANCH  20  21
ATOM     21  C3  UNL     1       7.557   9.491  28.067  0.00  0.00    +0.058 A 
ATOM     22  C4  UNL     1       7.565   8.098  28.012  0.00  0.00    +0.071 A 
ATOM     23  S1  UNL     1       7.957   7.656  26.439  0.00  0.00    -0.075 S 
ATOM     24  C5  UNL     1       8.111   9.246  25.896  0.00  0.00    +0.109 A 
ATOM     25  N1  UNL     1       7.868  10.119  26.900  0.00  0.00    -0.243 NA
BRANCH  24  26
ATOM     26  C6  UNL     1       8.479   9.662  24.522  0.00  0.00    +0.007 A 
ATOM     27  C7  UNL     1       7.500  10.122  23.620  0.00  0.00    +0.012 A 
ATOM     28  C8  UNL     1       7.859  10.509  22.325  0.00  0.00    +0.020 A 
ATOM     29  C9  UNL     1       9.195  10.440  21.915  0.00  0.00    +0.041 A 
ATOM     30 CL1  UNL     1       9.640  10.922  20.290  0.00  0.00    -0.084 Cl
ATOM     31  C10 UNL     1      10.174   9.985  22.803  0.00  0.00    +0.020 A 
ATOM     32  C11 UNL     1       9.820   9.598  24.100  0.00  0.00    +0.012 A 
ENDBRANCH  24  26
ENDBRANCH  20  21
ENDBRANCH   2  20
TORSDOF 7
ENDMDL
MODEL 5
REMARK VINA RESULT:    -6.390      4.035      8.295
REMARK INTER + INTRA:         -10.656
REMARK INTER:                  -9.543
REMARK INTRA:                  -1.113
REMARK UNBOUND:                -1.838
REMARK  Name = /home/qwerty/github/datacon2025hack/step_04_hit_selection/docking/ligands/lig_398.pdb
REMARK  7 active torsions:
REMARK  status: ('A' for Active; 'I' for Inactive)
REMARK    1  A    between atoms: C1_2  and  C2_3
REMARK    2  A    between atoms: C2_3  and  C3_4
REMARK    3  A    between atoms: C5_7  and  C6_8
REMARK    4  A    between atoms: N2_16  and  C12_17
REMARK    5  A    between atoms: C16_21  and  C17_22
REMARK    6  A    between atoms: C17_22  and  N3_23
REMARK    7  A    between atoms: C20_26  and  O2_27
REMARK                            x       y       z     vdW  Elec       q    Type
REMARK                         _______ _______ _______ _____ _____    ______ ____
ROOT
ATOM      1  O1  UNL     1      17.633   0.388  26.649  0.00  0.00    -0.275 OA
ATOM      2  C1  UNL     1      18.049  -0.221  25.625  0.00  0.00    +0.223 C 
ATOM      3  N2  UNL     1      19.406  -0.062  25.180  0.00  0.00    -0.285 N 
ATOM      4  H8  UNL     1      19.786  -0.776  24.515  0.00  0.00    +0.155 HD
ENDROOT
BRANCH   3   5
ATOM      5  C12 UNL     1      20.311   0.929  25.693  0.00  0.00    +0.034 A 
ATOM      6  C13 UNL     1      20.496   2.123  24.983  0.00  0.00    +0.023 A 
ATOM      7  C14 UNL     1      21.357   3.109  25.470  0.00  0.00    +0.002 A 
ATOM      8  C15 UNL     1      22.025   2.921  26.682  0.00  0.00    +0.005 A 
ATOM      9  C16 UNL     1      21.824   1.748  27.427  0.00  0.00    -0.032 A 
ATOM     10  C23 UNL     1      20.970   0.753  26.924  0.00  0.00    +0.028 A 
BRANCH   9  11
ATOM     11  C17 UNL     1      22.516   1.563  28.762  0.00  0.00    +0.119 C 
BRANCH  11  12
ATOM     12  N3  UNL     1      21.594   1.561  29.920  0.00  0.00    -0.298 NA
ATOM     13  C18 UNL     1      22.125   2.311  31.076  0.00  0.00    +0.087 C 
ATOM     14  C19 UNL     1      21.036   2.467  32.143  0.00  0.00    +0.046 C 
ATOM     15  C20 UNL     1      20.501   1.095  32.576  0.00  0.00    +0.117 C 
ATOM     16  C21 UNL     1      20.047   0.286  31.350  0.00  0.00    +0.046 C 
ATOM     17  C22 UNL     1      21.171   0.203  30.313  0.00  0.00    +0.087 C 
BRANCH  15  18
ATOM     18  O2  UNL     1      19.425   1.278  33.459  0.00  0.00    -0.392 OA
ATOM     19  H19 UNL     1      18.607   1.363  32.901  0.00  0.00    +0.210 HD
ENDBRANCH  15  18
ENDBRANCH  11  12
ENDBRANCH   9  11
ENDBRANCH   3   5
BRANCH   2  20
ATOM     20  C2  UNL     1      17.148  -1.199  24.938  0.00  0.00    +0.152 C 
BRANCH  20  21
ATOM     21  C3  UNL     1      16.809  -0.701  23.569  0.00  0.00    +0.058 A 
ATOM     22  C4  UNL     1      16.417  -1.541  22.529  0.00  0.00    +0.071 A 
ATOM     23  S1  UNL     1      16.203  -0.589  21.161  0.00  0.00    -0.075 S 
ATOM     24  C5  UNL     1      16.627   0.847  21.939  0.00  0.00    +0.109 A 
ATOM     25  N1  UNL     1      16.933   0.614  23.236  0.00  0.00    -0.243 NA
BRANCH  24  26
ATOM     26  C6  UNL     1      16.684   2.189  21.315  0.00  0.00    +0.007 A 
ATOM     27  C7  UNL     1      15.979   2.465  20.128  0.00  0.00    +0.012 A 
ATOM     28  C8  UNL     1      16.044   3.735  19.547  0.00  0.00    +0.020 A 
ATOM     29  C9  UNL     1      16.813   4.742  20.139  0.00  0.00    +0.041 A 
ATOM     30 CL1  UNL     1      16.895   6.331  19.406  0.00  0.00    -0.084 Cl
ATOM     31  C10 UNL     1      17.517   4.478  21.318  0.00  0.00    +0.020 A 
ATOM     32  C11 UNL     1      17.454   3.209  21.904  0.00  0.00    +0.012 A 
ENDBRANCH  24  26
ENDBRANCH  20  21
ENDBRANCH   2  20
TORSDOF 7
ENDMDL
MODEL 6
REMARK VINA RESULT:    -6.084      5.335      8.233
REMARK INTER + INTRA:         -10.234
REMARK INTER:                  -8.885
REMARK INTRA:                  -1.349
REMARK UNBOUND:                -1.838
REMARK  Name = /home/qwerty/github/datacon2025hack/step_04_hit_selection/docking/ligands/lig_398.pdb
REMARK  7 active torsions:
REMARK  status: ('A' for Active; 'I' for Inactive)
REMARK    1  A    between atoms: C1_2  and  C2_3
REMARK    2  A    between atoms: C2_3  and  C3_4
REMARK    3  A    between atoms: C5_7  and  C6_8
REMARK    4  A    between atoms: N2_16  and  C12_17
REMARK    5  A    between atoms: C16_21  and  C17_22
REMARK    6  A    between atoms: C17_22  and  N3_23
REMARK    7  A    between atoms: C20_26  and  O2_27
REMARK                            x       y       z     vdW  Elec       q    Type
REMARK                         _______ _______ _______ _____ _____    ______ ____
ROOT
ATOM      1  O1  UNL     1      15.932   3.648  20.971  0.00  0.00    -0.275 OA
ATOM      2  C1  UNL     1      14.968   3.262  20.255  0.00  0.00    +0.223 C 
ATOM      3  N2  UNL     1      14.616   1.871  20.187  0.00  0.00    -0.285 N 
ATOM      4  H8  UNL     1      13.668   1.626  19.819  0.00  0.00    +0.155 HD
ENDROOT
BRANCH   3   5
ATOM      5  C12 UNL     1      15.425   0.809  20.721  0.00  0.00    +0.034 A 
ATOM      6  C13 UNL     1      16.050  -0.086  19.842  0.00  0.00    +0.023 A 
ATOM      7  C14 UNL     1      16.855  -1.115  20.334  0.00  0.00    +0.002 A 
ATOM      8  C15 UNL     1      17.062  -1.248  21.709  0.00  0.00    +0.005 A 
ATOM      9  C16 UNL     1      16.474  -0.339  22.605  0.00  0.00    -0.032 A 
ATOM     10  C23 UNL     1      15.652   0.684  22.104  0.00  0.00    +0.028 A 
BRANCH   9  11
ATOM     11  C17 UNL     1      16.732  -0.458  24.092  0.00  0.00    +0.119 C 
BRANCH  11  12
ATOM     12  N3  UNL     1      15.518  -0.741  24.890  0.00  0.00    -0.298 NA
ATOM     13  C18 UNL     1      15.423   0.091  26.106  0.00  0.00    +0.087 C 
ATOM     14  C19 UNL     1      14.046  -0.083  26.754  0.00  0.00    +0.046 C 
ATOM     15  C20 UNL     1      13.783  -1.560  27.078  0.00  0.00    +0.117 C 
ATOM     16  C21 UNL     1      13.984  -2.427  25.825  0.00  0.00    +0.046 C 
ATOM     17  C22 UNL     1      15.365  -2.174  25.211  0.00  0.00    +0.087 C 
BRANCH  15  18
ATOM     18  O2  UNL     1      12.470  -1.700  27.555  0.00  0.00    -0.392 OA
ATOM     19  H19 UNL     1      12.017  -2.355  26.961  0.00  0.00    +0.210 HD
ENDBRANCH  15  18
ENDBRANCH  11  12
ENDBRANCH   9  11
ENDBRANCH   3   5
BRANCH   2  20
ATOM     20  C2  UNL     1      14.120   4.280  19.557  0.00  0.00    +0.152 C 
BRANCH  20  21
ATOM     21  C3  UNL     1      12.742   4.277  20.137  0.00  0.00    +0.058 A 
ATOM     22  C4  UNL     1      11.743   5.160  19.731  0.00  0.00    +0.071 A 
ATOM     23  S1  UNL     1      10.387   4.861  20.677  0.00  0.00    -0.075 S 
ATOM     24  C5  UNL     1      11.124   3.632  21.569  0.00  0.00    +0.109 A 
ATOM     25  N1  UNL     1      12.398   3.442  21.157  0.00  0.00    -0.243 NA
BRANCH  24  26
ATOM     26  C6  UNL     1      10.498   2.862  22.668  0.00  0.00    +0.007 A 
ATOM     27  C7  UNL     1      10.262   3.454  23.924  0.00  0.00    +0.012 A 
ATOM     28  C8  UNL     1       9.674   2.715  24.954  0.00  0.00    +0.020 A 
ATOM     29  C9  UNL     1       9.316   1.379  24.747  0.00  0.00    +0.041 A 
ATOM     30 CL1  UNL     1       8.582   0.455  26.043  0.00  0.00    -0.084 Cl
ATOM     31  C10 UNL     1       9.546   0.782  23.504  0.00  0.00    +0.020 A 
ATOM     32  C11 UNL     1      10.134   1.517  22.470  0.00  0.00    +0.012 A 
ENDBRANCH  24  26
ENDBRANCH  20  21
ENDBRANCH   2  20
TORSDOF 7
ENDMDL
MODEL 7
REMARK VINA RESULT:    -6.015     10.542     12.546
REMARK INTER + INTRA:         -10.139
REMARK INTER:                  -8.927
REMARK INTRA:                  -1.212
REMARK UNBOUND:                -1.838
REMARK  Name = /home/qwerty/github/datacon2025hack/step_04_hit_selection/docking/ligands/lig_398.pdb
REMARK  7 active torsions:
REMARK  status: ('A' for Active; 'I' for Inactive)
REMARK    1  A    between atoms: C1_2  and  C2_3
REMARK    2  A    between atoms: C2_3  and  C3_4
REMARK    3  A    between atoms: C5_7  and  C6_8
REMARK    4  A    between atoms: N2_16  and  C12_17
REMARK    5  A    between atoms: C16_21  and  C17_22
REMARK    6  A    between atoms: C17_22  and  N3_23
REMARK    7  A    between atoms: C20_26  and  O2_27
REMARK                            x       y       z     vdW  Elec       q    Type
REMARK                         _______ _______ _______ _____ _____    ______ ____
ROOT
ATOM      1  O1  UNL     1       7.359  10.173  24.198  0.00  0.00    -0.275 OA
ATOM      2  C1  UNL     1       8.088   9.604  25.057  0.00  0.00    +0.223 C 
ATOM      3  N2  UNL     1       9.428   9.203  24.731  0.00  0.00    -0.285 N 
ATOM      4  H8  UNL     1      10.080   8.996  25.523  0.00  0.00    +0.155 HD
ENDROOT
BRANCH   3   5
ATOM      5  C12 UNL     1       9.968   9.206  23.399  0.00  0.00    +0.034 A 
ATOM      6  C13 UNL     1      10.802  10.258  22.998  0.00  0.00    +0.023 A 
ATOM      7  C14 UNL     1      11.354  10.275  21.715  0.00  0.00    +0.002 A 
ATOM      8  C15 UNL     1      11.095   9.229  20.827  0.00  0.00    +0.005 A 
ATOM      9  C16 UNL     1      10.292   8.146  21.222  0.00  0.00    -0.032 A 
ATOM     10  C23 UNL     1       9.727   8.144  22.508  0.00  0.00    +0.028 A 
BRANCH   9  11
ATOM     11  C17 UNL     1      10.045   6.992  20.273  0.00  0.00    +0.119 C 
BRANCH  11  12
ATOM     12  N3  UNL     1      10.454   5.675  20.812  0.00  0.00    -0.298 NA
ATOM     13  C18 UNL     1      11.617   5.102  20.105  0.00  0.00    +0.087 C 
ATOM     14  C19 UNL     1      12.128   3.867  20.853  0.00  0.00    +0.046 C 
ATOM     15  C20 UNL     1      11.011   2.825  21.006  0.00  0.00    +0.117 C 
ATOM     16  C21 UNL     1       9.769   3.463  21.651  0.00  0.00    +0.046 C 
ATOM     17  C22 UNL     1       9.338   4.711  20.873  0.00  0.00    +0.087 C 
BRANCH  15  18
ATOM     18  O2  UNL     1      11.475   1.765  21.800  0.00  0.00    -0.392 OA
ATOM     19  H19 UNL     1      10.762   1.570  22.464  0.00  0.00    +0.210 HD
ENDBRANCH  15  18
ENDBRANCH  11  12
ENDBRANCH   9  11
ENDBRANCH   3   5
BRANCH   2  20
ATOM     20  C2  UNL     1       7.580   9.444  26.457  0.00  0.00    +0.152 C 
BRANCH  20  21
ATOM     21  C3  UNL     1       8.283  10.404  27.363  0.00  0.00    +0.058 A 
ATOM     22  C4  UNL     1       7.811  10.739  28.631  0.00  0.00    +0.071 A 
ATOM     23  S1  UNL     1       8.853  11.890  29.273  0.00  0.00    -0.075 S 
ATOM     24  C5  UNL     1       9.853  11.925  27.914  0.00  0.00    +0.109 A 
ATOM     25  N1  UNL     1       9.405  11.068  26.969  0.00  0.00    -0.243 NA
BRANCH  24  26
ATOM     26  C6  UNL     1      11.053  12.777  27.741  0.00  0.00    +0.007 A 
ATOM     27  C7  UNL     1      12.315  12.207  27.487  0.00  0.00    +0.012 A 
ATOM     28  C8  UNL     1      13.440  13.022  27.329  0.00  0.00    +0.020 A 
ATOM     29  C9  UNL     1      13.321  14.412  27.425  0.00  0.00    +0.041 A 
ATOM     30 CL1  UNL     1      14.734  15.430  27.229  0.00  0.00    -0.084 Cl
ATOM     31  C10 UNL     1      12.073  14.988  27.676  0.00  0.00    +0.020 A 
ATOM     32  C11 UNL     1      10.944  14.178  27.835  0.00  0.00    +0.012 A 
ENDBRANCH  24  26
ENDBRANCH  20  21
ENDBRANCH   2  20
TORSDOF 7
ENDMDL
MODEL 8
REMARK VINA RESULT:    -5.997      3.529      5.436
REMARK INTER + INTRA:         -10.114
REMARK INTER:                  -9.098
REMARK INTRA:                  -1.016
REMARK UNBOUND:                -1.838
REMARK  Name = /home/qwerty/github/datacon2025hack/step_04_hit_selection/docking/ligands/lig_398.pdb
REMARK  7 active torsions:
REMARK  status: ('A' for Active; 'I' for Inactive)
REMARK    1  A    between atoms: C1_2  and  C2_3
REMARK    2  A    between atoms: C2_3  and  C3_4
REMARK    3  A    between atoms: C5_7  and  C6_8
REMARK    4  A    between atoms: N2_16  and  C12_17
REMARK    5  A    between atoms: C16_21  and  C17_22
REMARK    6  A    between atoms: C17_22  and  N3_23
REMARK    7  A    between atoms: C20_26  and  O2_27
REMARK                            x       y       z     vdW  Elec       q    Type
REMARK                         _______ _______ _______ _____ _____    ______ ____
ROOT
ATOM      1  O1  UNL     1      19.200   2.539  25.064  0.00  0.00    -0.275 OA
ATOM      2  C1  UNL     1      19.941   1.791  25.759  0.00  0.00    +0.223 C 
ATOM      3  N2  UNL     1      19.518   0.463  26.111  0.00  0.00    -0.285 N 
ATOM      4  H8  UNL     1      20.251  -0.209  26.438  0.00  0.00    +0.155 HD
ENDROOT
BRANCH   3   5
ATOM      5  C12 UNL     1      18.186  -0.038  25.909  0.00  0.00    +0.034 A 
ATOM      6  C13 UNL     1      17.197   0.240  26.863  0.00  0.00    +0.023 A 
ATOM      7  C14 UNL     1      15.891  -0.220  26.682  0.00  0.00    +0.002 A 
ATOM      8  C15 UNL     1      15.555  -0.945  25.535  0.00  0.00    +0.005 A 
ATOM      9  C16 UNL     1      16.523  -1.202  24.551  0.00  0.00    -0.032 A 
ATOM     10  C23 UNL     1      17.839  -0.750  24.747  0.00  0.00    +0.028 A 
BRANCH   9  11
ATOM     11  C17 UNL     1      16.148  -1.950  23.289  0.00  0.00    +0.119 C 
BRANCH  11  12
ATOM     12  N3  UNL     1      15.815  -1.070  22.146  0.00  0.00    -0.298 NA
ATOM     13  C18 UNL     1      16.946  -0.887  21.214  0.00  0.00    +0.087 C 
ATOM     14  C19 UNL     1      16.469  -0.167  19.949  0.00  0.00    +0.046 C 
ATOM     15  C20 UNL     1      15.825   1.180  20.302  0.00  0.00    +0.117 C 
ATOM     16  C21 UNL     1      14.717   0.986  21.350  0.00  0.00    +0.046 C 
ATOM     17  C22 UNL     1      15.255   0.228  22.568  0.00  0.00    +0.087 C 
BRANCH  15  18
ATOM     18  O2  UNL     1      15.291   1.755  19.138  0.00  0.00    -0.392 OA
ATOM     19  H19 UNL     1      15.943   2.438  18.829  0.00  0.00    +0.210 HD
ENDBRANCH  15  18
ENDBRANCH  11  12
ENDBRANCH   9  11
ENDBRANCH   3   5
BRANCH   2  20
ATOM     20  C2  UNL     1      21.315   2.258  26.126  0.00  0.00    +0.152 C 
BRANCH  20  21
ATOM     21  C3  UNL     1      21.580   1.971  27.570  0.00  0.00    +0.058 A 
ATOM     22  C4  UNL     1      22.862   1.812  28.092  0.00  0.00    +0.071 A 
ATOM     23  S1  UNL     1      22.704   1.437  29.722  0.00  0.00    -0.075 S 
ATOM     24  C5  UNL     1      21.017   1.480  29.697  0.00  0.00    +0.109 A 
ATOM     25  N1  UNL     1      20.565   1.777  28.457  0.00  0.00    -0.243 NA
BRANCH  24  26
ATOM     26  C6  UNL     1      20.125   1.216  30.850  0.00  0.00    +0.007 A 
ATOM     27  C7  UNL     1      18.745   1.485  30.773  0.00  0.00    +0.012 A 
ATOM     28  C8  UNL     1      17.914   1.235  31.869  0.00  0.00    +0.020 A 
ATOM     29  C9  UNL     1      18.448   0.717  33.053  0.00  0.00    +0.041 A 
ATOM     30 CL1  UNL     1      17.403   0.408  34.426  0.00  0.00    -0.084 Cl
ATOM     31  C10 UNL     1      19.817   0.446  33.140  0.00  0.00    +0.020 A 
ATOM     32  C11 UNL     1      20.652   0.694  32.046  0.00  0.00    +0.012 A 
ENDBRANCH  24  26
ENDBRANCH  20  21
ENDBRANCH   2  20
TORSDOF 7
ENDMDL
MODEL 9
REMARK VINA RESULT:    -5.888      7.825     11.327
REMARK INTER + INTRA:          -9.964
REMARK INTER:                  -8.682
REMARK INTRA:                  -1.282
REMARK UNBOUND:                -1.838
REMARK  Name = /home/qwerty/github/datacon2025hack/step_04_hit_selection/docking/ligands/lig_398.pdb
REMARK  7 active torsions:
REMARK  status: ('A' for Active; 'I' for Inactive)
REMARK    1  A    between atoms: C1_2  and  C2_3
REMARK    2  A    between atoms: C2_3  and  C3_4
REMARK    3  A    between atoms: C5_7  and  C6_8
REMARK    4  A    between atoms: N2_16  and  C12_17
REMARK    5  A    between atoms: C16_21  and  C17_22
REMARK    6  A    between atoms: C17_22  and  N3_23
REMARK    7  A    between atoms: C20_26  and  O2_27
REMARK                            x       y       z     vdW  Elec       q    Type
REMARK                         _______ _______ _______ _____ _____    ______ ____
ROOT
ATOM      1  O1  UNL     1      17.644   3.866  33.604  0.00  0.00    -0.275 OA
ATOM      2  C1  UNL     1      18.290   3.539  34.637  0.00  0.00    +0.223 C 
ATOM      3  N2  UNL     1      19.392   2.622  34.553  0.00  0.00    -0.285 N 
ATOM      4  H8  UNL     1      20.063   2.592  35.356  0.00  0.00    +0.155 HD
ENDROOT
BRANCH   3   5
ATOM      5  C12 UNL     1      19.709   1.850  33.382  0.00  0.00    +0.034 A 
ATOM      6  C13 UNL     1      18.881   0.777  33.023  0.00  0.00    +0.023 A 
ATOM      7  C14 UNL     1      19.157   0.022  31.881  0.00  0.00    +0.002 A 
ATOM      8  C15 UNL     1      20.251   0.345  31.074  0.00  0.00    +0.005 A 
ATOM      9  C16 UNL     1      21.071   1.438  31.397  0.00  0.00    -0.032 A 
ATOM     10  C23 UNL     1      20.798   2.184  32.556  0.00  0.00    +0.028 A 
BRANCH   9  11
ATOM     11  C17 UNL     1      22.232   1.813  30.500  0.00  0.00    +0.119 C 
BRANCH  11  12
ATOM     12  N3  UNL     1      21.823   2.405  29.205  0.00  0.00    -0.298 NA
ATOM     13  C18 UNL     1      22.750   2.073  28.105  0.00  0.00    +0.087 C 
ATOM     14  C19 UNL     1      22.151   2.513  26.765  0.00  0.00    +0.046 C 
ATOM     15  C20 UNL     1      21.833   4.014  26.781  0.00  0.00    +0.117 C 
ATOM     16  C21 UNL     1      20.950   4.361  27.991  0.00  0.00    +0.046 C 
ATOM     17  C22 UNL     1      21.592   3.860  29.289  0.00  0.00    +0.087 C 
BRANCH  15  18
ATOM     18  O2  UNL     1      21.175   4.358  25.590  0.00  0.00    -0.392 OA
ATOM     19  H19 UNL     1      20.700   3.543  25.279  0.00  0.00    +0.210 HD
ENDBRANCH  15  18
ENDBRANCH  11  12
ENDBRANCH   9  11
ENDBRANCH   3   5
BRANCH   2  20
ATOM     20  C2  UNL     1      17.968   4.201  35.942  0.00  0.00    +0.152 C 
BRANCH  20  21
ATOM     21  C3  UNL     1      18.980   5.262  36.236  0.00  0.00    +0.058 A 
ATOM     22  C4  UNL     1      18.975   6.014  37.409  0.00  0.00    +0.071 A 
ATOM     23  S1  UNL     1      20.228   7.128  37.302  0.00  0.00    -0.075 S 
ATOM     24  C5  UNL     1      20.718   6.620  35.769  0.00  0.00    +0.109 A 
ATOM     25  N1  UNL     1      19.937   5.607  35.330  0.00  0.00    -0.243 NA
BRANCH  24  26
ATOM     26  C6  UNL     1      21.832   7.194  34.979  0.00  0.00    +0.007 A 
ATOM     27  C7  UNL     1      23.074   6.538  34.897  0.00  0.00    +0.012 A 
ATOM     28  C8  UNL     1      24.119   7.092  34.151  0.00  0.00    +0.020 A 
ATOM     29  C9  UNL     1      23.937   8.305  33.480  0.00  0.00    +0.041 A 
ATOM     30 CL1  UNL     1      25.250   8.998  32.547  0.00  0.00    -0.084 Cl
ATOM     31  C10 UNL     1      22.707   8.965  33.554  0.00  0.00    +0.020 A 
ATOM     32  C11 UNL     1      21.659   8.415  34.299  0.00  0.00    +0.012 A 
ENDBRANCH  24  26
ENDBRANCH  20  21
ENDBRANCH   2  20
TORSDOF 7
ENDMDL
