REMARK  Name = /home/qwerty/github/datacon2025hack/step_04_hit_selection/docking/ligands/lig_465.pdb
REMARK  7 active torsions:
REMARK  status: ('A' for Active; 'I' for Inactive)
REMARK    1  A    between atoms: C1_1  and  C2_2
REMARK    2  A    between atoms: C2_2  and  C3_3
REMARK    3  A    between atoms: C2_2  and  N1_4
REMARK    4  A    between atoms: C4_5  and  C5_7
REMARK    5  A    between atoms: C9_15  and  C10_17
REMARK    6  A    between atoms: C13_20  and  O3_21
REMARK    7  A    between atoms: N6_26  and  C18_27
REMARK                            x       y       z     vdW  Elec       q    Type
REMARK                         _______ _______ _______ _____ _____    ______ ____
ROOT
ATOM      1  C5  UNL     1      -3.309   1.376  -0.280  0.00  0.00    +0.220 A 
ATOM      2  N2  UNL     1      -2.881   2.544  -0.799  0.00  0.00    -0.123 NA
ATOM      3  N3  UNL     1      -1.593   2.653  -0.511  0.00  0.00    -0.113 NA
ATOM      4  C6  UNL     1      -1.254   1.548   0.179  0.00  0.00    +0.220 A 
ATOM      5  N4  UNL     1       0.076   1.311   0.674  0.00  0.00    -0.297 N 
ATOM      6  C7  UNL     1       0.840   2.445   1.211  0.00  0.00    +0.127 C 
ATOM      7  C8  UNL     1       2.206   1.998   1.736  0.00  0.00    +0.127 C 
ATOM      8  N5  UNL     1       2.872   1.156   0.734  0.00  0.00    -0.295 N 
ATOM      9  C9  UNL     1       4.192   1.495   0.276  0.00  0.00    +0.247 C 
ATOM     10  O2  UNL     1       4.472   2.701   0.032  0.00  0.00    -0.270 OA
ATOM     11  C16 UNL     1       2.124   0.082   0.061  0.00  0.00    +0.127 C 
ATOM     12  C17 UNL     1       0.686  -0.023   0.584  0.00  0.00    +0.127 C 
ATOM     13  N6  UNL     1      -2.312   0.729   0.365  0.00  0.00    -0.295 N 
ATOM     14  C18 UNL     1      -2.395  -0.458   1.218  0.00  0.00    +0.154 C 
ENDROOT
BRANCH   9  15
ATOM     15  C10 UNL     1       5.229   0.458   0.081  0.00  0.00    +0.037 A 
ATOM     16  C11 UNL     1       6.219   0.622  -0.904  0.00  0.00    +0.016 A 
ATOM     17  C12 UNL     1       7.208  -0.350  -1.080  0.00  0.00    +0.046 A 
ATOM     18  C13 UNL     1       7.229  -1.489  -0.270  0.00  0.00    +0.117 A 
ATOM     19  C14 UNL     1       6.256  -1.651   0.725  0.00  0.00    +0.046 A 
ATOM     20  C15 UNL     1       5.265  -0.682   0.903  0.00  0.00    +0.016 A 
BRANCH  18  21
ATOM     21  O3  UNL     1       8.221  -2.449  -0.458  0.00  0.00    -0.507 OA
ATOM     22  H15 UNL     1       8.264  -3.285   0.113  0.00  0.00    +0.292 HD
ENDBRANCH  18  21
ENDBRANCH   9  15
BRANCH   1  24
ATOM     23  N1  UNL     1      -5.024  -0.481  -0.442  0.00  0.00    -0.306 N 
ATOM     24  C4  UNL     1      -4.706   0.918  -0.402  0.00  0.00    +0.282 C 
ATOM     25  O1  UNL     1      -5.620   1.777  -0.524  0.00  0.00    -0.267 OA
ATOM     26  H8  UNL     1      -4.260  -1.159  -0.663  0.00  0.00    +0.149 HD
BRANCH  23  28
ATOM     27  C1  UNL     1      -6.482  -2.295   0.326  0.00  0.00    +0.027 C 
ATOM     28  C2  UNL     1      -6.404  -0.972  -0.439  0.00  0.00    +0.067 C 
ATOM     29  C3  UNL     1      -6.895  -1.146  -1.878  0.00  0.00    +0.027 C 
ENDBRANCH  23  28
ENDBRANCH   1  24
TORSDOF 4
