MODEL 1
REMARK VINA RESULT:    -6.655      0.000      0.000
REMARK INTER + INTRA:          -8.936
REMARK INTER:                  -8.211
REMARK INTRA:                  -0.725
REMARK UNBOUND:                -0.725
REMARK  Name = /home/qwerty/github/datacon2025hack/step_04_hit_selection/docking/ligands/lig_554.pdb
REMARK  5 active torsions:
REMARK  status: ('A' for Active; 'I' for Inactive)
REMARK    1  A    between atoms: C1_1  and  C2_2
REMARK    2  A    between atoms: N1_4  and  C4_5
REMARK    3  A    between atoms: C4_5  and  C5_6
REMARK    4  A    between atoms: C12_13  and  N2_14
REMARK    5  A    between atoms: C17_21  and  N4_22
REMARK                            x       y       z     vdW  Elec       q    Type
REMARK                         _______ _______ _______ _____ _____    ______ ____
ROOT
ATOM      1  N2  UNL     1      19.175   3.742  25.252  0.00  0.00    -0.295 N 
ATOM      2  C13 UNL     1      17.799   3.374  25.077  0.00  0.00    +0.303 C 
ATOM      3  O1  UNL     1      17.125   2.966  26.062  0.00  0.00    -0.253 OA
ATOM      4  N3  UNL     1      17.187   3.450  23.779  0.00  0.00    -0.284 N 
ATOM      5  C14 UNL     1      17.428   4.586  22.889  0.00  0.00    +0.109 C 
ATOM      6  C15 UNL     1      17.854   4.068  21.519  0.00  0.00    +0.021 C 
ATOM      7  C16 UNL     1      16.852   3.037  20.978  0.00  0.00    +0.022 C 
ATOM      8  C17 UNL     1      16.626   1.859  21.969  0.00  0.00    +0.074 C 
ATOM      9  C22 UNL     1      16.218   2.441  23.346  0.00  0.00    +0.128 C 
ATOM     10  H17 UNL     1      19.754   3.913  24.399  0.00  0.00    +0.151 HD
ENDROOT
BRANCH   1  16
ATOM     11  C1  UNL     1      21.707   5.044  25.436  0.00  0.00    +0.010 C 
ATOM     12  C2  UNL     1      20.883   4.832  26.718  0.00  0.00    +0.021 C 
ATOM     13  C3  UNL     1      21.755   4.263  27.833  0.00  0.00    +0.090 C 
ATOM     14  N1  UNL     1      21.730   2.797  27.697  0.00  0.00    -0.296 NA
ATOM     15  C11 UNL     1      20.528   2.455  26.910  0.00  0.00    +0.107 C 
ATOM     16  C12 UNL     1      19.807   3.761  26.577  0.00  0.00    +0.092 C 
BRANCH  14  17
ATOM     17  C4  UNL     1      21.759   2.132  29.013  0.00  0.00    +0.119 C 
BRANCH  17  18
ATOM     18  C5  UNL     1      22.685   0.944  28.978  0.00  0.00    -0.033 A 
ATOM     19  C6  UNL     1      24.061   1.101  29.217  0.00  0.00    +0.005 A 
ATOM     20  C7  UNL     1      24.909  -0.011  29.207  0.00  0.00    +0.000 A 
ATOM     21  C8  UNL     1      24.390  -1.286  28.962  0.00  0.00    +0.000 A 
ATOM     22  C9  UNL     1      23.022  -1.451  28.727  0.00  0.00    +0.000 A 
ATOM     23  C10 UNL     1      22.171  -0.341  28.737  0.00  0.00    +0.005 A 
ENDBRANCH  17  18
ENDBRANCH  14  17
ENDBRANCH   1  16
BRANCH   8  24
ATOM     24  N4  UNL     1      15.570   0.885  21.542  0.00  0.00    -0.298 NA
ATOM     25  C18 UNL     1      15.588   0.491  20.124  0.00  0.00    +0.085 C 
ATOM     26  C19 UNL     1      16.590  -0.637  19.984  0.00  0.00    +0.017 C 
ATOM     27  C20 UNL     1      16.584  -1.312  21.344  0.00  0.00    +0.017 C 
ATOM     28  C21 UNL     1      15.742  -0.405  22.239  0.00  0.00    +0.085 C 
ENDBRANCH   8  24
TORSDOF 4
ENDMDL
MODEL 2
REMARK VINA RESULT:    -6.525      5.627      9.312
REMARK INTER + INTRA:          -8.776
REMARK INTER:                  -8.185
REMARK INTRA:                  -0.592
REMARK UNBOUND:                -0.725
REMARK  Name = /home/qwerty/github/datacon2025hack/step_04_hit_selection/docking/ligands/lig_554.pdb
REMARK  5 active torsions:
REMARK  status: ('A' for Active; 'I' for Inactive)
REMARK    1  A    between atoms: C1_1  and  C2_2
REMARK    2  A    between atoms: N1_4  and  C4_5
REMARK    3  A    between atoms: C4_5  and  C5_6
REMARK    4  A    between atoms: C12_13  and  N2_14
REMARK    5  A    between atoms: C17_21  and  N4_22
REMARK                            x       y       z     vdW  Elec       q    Type
REMARK                         _______ _______ _______ _____ _____    ______ ____
ROOT
ATOM      1  N2  UNL     1      21.043   4.205  33.235  0.00  0.00    -0.295 N 
ATOM      2  C13 UNL     1      22.015   3.388  32.565  0.00  0.00    +0.303 C 
ATOM      3  O1  UNL     1      23.234   3.706  32.595  0.00  0.00    -0.253 OA
ATOM      4  N3  UNL     1      21.603   2.215  31.843  0.00  0.00    -0.284 N 
ATOM      5  C14 UNL     1      20.596   1.302  32.386  0.00  0.00    +0.109 C 
ATOM      6  C15 UNL     1      19.515   1.067  31.335  0.00  0.00    +0.021 C 
ATOM      7  C16 UNL     1      20.125   0.621  29.998  0.00  0.00    +0.022 C 
ATOM      8  C17 UNL     1      21.195   1.622  29.476  0.00  0.00    +0.074 C 
ATOM      9  C22 UNL     1      22.254   1.841  30.586  0.00  0.00    +0.128 C 
ATOM     10  H17 UNL     1      20.031   4.017  33.056  0.00  0.00    +0.151 HD
ENDROOT
BRANCH   1  16
ATOM     11  C1  UNL     1      18.930   5.652  34.494  0.00  0.00    +0.010 C 
ATOM     12  C2  UNL     1      20.361   5.791  35.044  0.00  0.00    +0.021 C 
ATOM     13  C3  UNL     1      20.711   7.257  35.274  0.00  0.00    +0.090 C 
ATOM     14  N1  UNL     1      21.257   7.776  34.009  0.00  0.00    -0.296 NA
ATOM     15  C11 UNL     1      21.711   6.611  33.223  0.00  0.00    +0.107 C 
ATOM     16  C12 UNL     1      21.437   5.357  34.054  0.00  0.00    +0.092 C 
BRANCH  14  17
ATOM     17  C4  UNL     1      22.332   8.757  34.247  0.00  0.00    +0.119 C 
BRANCH  17  18
ATOM     18  C5  UNL     1      22.889   9.251  32.937  0.00  0.00    -0.033 A 
ATOM     19  C6  UNL     1      22.038   9.783  31.952  0.00  0.00    +0.005 A 
ATOM     20  C7  UNL     1      22.566  10.261  30.749  0.00  0.00    +0.000 A 
ATOM     21  C8  UNL     1      23.945  10.216  30.522  0.00  0.00    +0.000 A 
ATOM     22  C9  UNL     1      24.798   9.693  31.498  0.00  0.00    +0.000 A 
ATOM     23  C10 UNL     1      24.273   9.213  32.703  0.00  0.00    +0.005 A 
ENDBRANCH  17  18
ENDBRANCH  14  17
ENDBRANCH   1  16
BRANCH   8  24
ATOM     24  N4  UNL     1      21.906   1.177  28.234  0.00  0.00    -0.298 NA
ATOM     25  C18 UNL     1      21.069   1.007  27.035  0.00  0.00    +0.085 C 
ATOM     26  C19 UNL     1      20.931   2.369  26.386  0.00  0.00    +0.017 C 
ATOM     27  C20 UNL     1      22.200   3.102  26.783  0.00  0.00    +0.017 C 
ATOM     28  C21 UNL     1      22.885   2.195  27.803  0.00  0.00    +0.085 C 
ENDBRANCH   8  24
TORSDOF 4
ENDMDL
MODEL 3
REMARK VINA RESULT:    -6.427     11.950     14.492
REMARK INTER + INTRA:          -8.655
REMARK INTER:                  -7.989
REMARK INTRA:                  -0.667
REMARK UNBOUND:                -0.725
REMARK  Name = /home/qwerty/github/datacon2025hack/step_04_hit_selection/docking/ligands/lig_554.pdb
REMARK  5 active torsions:
REMARK  status: ('A' for Active; 'I' for Inactive)
REMARK    1  A    between atoms: C1_1  and  C2_2
REMARK    2  A    between atoms: N1_4  and  C4_5
REMARK    3  A    between atoms: C4_5  and  C5_6
REMARK    4  A    between atoms: C12_13  and  N2_14
REMARK    5  A    between atoms: C17_21  and  N4_22
REMARK                            x       y       z     vdW  Elec       q    Type
REMARK                         _______ _______ _______ _____ _____    ______ ____
ROOT
ATOM      1  N2  UNL     1      17.684  11.665  35.492  0.00  0.00    -0.295 N 
ATOM      2  C13 UNL     1      16.658  11.494  36.481  0.00  0.00    +0.303 C 
ATOM      3  O1  UNL     1      16.621  10.441  37.175  0.00  0.00    -0.253 OA
ATOM      4  N3  UNL     1      15.660  12.509  36.675  0.00  0.00    -0.284 N 
ATOM      5  C14 UNL     1      16.010  13.929  36.683  0.00  0.00    +0.109 C 
ATOM      6  C15 UNL     1      15.101  14.676  35.713  0.00  0.00    +0.021 C 
ATOM      7  C16 UNL     1      13.620  14.384  36.000  0.00  0.00    +0.022 C 
ATOM      8  C17 UNL     1      13.308  12.859  35.990  0.00  0.00    +0.074 C 
ATOM      9  C22 UNL     1      14.272  12.149  36.973  0.00  0.00    +0.128 C 
ATOM     10  H17 UNL     1      17.596  12.460  34.820  0.00  0.00    +0.151 HD
ENDROOT
BRANCH   1  16
ATOM     11  C1  UNL     1      20.313  12.572  36.132  0.00  0.00    +0.010 C 
ATOM     12  C2  UNL     1      20.033  11.058  36.101  0.00  0.00    +0.021 C 
ATOM     13  C3  UNL     1      21.113  10.324  35.313  0.00  0.00    +0.090 C 
ATOM     14  N1  UNL     1      20.697  10.327  33.901  0.00  0.00    -0.296 NA
ATOM     15  C11 UNL     1      19.239  10.562  33.879  0.00  0.00    +0.107 C 
ATOM     16  C12 UNL     1      18.770  10.691  35.329  0.00  0.00    +0.092 C 
BRANCH  14  17
ATOM     17  C4  UNL     1      21.084   9.076  33.222  0.00  0.00    +0.119 C 
BRANCH  17  18
ATOM     18  C5  UNL     1      22.517   9.153  32.762  0.00  0.00    -0.033 A 
ATOM     19  C6  UNL     1      22.881   9.987  31.691  0.00  0.00    +0.005 A 
ATOM     20  C7  UNL     1      24.218  10.070  31.288  0.00  0.00    +0.000 A 
ATOM     21  C8  UNL     1      25.198   9.326  31.951  0.00  0.00    +0.000 A 
ATOM     22  C9  UNL     1      24.843   8.497  33.020  0.00  0.00    +0.000 A 
ATOM     23  C10 UNL     1      23.508   8.411  33.426  0.00  0.00    +0.005 A 
ENDBRANCH  17  18
ENDBRANCH  14  17
ENDBRANCH   1  16
BRANCH   8  24
ATOM     24  N4  UNL     1      11.904  12.512  36.380  0.00  0.00    -0.298 NA
ATOM     25  C18 UNL     1      10.913  12.500  35.291  0.00  0.00    +0.085 C 
ATOM     26  C19 UNL     1      10.992  11.142  34.626  0.00  0.00    +0.017 C 
ATOM     27  C20 UNL     1      11.468  10.214  35.729  0.00  0.00    +0.017 C 
ATOM     28  C21 UNL     1      11.834  11.130  36.895  0.00  0.00    +0.085 C 
ENDBRANCH   8  24
TORSDOF 4
ENDMDL
MODEL 4
REMARK VINA RESULT:    -6.329      6.335      9.533
REMARK INTER + INTRA:          -8.534
REMARK INTER:                  -7.879
REMARK INTRA:                  -0.655
REMARK UNBOUND:                -0.725
REMARK  Name = /home/qwerty/github/datacon2025hack/step_04_hit_selection/docking/ligands/lig_554.pdb
REMARK  5 active torsions:
REMARK  status: ('A' for Active; 'I' for Inactive)
REMARK    1  A    between atoms: C1_1  and  C2_2
REMARK    2  A    between atoms: N1_4  and  C4_5
REMARK    3  A    between atoms: C4_5  and  C5_6
REMARK    4  A    between atoms: C12_13  and  N2_14
REMARK    5  A    between atoms: C17_21  and  N4_22
REMARK                            x       y       z     vdW  Elec       q    Type
REMARK                         _______ _______ _______ _____ _____    ______ ____
ROOT
ATOM      1  N2  UNL     1      11.399   3.172  21.721  0.00  0.00    -0.295 N 
ATOM      2  C13 UNL     1      11.241   4.152  20.684  0.00  0.00    +0.303 C 
ATOM      3  O1  UNL     1      12.127   4.279  19.796  0.00  0.00    -0.253 OA
ATOM      4  N3  UNL     1      10.083   5.003  20.661  0.00  0.00    -0.284 N 
ATOM      5  C14 UNL     1       8.747   4.479  20.944  0.00  0.00    +0.109 C 
ATOM      6  C15 UNL     1       8.085   5.345  22.012  0.00  0.00    +0.021 C 
ATOM      7  C16 UNL     1       8.118   6.831  21.624  0.00  0.00    +0.022 C 
ATOM      8  C17 UNL     1       9.561   7.329  21.324  0.00  0.00    +0.074 C 
ATOM      9  C22 UNL     1      10.192   6.405  20.252  0.00  0.00    +0.128 C 
ATOM     10  H17 UNL     1      10.742   3.200  22.533  0.00  0.00    +0.151 HD
ENDROOT
BRANCH   1  16
ATOM     11  C1  UNL     1      11.093   0.839  23.337  0.00  0.00    +0.010 C 
ATOM     12  C2  UNL     1      12.136   0.831  22.205  0.00  0.00    +0.021 C 
ATOM     13  C3  UNL     1      13.470   0.285  22.703  0.00  0.00    +0.090 C 
ATOM     14  N1  UNL     1      14.226   1.423  23.253  0.00  0.00    -0.296 NA
ATOM     15  C11 UNL     1      13.651   2.650  22.666  0.00  0.00    +0.107 C 
ATOM     16  C12 UNL     1      12.522   2.226  21.725  0.00  0.00    +0.092 C 
BRANCH  14  17
ATOM     17  C4  UNL     1      15.671   1.287  22.990  0.00  0.00    +0.119 C 
BRANCH  17  18
ATOM     18  C5  UNL     1      16.212   0.054  23.667  0.00  0.00    -0.033 A 
ATOM     19  C6  UNL     1      16.699  -1.024  22.907  0.00  0.00    +0.005 A 
ATOM     20  C7  UNL     1      17.221  -2.154  23.544  0.00  0.00    +0.000 A 
ATOM     21  C8  UNL     1      17.264  -2.215  24.939  0.00  0.00    +0.000 A 
ATOM     22  C9  UNL     1      16.785  -1.146  25.702  0.00  0.00    +0.000 A 
ATOM     23  C10 UNL     1      16.262  -0.014  25.069  0.00  0.00    +0.005 A 
ENDBRANCH  17  18
ENDBRANCH  14  17
ENDBRANCH   1  16
BRANCH   8  24
ATOM     24  N4  UNL     1       9.637   8.741  20.827  0.00  0.00    -0.298 NA
ATOM     25  C18 UNL     1       8.662   9.683  21.401  0.00  0.00    +0.085 C 
ATOM     26  C19 UNL     1       9.237  10.184  22.710  0.00  0.00    +0.017 C 
ATOM     27  C20 UNL     1      10.740  10.093  22.516  0.00  0.00    +0.017 C 
ATOM     28  C21 UNL     1      10.930   9.351  21.194  0.00  0.00    +0.085 C 
ENDBRANCH   8  24
TORSDOF 4
ENDMDL
MODEL 5
REMARK VINA RESULT:    -6.296     13.316     16.769
REMARK INTER + INTRA:          -8.493
REMARK INTER:                  -8.041
REMARK INTRA:                  -0.451
REMARK UNBOUND:                -0.725
REMARK  Name = /home/qwerty/github/datacon2025hack/step_04_hit_selection/docking/ligands/lig_554.pdb
REMARK  5 active torsions:
REMARK  status: ('A' for Active; 'I' for Inactive)
REMARK    1  A    between atoms: C1_1  and  C2_2
REMARK    2  A    between atoms: N1_4  and  C4_5
REMARK    3  A    between atoms: C4_5  and  C5_6
REMARK    4  A    between atoms: C12_13  and  N2_14
REMARK    5  A    between atoms: C17_21  and  N4_22
REMARK                            x       y       z     vdW  Elec       q    Type
REMARK                         _______ _______ _______ _____ _____    ______ ____
ROOT
ATOM      1  N2  UNL     1      10.119  13.208  30.619  0.00  0.00    -0.295 N 
ATOM      2  C13 UNL     1      11.365  12.818  31.215  0.00  0.00    +0.303 C 
ATOM      3  O1  UNL     1      12.212  12.174  30.539  0.00  0.00    -0.253 OA
ATOM      4  N3  UNL     1      11.647  13.144  32.586  0.00  0.00    -0.284 N 
ATOM      5  C14 UNL     1      11.316  14.456  33.141  0.00  0.00    +0.109 C 
ATOM      6  C15 UNL     1      10.518  14.269  34.427  0.00  0.00    +0.021 C 
ATOM      7  C16 UNL     1      11.245  13.331  35.403  0.00  0.00    +0.022 C 
ATOM      8  C17 UNL     1      11.582  11.957  34.756  0.00  0.00    +0.074 C 
ATOM      9  C22 UNL     1      12.371  12.205  33.446  0.00  0.00    +0.128 C 
ATOM     10  H17 UNL     1       9.371  13.589  31.241  0.00  0.00    +0.151 HD
ENDROOT
BRANCH   1  16
ATOM     11  C1  UNL     1       7.488  13.856  29.723  0.00  0.00    +0.010 C 
ATOM     12  C2  UNL     1       8.622  13.743  28.688  0.00  0.00    +0.021 C 
ATOM     13  C3  UNL     1       8.184  12.897  27.497  0.00  0.00    +0.090 C 
ATOM     14  N1  UNL     1       8.485  11.493  27.829  0.00  0.00    -0.296 NA
ATOM     15  C11 UNL     1       9.507  11.510  28.894  0.00  0.00    +0.107 C 
ATOM     16  C12 UNL     1       9.834  12.972  29.198  0.00  0.00    +0.092 C 
BRANCH  14  17
ATOM     17  C4  UNL     1       8.914  10.738  26.637  0.00  0.00    +0.119 C 
BRANCH  17  18
ATOM     18  C5  UNL     1       8.384   9.329  26.693  0.00  0.00    -0.033 A 
ATOM     19  C6  UNL     1       8.852   8.351  25.798  0.00  0.00    +0.005 A 
ATOM     20  C7  UNL     1       8.372   7.040  25.874  0.00  0.00    +0.000 A 
ATOM     21  C8  UNL     1       7.425   6.695  26.842  0.00  0.00    +0.000 A 
ATOM     22  C9  UNL     1       6.957   7.661  27.738  0.00  0.00    +0.000 A 
ATOM     23  C10 UNL     1       7.435   8.973  27.666  0.00  0.00    +0.005 A 
ENDBRANCH  17  18
ENDBRANCH  14  17
ENDBRANCH   1  16
BRANCH   8  24
ATOM     24  N4  UNL     1      12.394  11.047  35.626  0.00  0.00    -0.298 NA
ATOM     25  C18 UNL     1      12.399  11.359  37.064  0.00  0.00    +0.085 C 
ATOM     26  C19 UNL     1      11.165  10.722  37.667  0.00  0.00    +0.017 C 
ATOM     27  C20 UNL     1      10.886   9.527  36.772  0.00  0.00    +0.017 C 
ATOM     28  C21 UNL     1      11.848   9.675  35.595  0.00  0.00    +0.085 C 
ENDBRANCH   8  24
TORSDOF 4
ENDMDL
MODEL 6
REMARK VINA RESULT:    -6.266      8.747     12.312
REMARK INTER + INTRA:          -8.456
REMARK INTER:                  -7.750
REMARK INTRA:                  -0.706
REMARK UNBOUND:                -0.725
REMARK  Name = /home/qwerty/github/datacon2025hack/step_04_hit_selection/docking/ligands/lig_554.pdb
REMARK  5 active torsions:
REMARK  status: ('A' for Active; 'I' for Inactive)
REMARK    1  A    between atoms: C1_1  and  C2_2
REMARK    2  A    between atoms: N1_4  and  C4_5
REMARK    3  A    between atoms: C4_5  and  C5_6
REMARK    4  A    between atoms: C12_13  and  N2_14
REMARK    5  A    between atoms: C17_21  and  N4_22
REMARK                            x       y       z     vdW  Elec       q    Type
REMARK                         _______ _______ _______ _____ _____    ______ ____
ROOT
ATOM      1  N2  UNL     1      21.497  11.684  20.189  0.00  0.00    -0.295 N 
ATOM      2  C13 UNL     1      22.547  12.648  20.355  0.00  0.00    +0.303 C 
ATOM      3  O1  UNL     1      23.747  12.314  20.159  0.00  0.00    -0.253 OA
ATOM      4  N3  UNL     1      22.241  13.993  20.761  0.00  0.00    -0.284 N 
ATOM      5  C14 UNL     1      21.100  14.715  20.201  0.00  0.00    +0.109 C 
ATOM      6  C15 UNL     1      20.255  15.279  21.339  0.00  0.00    +0.021 C 
ATOM      7  C16 UNL     1      21.112  16.100  22.315  0.00  0.00    +0.022 C 
ATOM      8  C17 UNL     1      22.316  15.285  22.869  0.00  0.00    +0.074 C 
ATOM      9  C22 UNL     1      23.124  14.719  21.675  0.00  0.00    +0.128 C 
ATOM     10  H17 UNL     1      20.538  11.936  20.517  0.00  0.00    +0.151 HD
ENDROOT
BRANCH   1  16
ATOM     11  C1  UNL     1      19.266  10.258  19.125  0.00  0.00    +0.010 C 
ATOM     12  C2  UNL     1      20.689   9.813  18.740  0.00  0.00    +0.021 C 
ATOM     13  C3  UNL     1      20.839   8.302  18.881  0.00  0.00    +0.090 C 
ATOM     14  N1  UNL     1      21.242   8.034  20.272  0.00  0.00    -0.296 NA
ATOM     15  C11 UNL     1      21.816   9.286  20.805  0.00  0.00    +0.107 C 
ATOM     16  C12 UNL     1      21.764  10.330  19.690  0.00  0.00    +0.092 C 
BRANCH  14  17
ATOM     17  C4  UNL     1      22.177   6.896  20.353  0.00  0.00    +0.119 C 
BRANCH  17  18
ATOM     18  C5  UNL     1      21.794   5.985  21.489  0.00  0.00    -0.033 A 
ATOM     19  C6  UNL     1      22.296   6.204  22.784  0.00  0.00    +0.005 A 
ATOM     20  C7  UNL     1      21.915   5.367  23.837  0.00  0.00    +0.000 A 
ATOM     21  C8  UNL     1      21.031   4.310  23.608  0.00  0.00    +0.000 A 
ATOM     22  C9  UNL     1      20.524   4.087  22.324  0.00  0.00    +0.000 A 
ATOM     23  C10 UNL     1      20.903   4.922  21.268  0.00  0.00    +0.005 A 
ENDBRANCH  17  18
ENDBRANCH  14  17
ENDBRANCH   1  16
BRANCH   8  24
ATOM     24  N4  UNL     1      23.251  16.073  23.735  0.00  0.00    -0.298 NA
ATOM     25  C18 UNL     1      22.639  16.782  24.871  0.00  0.00    +0.085 C 
ATOM     26  C19 UNL     1      22.527  15.792  26.012  0.00  0.00    +0.017 C 
ATOM     27  C20 UNL     1      23.663  14.815  25.771  0.00  0.00    +0.017 C 
ATOM     28  C21 UNL     1      24.223  15.181  24.397  0.00  0.00    +0.085 C 
ENDBRANCH   8  24
TORSDOF 4
ENDMDL
MODEL 7
REMARK VINA RESULT:    -6.237     13.024     17.005
REMARK INTER + INTRA:          -8.421
REMARK INTER:                  -7.746
REMARK INTRA:                  -0.675
REMARK UNBOUND:                -0.725
REMARK  Name = /home/qwerty/github/datacon2025hack/step_04_hit_selection/docking/ligands/lig_554.pdb
REMARK  5 active torsions:
REMARK  status: ('A' for Active; 'I' for Inactive)
REMARK    1  A    between atoms: C1_1  and  C2_2
REMARK    2  A    between atoms: N1_4  and  C4_5
REMARK    3  A    between atoms: C4_5  and  C5_6
REMARK    4  A    between atoms: C12_13  and  N2_14
REMARK    5  A    between atoms: C17_21  and  N4_22
REMARK                            x       y       z     vdW  Elec       q    Type
REMARK                         _______ _______ _______ _____ _____    ______ ____
ROOT
ATOM      1  N2  UNL     1      14.025  12.587  34.230  0.00  0.00    -0.295 N 
ATOM      2  C13 UNL     1      15.011  13.021  35.179  0.00  0.00    +0.303 C 
ATOM      3  O1  UNL     1      15.383  14.225  35.195  0.00  0.00    -0.253 OA
ATOM      4  N3  UNL     1      15.592  12.084  36.101  0.00  0.00    -0.284 N 
ATOM      5  C14 UNL     1      14.775  11.080  36.782  0.00  0.00    +0.109 C 
ATOM      6  C15 UNL     1      15.407   9.705  36.591  0.00  0.00    +0.021 C 
ATOM      7  C16 UNL     1      16.887   9.709  37.004  0.00  0.00    +0.022 C 
ATOM      8  C17 UNL     1      17.703  10.803  36.257  0.00  0.00    +0.074 C 
ATOM      9  C22 UNL     1      17.008  12.171  36.466  0.00  0.00    +0.128 C 
ATOM     10  H17 UNL     1      13.859  11.561  34.123  0.00  0.00    +0.151 HD
ENDROOT
BRANCH   1  16
ATOM     11  C1  UNL     1      11.309  13.203  34.853  0.00  0.00    +0.010 C 
ATOM     12  C2  UNL     1      12.105  14.166  33.954  0.00  0.00    +0.021 C 
ATOM     13  C3  UNL     1      11.294  14.550  32.721  0.00  0.00    +0.090 C 
ATOM     14  N1  UNL     1      11.562  13.531  31.692  0.00  0.00    -0.296 NA
ATOM     15  C11 UNL     1      12.835  12.874  32.054  0.00  0.00    +0.107 C 
ATOM     16  C12 UNL     1      13.346  13.532  33.335  0.00  0.00    +0.092 C 
BRANCH  14  17
ATOM     17  C4  UNL     1      11.590  14.122  30.341  0.00  0.00    +0.119 C 
BRANCH  17  18
ATOM     18  C5  UNL     1      10.578  13.446  29.453  0.00  0.00    -0.033 A 
ATOM     19  C6  UNL     1       9.214  13.446  29.793  0.00  0.00    +0.005 A 
ATOM     20  C7  UNL     1       8.279  12.836  28.950  0.00  0.00    +0.000 A 
ATOM     21  C8  UNL     1       8.697  12.227  27.764  0.00  0.00    +0.000 A 
ATOM     22  C9  UNL     1      10.051  12.225  27.418  0.00  0.00    +0.000 A 
ATOM     23  C10 UNL     1      10.989  12.834  28.258  0.00  0.00    +0.005 A 
ENDBRANCH  17  18
ENDBRANCH  14  17
ENDBRANCH   1  16
BRANCH   8  24
ATOM     24  N4  UNL     1      19.127  10.928  36.708  0.00  0.00    -0.298 NA
ATOM     25  C18 UNL     1      20.098  10.046  36.040  0.00  0.00    +0.085 C 
ATOM     26  C19 UNL     1      20.516  10.729  34.754  0.00  0.00    +0.017 C 
ATOM     27  C20 UNL     1      20.351  12.209  35.048  0.00  0.00    +0.017 C 
ATOM     28  C21 UNL     1      19.651  12.274  36.404  0.00  0.00    +0.085 C 
ENDBRANCH   8  24
TORSDOF 4
ENDMDL
MODEL 8
REMARK VINA RESULT:    -6.223     12.240     14.566
REMARK INTER + INTRA:          -8.404
REMARK INTER:                  -8.220
REMARK INTRA:                  -0.184
REMARK UNBOUND:                -0.725
REMARK  Name = /home/qwerty/github/datacon2025hack/step_04_hit_selection/docking/ligands/lig_554.pdb
REMARK  5 active torsions:
REMARK  status: ('A' for Active; 'I' for Inactive)
REMARK    1  A    between atoms: C1_1  and  C2_2
REMARK    2  A    between atoms: N1_4  and  C4_5
REMARK    3  A    between atoms: C4_5  and  C5_6
REMARK    4  A    between atoms: C12_13  and  N2_14
REMARK    5  A    between atoms: C17_21  and  N4_22
REMARK                            x       y       z     vdW  Elec       q    Type
REMARK                         _______ _______ _______ _____ _____    ______ ____
ROOT
ATOM      1  N2  UNL     1      17.677  11.341  36.071  0.00  0.00    -0.295 N 
ATOM      2  C13 UNL     1      16.560  11.384  36.972  0.00  0.00    +0.303 C 
ATOM      3  O1  UNL     1      16.375  10.443  37.791  0.00  0.00    -0.253 OA
ATOM      4  N3  UNL     1      15.639  12.487  36.935  0.00  0.00    -0.284 N 
ATOM      5  C14 UNL     1      16.108  13.865  36.790  0.00  0.00    +0.109 C 
ATOM      6  C15 UNL     1      15.350  14.534  35.648  0.00  0.00    +0.021 C 
ATOM      7  C16 UNL     1      13.830  14.394  35.829  0.00  0.00    +0.022 C 
ATOM      8  C17 UNL     1      13.392  12.909  35.990  0.00  0.00    +0.074 C 
ATOM      9  C22 UNL     1      14.205  12.274  37.145  0.00  0.00    +0.128 C 
ATOM     10  H17 UNL     1      17.713  12.040  35.295  0.00  0.00    +0.151 HD
ENDROOT
BRANCH   1  16
ATOM     11  C1  UNL     1      20.097  11.786  34.626  0.00  0.00    +0.010 C 
ATOM     12  C2  UNL     1      20.086  10.746  35.761  0.00  0.00    +0.021 C 
ATOM     13  C3  UNL     1      20.746   9.447  35.311  0.00  0.00    +0.090 C 
ATOM     14  N1  UNL     1      19.698   8.623  34.684  0.00  0.00    -0.296 NA
ATOM     15  C11 UNL     1      18.400   9.124  35.179  0.00  0.00    +0.107 C 
ATOM     16  C12 UNL     1      18.685  10.277  36.141  0.00  0.00    +0.092 C 
BRANCH  14  17
ATOM     17  C4  UNL     1      19.900   7.189  34.964  0.00  0.00    +0.119 C 
BRANCH  17  18
ATOM     18  C5  UNL     1      21.077   6.998  35.885  0.00  0.00    -0.033 A 
ATOM     19  C6  UNL     1      20.936   7.171  37.273  0.00  0.00    +0.005 A 
ATOM     20  C7  UNL     1      22.028   6.967  38.122  0.00  0.00    +0.000 A 
ATOM     21  C8  UNL     1      23.264   6.586  37.595  0.00  0.00    +0.000 A 
ATOM     22  C9  UNL     1      23.412   6.408  36.216  0.00  0.00    +0.000 A 
ATOM     23  C10 UNL     1      22.322   6.611  35.363  0.00  0.00    +0.005 A 
ENDBRANCH  17  18
ENDBRANCH  14  17
ENDBRANCH   1  16
BRANCH   8  24
ATOM     24  N4  UNL     1      11.935  12.723  36.287  0.00  0.00    -0.298 NA
ATOM     25  C18 UNL     1      11.035  12.696  35.122  0.00  0.00    +0.085 C 
ATOM     26  C19 UNL     1      11.037  11.280  34.585  0.00  0.00    +0.017 C 
ATOM     27  C20 UNL     1      11.337  10.421  35.800  0.00  0.00    +0.017 C 
ATOM     28  C21 UNL     1      11.697  11.406  36.910  0.00  0.00    +0.085 C 
ENDBRANCH   8  24
TORSDOF 4
ENDMDL
MODEL 9
REMARK VINA RESULT:    -5.996     11.294     15.330
REMARK INTER + INTRA:          -8.123
REMARK INTER:                  -7.381
REMARK INTRA:                  -0.743
REMARK UNBOUND:                -0.725
REMARK  Name = /home/qwerty/github/datacon2025hack/step_04_hit_selection/docking/ligands/lig_554.pdb
REMARK  5 active torsions:
REMARK  status: ('A' for Active; 'I' for Inactive)
REMARK    1  A    between atoms: C1_1  and  C2_2
REMARK    2  A    between atoms: N1_4  and  C4_5
REMARK    3  A    between atoms: C4_5  and  C5_6
REMARK    4  A    between atoms: C12_13  and  N2_14
REMARK    5  A    between atoms: C17_21  and  N4_22
REMARK                            x       y       z     vdW  Elec       q    Type
REMARK                         _______ _______ _______ _____ _____    ______ ____
ROOT
ATOM      1  N2  UNL     1      18.663   9.797  36.000  0.00  0.00    -0.295 N 
ATOM      2  C13 UNL     1      20.091   9.939  35.981  0.00  0.00    +0.303 C 
ATOM      3  O1  UNL     1      20.611  11.088  35.992  0.00  0.00    -0.253 OA
ATOM      4  N3  UNL     1      20.935   8.777  35.931  0.00  0.00    -0.284 N 
ATOM      5  C14 UNL     1      20.648   7.592  36.739  0.00  0.00    +0.109 C 
ATOM      6  C15 UNL     1      20.650   6.360  35.840  0.00  0.00    +0.021 C 
ATOM      7  C16 UNL     1      21.945   6.271  35.018  0.00  0.00    +0.022 C 
ATOM      8  C17 UNL     1      22.205   7.562  34.190  0.00  0.00    +0.074 C 
ATOM      9  C22 UNL     1      22.171   8.780  35.145  0.00  0.00    +0.128 C 
ATOM     10  H17 UNL     1      18.257   8.851  35.821  0.00  0.00    +0.151 HD
ENDROOT
BRANCH   1  16
ATOM     11  C1  UNL     1      16.571   9.569  37.927  0.00  0.00    +0.010 C 
ATOM     12  C2  UNL     1      17.001  10.970  37.455  0.00  0.00    +0.021 C 
ATOM     13  C3  UNL     1      15.785  11.819  37.102  0.00  0.00    +0.090 C 
ATOM     14  N1  UNL     1      15.466  11.552  35.689  0.00  0.00    -0.296 NA
ATOM     15  C11 UNL     1      16.688  11.006  35.065  0.00  0.00    +0.107 C 
ATOM     16  C12 UNL     1      17.774  10.956  36.140  0.00  0.00    +0.092 C 
BRANCH  14  17
ATOM     17  C4  UNL     1      14.972  12.765  35.010  0.00  0.00    +0.119 C 
BRANCH  17  18
ATOM     18  C5  UNL     1      13.470  12.844  35.110  0.00  0.00    -0.033 A 
ATOM     19  C6  UNL     1      12.671  11.738  34.775  0.00  0.00    +0.005 A 
ATOM     20  C7  UNL     1      11.280  11.813  34.894  0.00  0.00    +0.000 A 
ATOM     21  C8  UNL     1      10.678  12.989  35.351  0.00  0.00    +0.000 A 
ATOM     22  C9  UNL     1      11.467  14.093  35.689  0.00  0.00    +0.000 A 
ATOM     23  C10 UNL     1      12.859  14.021  35.571  0.00  0.00    +0.005 A 
ENDBRANCH  17  18
ENDBRANCH  14  17
ENDBRANCH   1  16
BRANCH   8  24
ATOM     24  N4  UNL     1      23.514   7.575  33.461  0.00  0.00    -0.298 NA
ATOM     25  C18 UNL     1      23.600   6.719  32.266  0.00  0.00    +0.085 C 
ATOM     26  C19 UNL     1      23.024   7.506  31.107  0.00  0.00    +0.017 C 
ATOM     27  C20 UNL     1      23.278   8.956  31.477  0.00  0.00    +0.017 C 
ATOM     28  C21 UNL     1      23.791   8.919  32.916  0.00  0.00    +0.085 C 
ENDBRANCH   8  24
TORSDOF 4
ENDMDL
