REMARK  Name = /home/qwerty/github/datacon2025hack/step_04_hit_selection/docking/ligands/lig_50.pdb
REMARK  4 active torsions:
REMARK  status: ('A' for Active; 'I' for Inactive)
REMARK    1  A    between atoms: C1_2  and  C2_3
REMARK    2  A    between atoms: C14_18  and  C15_19
REMARK    3  A    between atoms: C15_19  and  O2_20
REMARK    4  A    between atoms: C15_19  and  C16_21
REMARK                            x       y       z     vdW  Elec       q    Type
REMARK                         _______ _______ _______ _____ _____    ______ ____
ROOT
ATOM      1  O1  UNL     1      -0.764  -2.228   0.972  0.00  0.00    -0.270 OA
ATOM      2  C1  UNL     1      -0.369  -1.102   0.566  0.00  0.00    +0.247 C 
ATOM      3  N2  UNL     1      -1.273   0.022   0.568  0.00  0.00    -0.292 N 
ATOM      4  C11 UNL     1      -0.877   1.378   0.212  0.00  0.00    +0.108 C 
ATOM      5  C12 UNL     1      -2.138   2.225   0.310  0.00  0.00    +0.021 C 
ATOM      6  C13 UNL     1      -3.143   1.394   1.105  0.00  0.00    +0.027 C 
ATOM      7  C14 UNL     1      -2.662  -0.059   1.010  0.00  0.00    +0.114 C 
ENDROOT
BRANCH   2   8
ATOM      8  C2  UNL     1       1.007  -0.983   0.056  0.00  0.00    +0.040 A 
ATOM      9  C3  UNL     1       1.396  -1.722  -1.071  0.00  0.00    +0.053 A 
ATOM     10  C4  UNL     1       2.701  -1.627  -1.566  0.00  0.00    +0.150 A 
ATOM     11  F1  UNL     1       3.056  -2.341  -2.663  0.00  0.00    -0.203 F 
ATOM     12  C5  UNL     1       3.632  -0.799  -0.928  0.00  0.00    +0.106 A 
ATOM     13  N1  UNL     1       4.903  -0.702  -1.405  0.00  0.00    -0.252 NA
ATOM     14  C6  UNL     1       5.834   0.088  -0.805  0.00  0.00    +0.111 A 
ATOM     15  C7  UNL     1       5.499   0.828   0.332  0.00  0.00    +0.020 A 
ATOM     16  C8  UNL     1       4.204   0.750   0.846  0.00  0.00    +0.011 A 
ATOM     17  C9  UNL     1       3.253  -0.066   0.218  0.00  0.00    +0.004 A 
ATOM     18  C10 UNL     1       1.943  -0.166   0.709  0.00  0.00    +0.023 A 
ENDBRANCH   2   8
BRANCH   7  19
ATOM     19  C15 UNL     1      -3.532  -0.956   0.075  0.00  0.00    +0.238 C 
BRANCH  19  20
ATOM     20  C16 UNL     1      -3.527  -0.562  -1.416  0.00  0.00    +0.417 C 
ATOM     21  F2  UNL     1      -4.130   0.667  -1.609  0.00  0.00    -0.168 F 
ATOM     22  F3  UNL     1      -2.239  -0.523  -1.916  0.00  0.00    -0.168 F 
ATOM     23  F4  UNL     1      -4.238  -1.508  -2.133  0.00  0.00    -0.168 F 
ENDBRANCH  19  20
BRANCH  19  24
ATOM     24  O2  UNL     1      -4.860  -0.973   0.534  0.00  0.00    -0.381 OA
ATOM     25  H14 UNL     1      -4.871  -1.511   1.368  0.00  0.00    +0.210 HD
ENDBRANCH  19  24
ENDBRANCH   7  19
TORSDOF 4
