REMARK  Name = /home/qwerty/github/datacon2025hack/step_04_hit_selection/docking/ligands/lig_682.pdb
REMARK  5 active torsions:
REMARK  status: ('A' for Active; 'I' for Inactive)
REMARK    1  A    between atoms: C2_2  and  C3_3
REMARK    2  A    between atoms: C3_3  and  N1_4
REMARK    3  A    between atoms: C4_5  and  C5_6
REMARK    4  A    between atoms: C14_20  and  N6_21
REMARK    5  A    between atoms: N7_24  and  C16_25
REMARK                            x       y       z     vdW  Elec       q    Type
REMARK                         _______ _______ _______ _____ _____    ______ ____
ROOT
ATOM      1  N1  UNL     1       1.738  -0.256  -0.260  0.00  0.00    -0.290 N 
ATOM      2  C4  UNL     1       2.893  -0.592  -0.885  0.00  0.00    +0.182 A 
ATOM      3  N3  UNL     1       2.649  -1.253  -2.035  0.00  0.00    -0.126 NA
ATOM      4  N4  UNL     1       1.335  -1.361  -2.161  0.00  0.00    -0.113 NA
ATOM      5  C11 UNL     1       0.793  -0.768  -1.082  0.00  0.00    +0.220 A 
ATOM      6  N5  UNL     1      -0.626  -0.654  -0.881  0.00  0.00    -0.300 N 
ATOM      7  C12 UNL     1      -1.223  -1.028   0.409  0.00  0.00    +0.110 C 
ATOM      8  C13 UNL     1      -2.581  -1.701   0.190  0.00  0.00    +0.041 C 
ATOM      9  C14 UNL     1      -3.563  -0.799  -0.598  0.00  0.00    +0.077 C 
ATOM     10  C17 UNL     1      -2.846   0.154  -1.585  0.00  0.00    +0.041 C 
ATOM     11  C18 UNL     1      -1.487  -0.386  -2.041  0.00  0.00    +0.110 C 
ENDROOT
BRANCH   2  12
ATOM     12  C5  UNL     1       4.269  -0.281  -0.440  0.00  0.00    +0.088 A 
ATOM     13  C6  UNL     1       4.685  -0.030   0.888  0.00  0.00    +0.077 A 
ATOM     14  C7  UNL     1       6.040   0.119   0.750  0.00  0.00    +0.153 A 
ATOM     15  O1  UNL     1       7.076   0.323   1.517  0.00  0.00    -0.461 OA
ATOM     16  C8  UNL     1       8.128   0.305   0.697  0.00  0.00    +0.198 A 
ATOM     17  C9  UNL     1       7.734   0.078  -0.636  0.00  0.00    +0.067 A 
ATOM     18  C10 UNL     1       6.376  -0.027  -0.508  0.00  0.00    +0.085 A 
ATOM     19  N2  UNL     1       5.332  -0.289  -1.300  0.00  0.00    -0.349 N 
ATOM     20  H9  UNL     1       5.336  -0.471  -2.328  0.00  0.00    +0.166 HD
ENDBRANCH   2  12
BRANCH   9  21
ATOM     21  N6  UNL     1      -4.399  -0.017   0.324  0.00  0.00    -0.296 N 
ATOM     22  C15 UNL     1      -5.638   0.585  -0.085  0.00  0.00    +0.300 C 
ATOM     23  O2  UNL     1      -6.069   0.416  -1.260  0.00  0.00    -0.253 OA
ATOM     24  N7  UNL     1      -6.387   1.376   0.846  0.00  0.00    -0.302 N 
ATOM     25  C16 UNL     1      -7.670   1.971   0.489  0.00  0.00    +0.129 C 
ATOM     26  H15 UNL     1      -4.091   0.112   1.316  0.00  0.00    +0.151 HD
ATOM     27  H16 UNL     1      -6.010   1.525   1.810  0.00  0.00    +0.150 HD
ENDBRANCH   9  21
BRANCH   1  28
ATOM     28  C3  UNL     1       1.533   0.631   0.890  0.00  0.00    +0.153 C 
BRANCH  28  30
ATOM     29  C1  UNL     1       1.201   0.438   3.330  0.00  0.00    +0.005 C 
ATOM     30  C2  UNL     1       1.461  -0.160   2.165  0.00  0.00    -0.013 C 
ENDBRANCH  28  30
ENDBRANCH   1  28
TORSDOF 4
