REMARK  Name = /home/qwerty/github/datacon2025hack/step_04_hit_selection/docking/ligands/lig_703.pdb
REMARK  4 active torsions:
REMARK  status: ('A' for Active; 'I' for Inactive)
REMARK    1  A    between atoms: C1_1  and  C2_2
REMARK    2  A    between atoms: C4_5  and  C5_7
REMARK    3  A    between atoms: C5_7  and  C6_8
REMARK    4  A    between atoms: C11_14  and  N2_15
REMARK                            x       y       z     vdW  Elec       q    Type
REMARK                         _______ _______ _______ _____ _____    ______ ____
ROOT
ATOM      1  C1  UNL     1       0.662   1.099   2.331  0.00  0.00    +0.011 C 
ATOM      2  C2  UNL     1      -0.255   1.450   1.151  0.00  0.00    +0.025 C 
ATOM      3  C3  UNL     1      -1.413   0.471   0.981  0.00  0.00    +0.113 C 
ATOM      4  N1  UNL     1      -1.719   0.492  -0.444  0.00  0.00    -0.299 N 
ATOM      5  C4  UNL     1      -2.890  -0.071  -1.075  0.00  0.00    +0.224 C 
ATOM      6  O1  UNL     1      -2.870  -0.259  -2.323  0.00  0.00    -0.275 OA
ATOM      7  C10 UNL     1      -0.678   1.158  -1.216  0.00  0.00    +0.130 C 
ATOM      8  C11 UNL     1       0.438   1.485  -0.223  0.00  0.00    +0.093 C 
ENDROOT
BRANCH   8   9
ATOM      9  N2  UNL     1       1.497   0.471  -0.317  0.00  0.00    -0.324 N 
ATOM     10  C12 UNL     1       2.886   0.800  -0.491  0.00  0.00    +0.126 A 
ATOM     11  N3  UNL     1       3.274   2.085  -0.742  0.00  0.00    -0.221 NA
ATOM     12  C13 UNL     1       4.589   2.410  -0.913  0.00  0.00    +0.223 A 
ATOM     13  N4  UNL     1       5.550   1.448  -0.837  0.00  0.00    -0.240 NA
ATOM     14  C14 UNL     1       5.186   0.165  -0.586  0.00  0.00    +0.049 A 
ATOM     15  C15 UNL     1       3.877  -0.185  -0.413  0.00  0.00    +0.014 A 
ATOM     16  C16 UNL     1       3.727  -1.635  -0.139  0.00  0.00    +0.041 C 
ATOM     17  C17 UNL     1       5.166  -2.183  -0.240  0.00  0.00    +0.011 C 
ATOM     18  C18 UNL     1       6.108  -0.983  -0.470  0.00  0.00    +0.056 C 
ATOM     19  H18 UNL     1       1.225  -0.531  -0.202  0.00  0.00    +0.148 HD
ENDBRANCH   8   9
BRANCH   5  20
ATOM     20  C5  UNL     1      -4.199  -0.299  -0.327  0.00  0.00    +0.075 C 
ATOM     21  C7  UNL     1      -4.098  -1.190   0.922  0.00  0.00    +0.019 C 
ATOM     22  C8  UNL     1      -5.057  -2.193   0.298  0.00  0.00    +0.002 C 
ATOM     23  C9  UNL     1      -5.109  -1.363  -0.975  0.00  0.00    +0.019 C 
BRANCH  20  24
ATOM     24  C6  UNL     1      -4.966   1.020  -0.092  0.00  0.00    +0.229 C 
ATOM     25  F1  UNL     1      -4.226   1.900   0.678  0.00  0.00    -0.248 F 
ENDBRANCH  20  24
ENDBRANCH   5  20
TORSDOF 3
