REMARK  Name = /home/qwerty/github/datacon2025hack/step_04_hit_selection/docking/ligands/lig_549.pdb
REMARK  7 active torsions:
REMARK  status: ('A' for Active; 'I' for Inactive)
REMARK    1  A    between atoms: C1_1  and  O1_2
REMARK    2  A    between atoms: O1_2  and  C2_3
REMARK    3  A    between atoms: C2_3  and  C3_5
REMARK    4  A    between atoms: C8_12  and  N3_13
REMARK    5  A    between atoms: C9_14  and  C10_16
REMARK    6  A    between atoms: C13_19  and  C14_20
REMARK    7  A    between atoms: C13_19  and  C15_21
REMARK                            x       y       z     vdW  Elec       q    Type
REMARK                         _______ _______ _______ _____ _____    ______ ____
ROOT
ATOM      1  C3  UNL     1       4.874   0.087   0.662  0.00  0.00    +0.095 A 
ATOM      2  C4  UNL     1       4.139   0.768   1.641  0.00  0.00    +0.131 A 
ATOM      3  N1  UNL     1       2.824   1.038   1.442  0.00  0.00    -0.222 NA
ATOM      4  C5  UNL     1       2.187   0.661   0.299  0.00  0.00    +0.218 A 
ATOM      5  N2  UNL     1       0.786   0.956   0.119  0.00  0.00    -0.299 N 
ATOM      6  C6  UNL     1       0.044   1.630   1.196  0.00  0.00    +0.110 C 
ATOM      7  C7  UNL     1      -1.464   1.651   0.914  0.00  0.00    +0.042 C 
ATOM      8  C8  UNL     1      -1.918   0.269   0.415  0.00  0.00    +0.082 C 
ATOM      9  C13 UNL     1      -1.203  -0.135  -0.938  0.00  0.00    -0.001 C 
ATOM     10  C14 UNL     1      -0.834  -1.635  -0.886  0.00  0.00    +0.014 C 
ATOM     11  C15 UNL     1      -2.116   0.093  -2.168  0.00  0.00    +0.014 C 
ATOM     12  C16 UNL     1       0.102   0.690  -1.157  0.00  0.00    +0.116 C 
ATOM     13  N4  UNL     1       2.886  -0.002  -0.662  0.00  0.00    -0.222 NA
ATOM     14  C17 UNL     1       4.203  -0.294  -0.507  0.00  0.00    +0.131 A 
ENDROOT
BRANCH   8  15
ATOM     15  N3  UNL     1      -3.383   0.243   0.306  0.00  0.00    -0.312 N 
ATOM     16  C9  UNL     1      -4.165  -0.923   0.632  0.00  0.00    +0.216 C 
ATOM     17  O3  UNL     1      -3.606  -1.917   1.168  0.00  0.00    -0.276 OA
ATOM     18  H10 UNL     1      -3.845   1.084  -0.104  0.00  0.00    +0.149 HD
BRANCH  16  19
ATOM     19  C10 UNL     1      -5.649  -1.019   0.364  0.00  0.00    +0.075 C 
ATOM     20  C11 UNL     1      -6.464   0.256   0.517  0.00  0.00    +0.013 C 
ATOM     21  C12 UNL     1      -6.175  -0.303  -0.871  0.00  0.00    +0.013 C 
ENDBRANCH  16  19
ENDBRANCH   8  15
BRANCH   1  22
ATOM     22  C2  UNL     1       6.308  -0.221   0.850  0.00  0.00    +0.342 C 
ATOM     23  O2  UNL     1       6.897   0.130   1.910  0.00  0.00    -0.245 OA
BRANCH  22  25
ATOM     24  C1  UNL     1       8.390  -1.230  -0.030  0.00  0.00    +0.280 C 
ATOM     25  O1  UNL     1       7.011  -0.903  -0.149  0.00  0.00    -0.464 OA
ENDBRANCH  22  25
ENDBRANCH   1  22
TORSDOF 4
