REMARK  Name = /home/qwerty/github/datacon2025hack/step_04_hit_selection/docking/ligands/lig_210.pdb
REMARK  6 active torsions:
REMARK  status: ('A' for Active; 'I' for Inactive)
REMARK    1  A    between atoms: C1_1  and  C2_2
REMARK    2  A    between atoms: C10_10  and  N1_11
REMARK    3  A    between atoms: C11_12  and  C12_14
REMARK    4  A    between atoms: C16_18  and  C17_19
REMARK    5  A    between atoms: C20_25  and  C21_26
REMARK    6  A    between atoms: C24_29  and  C25_30
REMARK                            x       y       z     vdW  Elec       q    Type
REMARK                         _______ _______ _______ _____ _____    ______ ____
ROOT
ATOM      1  C17 UNL     1      -0.083  -0.248   0.277  0.00  0.00    +0.090 A 
ATOM      2  C18 UNL     1      -0.705   0.386   1.398  0.00  0.00    +0.141 A 
ATOM      3  N2  UNL     1       0.053   1.043   2.329  0.00  0.00    -0.233 NA
ATOM      4  C19 UNL     1       1.393   1.075   2.148  0.00  0.00    +0.175 A 
ATOM      5  N3  UNL     1       2.317   1.625   2.947  0.00  0.00    -0.258 N 
ATOM      6  N4  UNL     1       3.514   1.377   2.419  0.00  0.00    -0.168 NA
ATOM      7  C20 UNL     1       3.342   0.665   1.272  0.00  0.00    +0.136 A 
ATOM      8  C34 UNL     1       1.989   0.471   1.097  0.00  0.00    +0.137 A 
ATOM      9  N7  UNL     1       1.282  -0.199   0.158  0.00  0.00    -0.240 NA
ATOM     10  H17 UNL     1       2.153   2.145   3.837  0.00  0.00    +0.191 HD
ENDROOT
BRANCH   7  11
ATOM     11  C21 UNL     1       4.446   0.182   0.426  0.00  0.00    +0.070 A 
ATOM     12  C22 UNL     1       5.796   0.331   0.730  0.00  0.00    +0.040 A 
ATOM     13  C23 UNL     1       6.471  -0.265  -0.319  0.00  0.00    +0.026 A 
ATOM     14  C24 UNL     1       7.838  -0.411  -0.595  0.00  0.00    +0.080 A 
ATOM     15  N5  UNL     1       8.186  -0.997  -1.782  0.00  0.00    -0.254 NA
ATOM     16  C31 UNL     1       7.254  -1.451  -2.677  0.00  0.00    +0.113 A 
ATOM     17  C32 UNL     1       5.882  -1.327  -2.401  0.00  0.00    +0.046 A 
ATOM     18  C33 UNL     1       5.527  -0.718  -1.201  0.00  0.00    +0.050 A 
ATOM     19  N6  UNL     1       4.285  -0.461  -0.757  0.00  0.00    -0.353 N 
ATOM     20  H24 UNL     1       3.392  -0.694  -1.244  0.00  0.00    +0.166 HD
BRANCH  14  21
ATOM     21  C25 UNL     1       8.895   0.038   0.337  0.00  0.00    +0.006 A 
ATOM     22  C26 UNL     1       8.820  -0.256   1.710  0.00  0.00    +0.048 A 
ATOM     23  C27 UNL     1       9.835   0.158   2.577  0.00  0.00    +0.127 A 
ATOM     24  F1  UNL     1       9.756  -0.130   3.900  0.00  0.00    -0.205 F 
ATOM     25  C28 UNL     1      10.937   0.858   2.080  0.00  0.00    +0.076 A 
ATOM     26  C29 UNL     1      11.030   1.139   0.714  0.00  0.00    +0.127 A 
ATOM     27  F2  UNL     1      12.103   1.813   0.233  0.00  0.00    -0.205 F 
ATOM     28  C30 UNL     1      10.017   0.724  -0.157  0.00  0.00    +0.048 A 
ENDBRANCH  14  21
ENDBRANCH   7  11
BRANCH   1  33
ATOM     29  C12 UNL     1      -2.953  -1.347  -1.986  0.00  0.00    +0.037 A 
ATOM     30  C13 UNL     1      -2.328  -2.377  -2.706  0.00  0.00    +0.013 A 
ATOM     31  C14 UNL     1      -0.997  -2.710  -2.453  0.00  0.00    +0.001 A 
ATOM     32  C15 UNL     1      -0.274  -2.019  -1.479  0.00  0.00    +0.010 A 
ATOM     33  C16 UNL     1      -0.874  -0.981  -0.746  0.00  0.00    +0.003 A 
ATOM     34  C35 UNL     1      -2.213  -0.640  -1.021  0.00  0.00    +0.023 A 
BRANCH  29  36
ATOM     35  N1  UNL     1      -5.205  -0.440  -1.240  0.00  0.00    -0.305 N 
ATOM     36  C11 UNL     1      -4.366  -1.001  -2.264  0.00  0.00    +0.245 C 
ATOM     37  O1  UNL     1      -4.843  -1.224  -3.411  0.00  0.00    -0.270 OA
ATOM     38  H12 UNL     1      -4.842  -0.375  -0.261  0.00  0.00    +0.150 HD
BRANCH  35  48
ATOM     39  C1  UNL     1      -9.891   0.540   3.122  0.00  0.00    +0.044 C 
ATOM     40  C2  UNL     1      -8.995   0.386   1.929  0.00  0.00    -0.050 A 
ATOM     41  C3  UNL     1      -8.666  -0.903   1.459  0.00  0.00    +0.004 A 
ATOM     42  C4  UNL     1      -7.855  -1.059   0.325  0.00  0.00    +0.006 A 
ATOM     43  C5  UNL     1      -7.391   0.083  -0.333  0.00  0.00    -0.024 A 
ATOM     44  C6  UNL     1      -7.721   1.339   0.110  0.00  0.00    -0.042 A 
ATOM     45  C7  UNL     1      -8.525   1.520   1.238  0.00  0.00    +0.007 A 
ATOM     46  C8  UNL     1      -7.126   2.402  -0.732  0.00  0.00    +0.037 C 
ATOM     47  C9  UNL     1      -6.414   1.632  -1.863  0.00  0.00    +0.032 C 
ATOM     48  C10 UNL     1      -6.524   0.124  -1.538  0.00  0.00    +0.104 C 
ENDBRANCH  35  48
ENDBRANCH  29  36
ENDBRANCH   1  33
TORSDOF 5
