MODEL 1
REMARK VINA RESULT:    -5.757      0.000      0.000
REMARK INTER + INTRA:          -8.804
REMARK INTER:                  -8.113
REMARK INTRA:                  -0.691
REMARK UNBOUND:                -0.691
REMARK  Name = /home/qwerty/github/datacon2025hack/step_04_hit_selection/docking/ligands/lig_378.pdb
REMARK  10 active torsions:
REMARK  status: ('A' for Active; 'I' for Inactive)
REMARK    1  A    between atoms: C1_1  and  C2_2
REMARK    2  A    between atoms: C2_2  and  C3_3
REMARK    3  A    between atoms: C3_3  and  C4_4
REMARK    4  A    between atoms: C3_3  and  N2_15
REMARK    5  A    between atoms: C4_4  and  N1_5
REMARK    6  A    between atoms: C5_6  and  C6_8
REMARK    7  A    between atoms: C8_10  and  C9_11
REMARK    8  A    between atoms: C10_12  and  C11_13
REMARK    9  A    between atoms: C12_16  and  C13_18
REMARK   10  A    between atoms: C13_18  and  C14_19
REMARK                            x       y       z     vdW  Elec       q    Type
REMARK                         _______ _______ _______ _____ _____    ______ ____
ROOT
ATOM      1  C3  UNL     1      22.176   0.014  28.943  0.00  0.00    +0.090 C 
ENDROOT
BRANCH   1   2
ATOM      2  N2  UNL     1      21.448   0.020  30.217  0.00  0.00    -0.310 N 
ATOM      3  C12 UNL     1      20.216   0.728  30.411  0.00  0.00    +0.225 C 
ATOM      4  O2  UNL     1      19.545   1.133  29.424  0.00  0.00    -0.275 OA
ATOM      5  H17 UNL     1      21.914  -0.400  31.053  0.00  0.00    +0.149 HD
BRANCH   3   6
ATOM      6  C13 UNL     1      19.702   0.961  31.801  0.00  0.00    +0.107 C 
ATOM      7  C15 UNL     1      18.194   0.806  31.953  0.00  0.00    +0.023 C 
ATOM      8  C16 UNL     1      19.130  -0.255  32.522  0.00  0.00    +0.023 C 
BRANCH   6   9
ATOM      9  C14 UNL     1      20.377   2.052  32.647  0.00  0.00    +0.356 C 
ATOM     10  F1  UNL     1      20.271   1.805  34.006  0.00  0.00    -0.208 F 
ATOM     11  F2  UNL     1      21.716   2.135  32.311  0.00  0.00    -0.208 F 
ENDBRANCH   6   9
ENDBRANCH   3   6
ENDBRANCH   1   2
BRANCH   1  13
ATOM     12  C1  UNL     1      24.411  -1.235  28.968  0.00  0.00    +0.006 C 
ATOM     13  C2  UNL     1      22.896  -1.340  28.788  0.00  0.00    +0.020 C 
ENDBRANCH   1  13
BRANCH   1  14
ATOM     14  C4  UNL     1      23.164   1.197  28.920  0.00  0.00    +0.126 C 
BRANCH  14  15
ATOM     15  N1  UNL     1      23.097   1.919  27.648  0.00  0.00    -0.309 N 
ATOM     16  C5  UNL     1      22.245   3.061  27.478  0.00  0.00    +0.251 C 
ATOM     17  O1  UNL     1      21.659   3.558  28.479  0.00  0.00    -0.270 OA
ATOM     18  H9  UNL     1      23.694   1.606  26.850  0.00  0.00    +0.149 HD
BRANCH  16  19
ATOM     19  C6  UNL     1      22.037   3.669  26.150  0.00  0.00    +0.074 A 
ATOM     20  C7  UNL     1      21.139   3.253  25.170  0.00  0.00    +0.024 A 
ATOM     21  C8  UNL     1      21.163   4.052  24.017  0.00  0.00    -0.040 A 
ATOM     22  C9  UNL     1      20.258   3.820  22.844  0.00  0.00    +0.044 C 
ATOM     23  C10 UNL     1      22.067   5.111  24.100  0.00  0.00    -0.010 A 
ATOM     24  C11 UNL     1      22.331   6.138  23.048  0.00  0.00    +0.052 C 
ATOM     25  S1  UNL     1      22.843   5.037  25.589  0.00  0.00    -0.089 S 
ENDBRANCH  16  19
ENDBRANCH  14  15
ENDBRANCH   1  14
TORSDOF 7
ENDMDL
MODEL 2
REMARK VINA RESULT:    -5.689      4.191      6.189
REMARK INTER + INTRA:          -8.708
REMARK INTER:                  -7.777
REMARK INTRA:                  -0.932
REMARK UNBOUND:                -0.691
REMARK  Name = /home/qwerty/github/datacon2025hack/step_04_hit_selection/docking/ligands/lig_378.pdb
REMARK  10 active torsions:
REMARK  status: ('A' for Active; 'I' for Inactive)
REMARK    1  A    between atoms: C1_1  and  C2_2
REMARK    2  A    between atoms: C2_2  and  C3_3
REMARK    3  A    between atoms: C3_3  and  C4_4
REMARK    4  A    between atoms: C3_3  and  N2_15
REMARK    5  A    between atoms: C4_4  and  N1_5
REMARK    6  A    between atoms: C5_6  and  C6_8
REMARK    7  A    between atoms: C8_10  and  C9_11
REMARK    8  A    between atoms: C10_12  and  C11_13
REMARK    9  A    between atoms: C12_16  and  C13_18
REMARK   10  A    between atoms: C13_18  and  C14_19
REMARK                            x       y       z     vdW  Elec       q    Type
REMARK                         _______ _______ _______ _____ _____    ______ ____
ROOT
ATOM      1  C3  UNL     1      20.682   4.104  27.360  0.00  0.00    +0.090 C 
ENDROOT
BRANCH   1   2
ATOM      2  N2  UNL     1      21.513   3.180  28.141  0.00  0.00    -0.310 N 
ATOM      3  C12 UNL     1      21.029   1.926  28.643  0.00  0.00    +0.225 C 
ATOM      4  O2  UNL     1      19.967   1.420  28.191  0.00  0.00    -0.275 OA
ATOM      5  H17 UNL     1      22.454   3.508  28.455  0.00  0.00    +0.149 HD
BRANCH   3   6
ATOM      6  C13 UNL     1      21.811   1.193  29.692  0.00  0.00    +0.107 C 
ATOM      7  C15 UNL     1      21.853   1.885  31.050  0.00  0.00    +0.023 C 
ATOM      8  C16 UNL     1      21.010   0.629  30.861  0.00  0.00    +0.023 C 
BRANCH   6   9
ATOM      9  C14 UNL     1      23.080   0.443  29.255  0.00  0.00    +0.356 C 
ATOM     10  F1  UNL     1      22.792  -0.666  28.476  0.00  0.00    -0.208 F 
ATOM     11  F2  UNL     1      23.895   1.296  28.534  0.00  0.00    -0.208 F 
ENDBRANCH   6   9
ENDBRANCH   3   6
ENDBRANCH   1   2
BRANCH   1  13
ATOM     12  C1  UNL     1      22.714   3.695  25.856  0.00  0.00    +0.006 C 
ATOM     13  C2  UNL     1      21.472   4.549  26.113  0.00  0.00    +0.020 C 
ENDBRANCH   1  13
BRANCH   1  14
ATOM     14  C4  UNL     1      20.287   5.300  28.248  0.00  0.00    +0.126 C 
BRANCH  14  15
ATOM     15  N1  UNL     1      21.419   5.755  29.059  0.00  0.00    -0.309 N 
ATOM     16  C5  UNL     1      21.370   5.735  30.492  0.00  0.00    +0.251 C 
ATOM     17  O1  UNL     1      20.405   5.170  31.077  0.00  0.00    -0.270 OA
ATOM     18  H9  UNL     1      22.287   6.087  28.583  0.00  0.00    +0.149 HD
BRANCH  16  19
ATOM     19  C6  UNL     1      22.430   6.365  31.302  0.00  0.00    +0.074 A 
ATOM     20  C7  UNL     1      23.182   5.766  32.310  0.00  0.00    +0.024 A 
ATOM     21  C8  UNL     1      24.132   6.626  32.882  0.00  0.00    -0.040 A 
ATOM     22  C9  UNL     1      25.081   6.192  33.959  0.00  0.00    +0.044 C 
ATOM     23  C10 UNL     1      24.141   7.897  32.307  0.00  0.00    -0.010 A 
ATOM     24  C11 UNL     1      25.028   9.037  32.687  0.00  0.00    +0.052 C 
ATOM     25  S1  UNL     1      22.960   7.953  31.113  0.00  0.00    -0.089 S 
ENDBRANCH  16  19
ENDBRANCH  14  15
ENDBRANCH   1  14
TORSDOF 7
ENDMDL
MODEL 3
REMARK VINA RESULT:    -5.654      4.035      6.263
REMARK INTER + INTRA:          -8.659
REMARK INTER:                  -7.826
REMARK INTRA:                  -0.833
REMARK UNBOUND:                -0.691
REMARK  Name = /home/qwerty/github/datacon2025hack/step_04_hit_selection/docking/ligands/lig_378.pdb
REMARK  10 active torsions:
REMARK  status: ('A' for Active; 'I' for Inactive)
REMARK    1  A    between atoms: C1_1  and  C2_2
REMARK    2  A    between atoms: C2_2  and  C3_3
REMARK    3  A    between atoms: C3_3  and  C4_4
REMARK    4  A    between atoms: C3_3  and  N2_15
REMARK    5  A    between atoms: C4_4  and  N1_5
REMARK    6  A    between atoms: C5_6  and  C6_8
REMARK    7  A    between atoms: C8_10  and  C9_11
REMARK    8  A    between atoms: C10_12  and  C11_13
REMARK    9  A    between atoms: C12_16  and  C13_18
REMARK   10  A    between atoms: C13_18  and  C14_19
REMARK                            x       y       z     vdW  Elec       q    Type
REMARK                         _______ _______ _______ _____ _____    ______ ____
ROOT
ATOM      1  C3  UNL     1      21.467   3.682  26.754  0.00  0.00    +0.090 C 
ENDROOT
BRANCH   1   2
ATOM      2  N2  UNL     1      22.029   2.685  27.671  0.00  0.00    -0.310 N 
ATOM      3  C12 UNL     1      21.251   1.627  28.249  0.00  0.00    +0.225 C 
ATOM      4  O2  UNL     1      20.125   1.322  27.771  0.00  0.00    -0.275 OA
ATOM      5  H17 UNL     1      23.003   2.829  28.021  0.00  0.00    +0.149 HD
BRANCH   3   6
ATOM      6  C13 UNL     1      21.795   0.853  29.413  0.00  0.00    +0.107 C 
ATOM      7  C15 UNL     1      21.985   1.672  30.685  0.00  0.00    +0.023 C 
ATOM      8  C16 UNL     1      20.851   0.656  30.594  0.00  0.00    +0.023 C 
BRANCH   6   9
ATOM      9  C14 UNL     1      22.837  -0.240  29.129  0.00  0.00    +0.356 C 
ATOM     10  F1  UNL     1      22.469  -1.056  28.071  0.00  0.00    -0.208 F 
ATOM     11  F2  UNL     1      24.055   0.346  28.838  0.00  0.00    -0.208 F 
ENDBRANCH   6   9
ENDBRANCH   3   6
ENDBRANCH   1   2
BRANCH   1  13
ATOM     12  C1  UNL     1      22.123   5.261  24.848  0.00  0.00    +0.006 C 
ATOM     13  C2  UNL     1      22.560   4.109  25.754  0.00  0.00    +0.020 C 
ENDBRANCH   1  13
BRANCH   1  14
ATOM     14  C4  UNL     1      20.936   4.877  27.571  0.00  0.00    +0.126 C 
BRANCH  14  15
ATOM     15  N1  UNL     1      21.806   5.167  28.712  0.00  0.00    -0.309 N 
ATOM     16  C5  UNL     1      21.276   5.653  29.953  0.00  0.00    +0.251 C 
ATOM     17  O1  UNL     1      20.027   5.684  30.131  0.00  0.00    -0.270 OA
ATOM     18  H9  UNL     1      22.834   5.001  28.627  0.00  0.00    +0.149 HD
BRANCH  16  19
ATOM     19  C6  UNL     1      22.166   6.121  31.033  0.00  0.00    +0.074 A 
ATOM     20  C7  UNL     1      22.915   7.296  31.052  0.00  0.00    +0.024 A 
ATOM     21  C8  UNL     1      23.650   7.469  32.235  0.00  0.00    -0.040 A 
ATOM     22  C9  UNL     1      24.499   8.677  32.496  0.00  0.00    +0.044 C 
ATOM     23  C10 UNL     1      23.461   6.439  33.156  0.00  0.00    -0.010 A 
ATOM     24  C11 UNL     1      24.096   6.326  34.503  0.00  0.00    +0.052 C 
ATOM     25  S1  UNL     1      22.405   5.313  32.491  0.00  0.00    -0.089 S 
ENDBRANCH  16  19
ENDBRANCH  14  15
ENDBRANCH   1  14
TORSDOF 7
ENDMDL
MODEL 4
REMARK VINA RESULT:    -5.648      6.119      8.867
REMARK INTER + INTRA:          -8.650
REMARK INTER:                  -7.734
REMARK INTRA:                  -0.916
REMARK UNBOUND:                -0.691
REMARK  Name = /home/qwerty/github/datacon2025hack/step_04_hit_selection/docking/ligands/lig_378.pdb
REMARK  10 active torsions:
REMARK  status: ('A' for Active; 'I' for Inactive)
REMARK    1  A    between atoms: C1_1  and  C2_2
REMARK    2  A    between atoms: C2_2  and  C3_3
REMARK    3  A    between atoms: C3_3  and  C4_4
REMARK    4  A    between atoms: C3_3  and  N2_15
REMARK    5  A    between atoms: C4_4  and  N1_5
REMARK    6  A    between atoms: C5_6  and  C6_8
REMARK    7  A    between atoms: C8_10  and  C9_11
REMARK    8  A    between atoms: C10_12  and  C11_13
REMARK    9  A    between atoms: C12_16  and  C13_18
REMARK   10  A    between atoms: C13_18  and  C14_19
REMARK                            x       y       z     vdW  Elec       q    Type
REMARK                         _______ _______ _______ _____ _____    ______ ____
ROOT
ATOM      1  C3  UNL     1      22.562   7.524  36.187  0.00  0.00    +0.090 C 
ENDROOT
BRANCH   1   2
ATOM      2  N2  UNL     1      23.452   7.715  35.036  0.00  0.00    -0.310 N 
ATOM      3  C12 UNL     1      23.099   8.513  33.898  0.00  0.00    +0.225 C 
ATOM      4  O2  UNL     1      22.138   9.327  33.956  0.00  0.00    -0.275 OA
ATOM      5  H17 UNL     1      24.324   7.141  34.986  0.00  0.00    +0.149 HD
BRANCH   3   6
ATOM      6  C13 UNL     1      23.901   8.403  32.635  0.00  0.00    +0.107 C 
ATOM      7  C15 UNL     1      23.994   9.695  31.830  0.00  0.00    +0.023 C 
ATOM      8  C16 UNL     1      25.210   9.185  32.596  0.00  0.00    +0.023 C 
BRANCH   6   9
ATOM      9  C14 UNL     1      23.817   7.092  31.837  0.00  0.00    +0.356 C 
ATOM     10  F1  UNL     1      24.093   5.983  32.621  0.00  0.00    -0.208 F 
ATOM     11  F2  UNL     1      22.548   6.957  31.303  0.00  0.00    -0.208 F 
ENDBRANCH   6   9
ENDBRANCH   3   6
ENDBRANCH   1   2
BRANCH   1  13
ATOM     12  C1  UNL     1      22.687   6.752  38.625  0.00  0.00    +0.006 C 
ATOM     13  C2  UNL     1      23.267   6.619  37.217  0.00  0.00    +0.020 C 
ENDBRANCH   1  13
BRANCH   1  14
ATOM     14  C4  UNL     1      21.232   6.913  35.700  0.00  0.00    +0.126 C 
BRANCH  14  15
ATOM     15  N1  UNL     1      21.462   5.692  34.925  0.00  0.00    -0.309 N 
ATOM     16  C5  UNL     1      20.739   5.426  33.715  0.00  0.00    +0.251 C 
ATOM     17  O1  UNL     1      20.005   6.322  33.215  0.00  0.00    -0.270 OA
ATOM     18  H9  UNL     1      22.180   5.008  35.250  0.00  0.00    +0.149 HD
BRANCH  16  19
ATOM     19  C6  UNL     1      20.834   4.117  33.040  0.00  0.00    +0.074 A 
ATOM     20  C7  UNL     1      21.720   3.761  32.026  0.00  0.00    +0.024 A 
ATOM     21  C8  UNL     1      21.576   2.431  31.603  0.00  0.00    -0.040 A 
ATOM     22  C9  UNL     1      22.445   1.812  30.549  0.00  0.00    +0.044 C 
ATOM     23  C10 UNL     1      20.590   1.735  32.301  0.00  0.00    -0.010 A 
ATOM     24  C11 UNL     1      20.193   0.310  32.093  0.00  0.00    +0.052 C 
ATOM     25  S1  UNL     1      19.890   2.775  33.420  0.00  0.00    -0.089 S 
ENDBRANCH  16  19
ENDBRANCH  14  15
ENDBRANCH   1  14
TORSDOF 7
ENDMDL
MODEL 5
REMARK VINA RESULT:    -5.585      4.550      6.187
REMARK INTER + INTRA:          -8.562
REMARK INTER:                  -7.683
REMARK INTRA:                  -0.879
REMARK UNBOUND:                -0.691
REMARK  Name = /home/qwerty/github/datacon2025hack/step_04_hit_selection/docking/ligands/lig_378.pdb
REMARK  10 active torsions:
REMARK  status: ('A' for Active; 'I' for Inactive)
REMARK    1  A    between atoms: C1_1  and  C2_2
REMARK    2  A    between atoms: C2_2  and  C3_3
REMARK    3  A    between atoms: C3_3  and  C4_4
REMARK    4  A    between atoms: C3_3  and  N2_15
REMARK    5  A    between atoms: C4_4  and  N1_5
REMARK    6  A    between atoms: C5_6  and  C6_8
REMARK    7  A    between atoms: C8_10  and  C9_11
REMARK    8  A    between atoms: C10_12  and  C11_13
REMARK    9  A    between atoms: C12_16  and  C13_18
REMARK   10  A    between atoms: C13_18  and  C14_19
REMARK                            x       y       z     vdW  Elec       q    Type
REMARK                         _______ _______ _______ _____ _____    ______ ____
ROOT
ATOM      1  C3  UNL     1      20.802   3.354  26.266  0.00  0.00    +0.090 C 
ENDROOT
BRANCH   1   2
ATOM      2  N2  UNL     1      21.590   2.657  27.288  0.00  0.00    -0.310 N 
ATOM      3  C12 UNL     1      21.491   1.245  27.524  0.00  0.00    +0.225 C 
ATOM      4  O2  UNL     1      20.948   0.488  26.676  0.00  0.00    -0.275 OA
ATOM      5  H17 UNL     1      22.149   3.232  27.958  0.00  0.00    +0.149 HD
BRANCH   3   6
ATOM      6  C13 UNL     1      22.068   0.658  28.778  0.00  0.00    +0.107 C 
ATOM      7  C15 UNL     1      22.252   1.654  29.918  0.00  0.00    +0.023 C 
ATOM      8  C16 UNL     1      21.143   0.610  29.989  0.00  0.00    +0.023 C 
BRANCH   6   9
ATOM      9  C14 UNL     1      23.134  -0.440  28.637  0.00  0.00    +0.356 C 
ATOM     10  F1  UNL     1      24.323  -0.102  29.264  0.00  0.00    -0.208 F 
ATOM     11  F2  UNL     1      22.660  -1.618  29.185  0.00  0.00    -0.208 F 
ENDBRANCH   6   9
ENDBRANCH   3   6
ENDBRANCH   1   2
BRANCH   1  13
ATOM     12  C1  UNL     1      22.848   4.763  25.645  0.00  0.00    +0.006 C 
ATOM     13  C2  UNL     1      21.380   4.770  26.073  0.00  0.00    +0.020 C 
ENDBRANCH   1  13
BRANCH   1  14
ATOM     14  C4  UNL     1      19.324   3.392  26.707  0.00  0.00    +0.126 C 
BRANCH  14  15
ATOM     15  N1  UNL     1      18.564   2.296  26.102  0.00  0.00    -0.309 N 
ATOM     16  C5  UNL     1      17.699   1.462  26.886  0.00  0.00    +0.251 C 
ATOM     17  O1  UNL     1      17.456   1.767  28.086  0.00  0.00    -0.270 OA
ATOM     18  H9  UNL     1      18.640   2.126  25.074  0.00  0.00    +0.149 HD
BRANCH  16  19
ATOM     19  C6  UNL     1      17.083   0.249  26.315  0.00  0.00    +0.074 A 
ATOM     20  C7  UNL     1      17.691  -0.686  25.480  0.00  0.00    +0.024 A 
ATOM     21  C8  UNL     1      16.844  -1.745  25.120  0.00  0.00    -0.040 A 
ATOM     22  C9  UNL     1      17.291  -2.889  24.259  0.00  0.00    +0.044 C 
ATOM     23  C10 UNL     1      15.575  -1.654  25.691  0.00  0.00    -0.010 A 
ATOM     24  C11 UNL     1      14.448  -2.617  25.507  0.00  0.00    +0.052 C 
ATOM     25  S1  UNL     1      15.504  -0.253  26.617  0.00  0.00    -0.089 S 
ENDBRANCH  16  19
ENDBRANCH  14  15
ENDBRANCH   1  14
TORSDOF 7
ENDMDL
MODEL 6
REMARK VINA RESULT:    -5.578     12.028     14.633
REMARK INTER + INTRA:          -8.552
REMARK INTER:                  -7.609
REMARK INTRA:                  -0.944
REMARK UNBOUND:                -0.691
REMARK  Name = /home/qwerty/github/datacon2025hack/step_04_hit_selection/docking/ligands/lig_378.pdb
REMARK  10 active torsions:
REMARK  status: ('A' for Active; 'I' for Inactive)
REMARK    1  A    between atoms: C1_1  and  C2_2
REMARK    2  A    between atoms: C2_2  and  C3_3
REMARK    3  A    between atoms: C3_3  and  C4_4
REMARK    4  A    between atoms: C3_3  and  N2_15
REMARK    5  A    between atoms: C4_4  and  N1_5
REMARK    6  A    between atoms: C5_6  and  C6_8
REMARK    7  A    between atoms: C8_10  and  C9_11
REMARK    8  A    between atoms: C10_12  and  C11_13
REMARK    9  A    between atoms: C12_16  and  C13_18
REMARK   10  A    between atoms: C13_18  and  C14_19
REMARK                            x       y       z     vdW  Elec       q    Type
REMARK                         _______ _______ _______ _____ _____    ______ ____
ROOT
ATOM      1  C3  UNL     1       8.141   5.613  21.993  0.00  0.00    +0.090 C 
ENDROOT
BRANCH   1   2
ATOM      2  N2  UNL     1       9.118   6.691  21.802  0.00  0.00    -0.310 N 
ATOM      3  C12 UNL     1       8.747   8.070  21.666  0.00  0.00    +0.225 C 
ATOM      4  O2  UNL     1       7.596   8.461  21.999  0.00  0.00    -0.275 OA
ATOM      5  H17 UNL     1      10.115   6.428  21.627  0.00  0.00    +0.149 HD
BRANCH   3   6
ATOM      6  C13 UNL     1       9.748   9.063  21.154  0.00  0.00    +0.107 C 
ATOM      7  C15 UNL     1       9.181  10.452  20.884  0.00  0.00    +0.023 C 
ATOM      8  C16 UNL     1      10.089  10.220  22.086  0.00  0.00    +0.023 C 
BRANCH   6   9
ATOM      9  C14 UNL     1      10.838   8.560  20.195  0.00  0.00    +0.356 C 
ATOM     10  F1  UNL     1      11.126   9.479  19.198  0.00  0.00    -0.208 F 
ATOM     11  F2  UNL     1      11.995   8.297  20.907  0.00  0.00    -0.208 F 
ENDBRANCH   6   9
ENDBRANCH   3   6
ENDBRANCH   1   2
BRANCH   1  13
ATOM     12  C1  UNL     1       7.582   3.712  23.614  0.00  0.00    +0.006 C 
ATOM     13  C2  UNL     1       8.292   5.052  23.421  0.00  0.00    +0.020 C 
ENDBRANCH   1  13
BRANCH   1  14
ATOM     14  C4  UNL     1       8.370   4.529  20.922  0.00  0.00    +0.126 C 
BRANCH  14  15
ATOM     15  N1  UNL     1       9.757   4.534  20.451  0.00  0.00    -0.309 N 
ATOM     16  C5  UNL     1      10.702   3.549  20.893  0.00  0.00    +0.251 C 
ATOM     17  O1  UNL     1      10.305   2.564  21.573  0.00  0.00    -0.270 OA
ATOM     18  H9  UNL     1      10.061   5.260  19.765  0.00  0.00    +0.149 HD
BRANCH  16  19
ATOM     19  C6  UNL     1      12.136   3.666  20.567  0.00  0.00    +0.074 A 
ATOM     20  C7  UNL     1      13.068   2.632  20.506  0.00  0.00    +0.024 A 
ATOM     21  C8  UNL     1      14.355   3.063  20.148  0.00  0.00    -0.040 A 
ATOM     22  C9  UNL     1      15.512   2.124  19.982  0.00  0.00    +0.044 C 
ATOM     23  C10 UNL     1      14.428   4.435  19.906  0.00  0.00    -0.010 A 
ATOM     24  C11 UNL     1      15.647   5.202  19.509  0.00  0.00    +0.052 C 
ATOM     25  S1  UNL     1      12.909   5.106  20.159  0.00  0.00    -0.089 S 
ENDBRANCH  16  19
ENDBRANCH  14  15
ENDBRANCH   1  14
TORSDOF 7
ENDMDL
MODEL 7
REMARK VINA RESULT:    -5.540      3.236      7.398
REMARK INTER + INTRA:          -8.498
REMARK INTER:                  -7.771
REMARK INTRA:                  -0.727
REMARK UNBOUND:                -0.691
REMARK  Name = /home/qwerty/github/datacon2025hack/step_04_hit_selection/docking/ligands/lig_378.pdb
REMARK  10 active torsions:
REMARK  status: ('A' for Active; 'I' for Inactive)
REMARK    1  A    between atoms: C1_1  and  C2_2
REMARK    2  A    between atoms: C2_2  and  C3_3
REMARK    3  A    between atoms: C3_3  and  C4_4
REMARK    4  A    between atoms: C3_3  and  N2_15
REMARK    5  A    between atoms: C4_4  and  N1_5
REMARK    6  A    between atoms: C5_6  and  C6_8
REMARK    7  A    between atoms: C8_10  and  C9_11
REMARK    8  A    between atoms: C10_12  and  C11_13
REMARK    9  A    between atoms: C12_16  and  C13_18
REMARK   10  A    between atoms: C13_18  and  C14_19
REMARK                            x       y       z     vdW  Elec       q    Type
REMARK                         _______ _______ _______ _____ _____    ______ ____
ROOT
ATOM      1  C3  UNL     1      22.924   1.086  29.128  0.00  0.00    +0.090 C 
ENDROOT
BRANCH   1   2
ATOM      2  N2  UNL     1      22.779   1.626  27.771  0.00  0.00    -0.310 N 
ATOM      3  C12 UNL     1      22.068   2.838  27.482  0.00  0.00    +0.225 C 
ATOM      4  O2  UNL     1      21.787   3.653  28.402  0.00  0.00    -0.275 OA
ATOM      5  H17 UNL     1      23.096   1.036  26.969  0.00  0.00    +0.149 HD
BRANCH   3   6
ATOM      6  C13 UNL     1      21.682   3.155  26.068  0.00  0.00    +0.107 C 
ATOM      7  C15 UNL     1      20.806   2.103  25.399  0.00  0.00    +0.023 C 
ATOM      8  C16 UNL     1      20.205   3.440  25.818  0.00  0.00    +0.023 C 
BRANCH   6   9
ATOM      9  C14 UNL     1      22.717   3.865  25.180  0.00  0.00    +0.356 C 
ATOM     10  F1  UNL     1      22.122   4.660  24.213  0.00  0.00    -0.208 F 
ATOM     11  F2  UNL     1      23.537   4.654  25.965  0.00  0.00    -0.208 F 
ENDBRANCH   6   9
ENDBRANCH   3   6
ENDBRANCH   1   2
BRANCH   1  13
ATOM     12  C1  UNL     1      24.619  -0.830  29.037  0.00  0.00    +0.006 C 
ATOM     13  C2  UNL     1      24.388   0.651  29.337  0.00  0.00    +0.020 C 
ENDBRANCH   1  13
BRANCH   1  14
ATOM     14  C4  UNL     1      21.942  -0.089  29.310  0.00  0.00    +0.126 C 
BRANCH  14  15
ATOM     15  N1  UNL     1      21.219   0.018  30.579  0.00  0.00    -0.309 N 
ATOM     16  C5  UNL     1      19.963   0.704  30.670  0.00  0.00    +0.251 C 
ATOM     17  O1  UNL     1      19.383   1.088  29.617  0.00  0.00    -0.270 OA
ATOM     18  H9  UNL     1      21.618  -0.429  31.434  0.00  0.00    +0.149 HD
BRANCH  16  19
ATOM     19  C6  UNL     1      19.331   0.972  31.976  0.00  0.00    +0.074 A 
ATOM     20  C7  UNL     1      18.391   0.179  32.630  0.00  0.00    +0.024 A 
ATOM     21  C8  UNL     1      17.994   0.696  33.873  0.00  0.00    -0.040 A 
ATOM     22  C9  UNL     1      17.020  -0.003  34.773  0.00  0.00    +0.044 C 
ATOM     23  C10 UNL     1      18.640   1.887  34.205  0.00  0.00    -0.010 A 
ATOM     24  C11 UNL     1      18.442   2.687  35.451  0.00  0.00    +0.052 C 
ATOM     25  S1  UNL     1      19.679   2.301  32.950  0.00  0.00    -0.089 S 
ENDBRANCH  16  19
ENDBRANCH  14  15
ENDBRANCH   1  14
TORSDOF 7
ENDMDL
MODEL 8
REMARK VINA RESULT:    -5.513      3.819      5.626
REMARK INTER + INTRA:          -8.460
REMARK INTER:                  -7.656
REMARK INTRA:                  -0.804
REMARK UNBOUND:                -0.691
REMARK  Name = /home/qwerty/github/datacon2025hack/step_04_hit_selection/docking/ligands/lig_378.pdb
REMARK  10 active torsions:
REMARK  status: ('A' for Active; 'I' for Inactive)
REMARK    1  A    between atoms: C1_1  and  C2_2
REMARK    2  A    between atoms: C2_2  and  C3_3
REMARK    3  A    between atoms: C3_3  and  C4_4
REMARK    4  A    between atoms: C3_3  and  N2_15
REMARK    5  A    between atoms: C4_4  and  N1_5
REMARK    6  A    between atoms: C5_6  and  C6_8
REMARK    7  A    between atoms: C8_10  and  C9_11
REMARK    8  A    between atoms: C10_12  and  C11_13
REMARK    9  A    between atoms: C12_16  and  C13_18
REMARK   10  A    between atoms: C13_18  and  C14_19
REMARK                            x       y       z     vdW  Elec       q    Type
REMARK                         _______ _______ _______ _____ _____    ______ ____
ROOT
ATOM      1  C3  UNL     1      19.598   1.587  31.331  0.00  0.00    +0.090 C 
ENDROOT
BRANCH   1   2
ATOM      2  N2  UNL     1      20.523   0.964  30.379  0.00  0.00    -0.310 N 
ATOM      3  C12 UNL     1      21.855   1.445  30.151  0.00  0.00    +0.225 C 
ATOM      4  O2  UNL     1      22.400   2.237  30.966  0.00  0.00    -0.275 OA
ATOM      5  H17 UNL     1      20.152   0.220  29.745  0.00  0.00    +0.149 HD
BRANCH   3   6
ATOM      6  C13 UNL     1      22.622   0.976  28.950  0.00  0.00    +0.107 C 
ATOM      7  C15 UNL     1      24.077   0.617  29.228  0.00  0.00    +0.023 C 
ATOM      8  C16 UNL     1      23.059  -0.485  28.956  0.00  0.00    +0.023 C 
BRANCH   6   9
ATOM      9  C14 UNL     1      22.315   1.634  27.596  0.00  0.00    +0.356 C 
ATOM     10  F1  UNL     1      20.953   1.750  27.364  0.00  0.00    -0.208 F 
ATOM     11  F2  UNL     1      22.883   2.894  27.555  0.00  0.00    -0.208 F 
ENDBRANCH   6   9
ENDBRANCH   3   6
ENDBRANCH   1   2
BRANCH   1  13
ATOM     12  C1  UNL     1      18.278  -0.187  32.622  0.00  0.00    +0.006 C 
ATOM     13  C2  UNL     1      19.517   0.708  32.595  0.00  0.00    +0.020 C 
ENDBRANCH   1  13
BRANCH   1  14
ATOM     14  C4  UNL     1      18.221   1.757  30.660  0.00  0.00    +0.126 C 
BRANCH  14  15
ATOM     15  N1  UNL     1      18.136   0.979  29.422  0.00  0.00    -0.309 N 
ATOM     16  C5  UNL     1      17.738   1.583  28.183  0.00  0.00    +0.251 C 
ATOM     17  O1  UNL     1      17.612   2.836  28.111  0.00  0.00    -0.270 OA
ATOM     18  H9  UNL     1      18.385  -0.035  29.437  0.00  0.00    +0.149 HD
BRANCH  16  19
ATOM     19  C6  UNL     1      17.473   0.765  26.984  0.00  0.00    +0.074 A 
ATOM     20  C7  UNL     1      16.607  -0.322  26.887  0.00  0.00    +0.024 A 
ATOM     21  C8  UNL     1      16.557  -0.881  25.601  0.00  0.00    -0.040 A 
ATOM     22  C9  UNL     1      15.668  -2.036  25.248  0.00  0.00    +0.044 C 
ATOM     23  C10 UNL     1      17.369  -0.219  24.681  0.00  0.00    -0.010 A 
ATOM     24  C11 UNL     1      17.539  -0.564  23.238  0.00  0.00    +0.052 C 
ATOM     25  S1  UNL     1      18.157   1.038  25.470  0.00  0.00    -0.089 S 
ENDBRANCH  16  19
ENDBRANCH  14  15
ENDBRANCH   1  14
TORSDOF 7
ENDMDL
MODEL 9
REMARK VINA RESULT:    -5.496     12.024     14.856
REMARK INTER + INTRA:          -8.436
REMARK INTER:                  -7.712
REMARK INTRA:                  -0.724
REMARK UNBOUND:                -0.691
REMARK  Name = /home/qwerty/github/datacon2025hack/step_04_hit_selection/docking/ligands/lig_378.pdb
REMARK  10 active torsions:
REMARK  status: ('A' for Active; 'I' for Inactive)
REMARK    1  A    between atoms: C1_1  and  C2_2
REMARK    2  A    between atoms: C2_2  and  C3_3
REMARK    3  A    between atoms: C3_3  and  C4_4
REMARK    4  A    between atoms: C3_3  and  N2_15
REMARK    5  A    between atoms: C4_4  and  N1_5
REMARK    6  A    between atoms: C5_6  and  C6_8
REMARK    7  A    between atoms: C8_10  and  C9_11
REMARK    8  A    between atoms: C10_12  and  C11_13
REMARK    9  A    between atoms: C12_16  and  C13_18
REMARK   10  A    between atoms: C13_18  and  C14_19
REMARK                            x       y       z     vdW  Elec       q    Type
REMARK                         _______ _______ _______ _____ _____    ______ ____
ROOT
ATOM      1  C3  UNL     1       8.967   5.659  20.635  0.00  0.00    +0.090 C 
ENDROOT
BRANCH   1   2
ATOM      2  N2  UNL     1       8.915   7.123  20.576  0.00  0.00    -0.310 N 
ATOM      3  C12 UNL     1      10.078   7.942  20.388  0.00  0.00    +0.225 C 
ATOM      4  O2  UNL     1      11.156   7.440  19.969  0.00  0.00    -0.275 OA
ATOM      5  H17 UNL     1       8.012   7.595  20.811  0.00  0.00    +0.149 HD
BRANCH   3   6
ATOM      6  C13 UNL     1      10.003   9.415  20.660  0.00  0.00    +0.107 C 
ATOM      7  C15 UNL     1       8.681   9.883  21.258  0.00  0.00    +0.023 C 
ATOM      8  C16 UNL     1       9.933   9.828  22.126  0.00  0.00    +0.023 C 
BRANCH   6   9
ATOM      9  C14 UNL     1      10.695  10.368  19.672  0.00  0.00    +0.356 C 
ATOM     10  F1  UNL     1       9.858  11.391  19.256  0.00  0.00    -0.208 F 
ATOM     11  F2  UNL     1      11.813  10.921  20.269  0.00  0.00    -0.208 F 
ENDBRANCH   6   9
ENDBRANCH   3   6
ENDBRANCH   1   2
BRANCH   1  13
ATOM     12  C1  UNL     1       6.471   6.215  20.746  0.00  0.00    +0.006 C 
ATOM     13  C2  UNL     1       7.532   5.114  20.771  0.00  0.00    +0.020 C 
ENDBRANCH   1  13
BRANCH   1  14
ATOM     14  C4  UNL     1       9.858   5.233  21.820  0.00  0.00    +0.126 C 
BRANCH  14  15
ATOM     15  N1  UNL     1      11.144   4.708  21.353  0.00  0.00    -0.309 N 
ATOM     16  C5  UNL     1      11.394   3.298  21.280  0.00  0.00    +0.251 C 
ATOM     17  O1  UNL     1      10.448   2.484  21.464  0.00  0.00    -0.270 OA
ATOM     18  H9  UNL     1      11.890   5.375  21.053  0.00  0.00    +0.149 HD
BRANCH  16  19
ATOM     19  C6  UNL     1      12.744   2.776  20.992  0.00  0.00    +0.074 A 
ATOM     20  C7  UNL     1      13.783   3.448  20.352  0.00  0.00    +0.024 A 
ATOM     21  C8  UNL     1      14.957   2.686  20.245  0.00  0.00    -0.040 A 
ATOM     22  C9  UNL     1      16.218   3.213  19.628  0.00  0.00    +0.044 C 
ATOM     23  C10 UNL     1      14.846   1.420  20.821  0.00  0.00    -0.010 A 
ATOM     24  C11 UNL     1      15.909   0.373  20.874  0.00  0.00    +0.052 C 
ATOM     25  S1  UNL     1      13.292   1.247  21.438  0.00  0.00    -0.089 S 
ENDBRANCH  16  19
ENDBRANCH  14  15
ENDBRANCH   1  14
TORSDOF 7
ENDMDL
