MODEL 1
REMARK VINA RESULT:    -6.792      0.000      0.000
REMARK INTER + INTRA:          -8.990
REMARK INTER:                  -8.381
REMARK INTRA:                  -0.609
REMARK UNBOUND:                -0.609
REMARK  Name = /home/qwerty/github/datacon2025hack/step_04_hit_selection/docking/ligands/lig_39.pdb
REMARK  6 active torsions:
REMARK  status: ('A' for Active; 'I' for Inactive)
REMARK    1  A    between atoms: C1_1  and  C2_2
REMARK    2  A    between atoms: C4_4  and  C5_5
REMARK    3  A    between atoms: C7_7  and  C8_8
REMARK    4  A    between atoms: N1_10  and  C9_11
REMARK    5  A    between atoms: N2_14  and  C12_15
REMARK    6  A    between atoms: C15_18  and  C16_19
REMARK                            x       y       z     vdW  Elec       q    Type
REMARK                         _______ _______ _______ _____ _____    ______ ____
ROOT
ATOM      1  C9  UNL     1      22.054   5.111  24.205  0.00  0.00    +0.076 C 
ATOM      2  C10 UNL     1      23.169   4.650  25.162  0.00  0.00    +0.041 C 
ATOM      3  C11 UNL     1      22.676   3.506  26.054  0.00  0.00    +0.107 C 
ATOM      4  N2  UNL     1      21.445   3.875  26.771  0.00  0.00    -0.329 N 
ATOM      5  C18 UNL     1      20.761   5.137  26.449  0.00  0.00    +0.107 C 
ATOM      6  C19 UNL     1      20.700   5.351  24.930  0.00  0.00    +0.041 C 
ENDROOT
BRANCH   4   7
ATOM      7  C12 UNL     1      21.013   3.077  27.895  0.00  0.00    +0.048 A 
ATOM      8  C13 UNL     1      21.683   1.890  28.233  0.00  0.00    +0.027 A 
ATOM      9  C14 UNL     1      21.259   1.128  29.323  0.00  0.00    +0.033 A 
ATOM     10  C15 UNL     1      20.161   1.559  30.081  0.00  0.00    +0.111 A 
ATOM     11  N7  UNL     1      19.528   2.715  29.744  0.00  0.00    -0.250 NA
ATOM     12  C17 UNL     1      19.921   3.473  28.686  0.00  0.00    +0.134 A 
BRANCH  10  13
ATOM     13  C16 UNL     1      19.682   0.781  31.235  0.00  0.00    +0.222 A 
ATOM     14  N3  UNL     1      18.391   0.468  31.468  0.00  0.00    -0.106 NA
ATOM     15  N4  UNL     1      18.408  -0.224  32.595  0.00  0.00    -0.048 NA
ATOM     16  N5  UNL     1      19.654  -0.323  33.023  0.00  0.00    -0.176 N 
ATOM     17  N6  UNL     1      20.484   0.293  32.201  0.00  0.00    -0.132 NA
ATOM     18  H17 UNL     1      19.944  -0.821  33.894  0.00  0.00    +0.214 HD
ENDBRANCH  10  13
ENDBRANCH   4   7
BRANCH   1  21
ATOM     19  C8  UNL     1      22.263   6.470  22.068  0.00  0.00    +0.244 C 
ATOM     20  O1  UNL     1      21.865   5.484  21.389  0.00  0.00    -0.270 OA
ATOM     21  N1  UNL     1      22.470   6.320  23.484  0.00  0.00    -0.308 N 
ATOM     22  H9  UNL     1      23.005   7.058  23.995  0.00  0.00    +0.149 HD
BRANCH  19  29
ATOM     23  C1  UNL     1      20.529  10.764  20.137  0.00  0.00    +0.044 C 
ATOM     24  C2  UNL     1      21.677   9.844  20.434  0.00  0.00    -0.049 A 
ATOM     25  C3  UNL     1      22.990  10.239  20.143  0.00  0.00    +0.006 A 
ATOM     26  C4  UNL     1      24.069   9.398  20.449  0.00  0.00    -0.049 A 
ATOM     27  C5  UNL     1      25.474   9.847  20.174  0.00  0.00    +0.044 C 
ATOM     28  C6  UNL     1      23.832   8.171  21.085  0.00  0.00    +0.016 A 
ATOM     29  C7  UNL     1      22.521   7.763  21.390  0.00  0.00    +0.037 A 
ATOM     30  C20 UNL     1      21.449   8.615  21.072  0.00  0.00    +0.016 A 
ENDBRANCH  19  29
ENDBRANCH   1  21
TORSDOF 4
ENDMDL
MODEL 2
REMARK VINA RESULT:    -6.696     10.899     13.479
REMARK INTER + INTRA:          -8.871
REMARK INTER:                  -8.332
REMARK INTRA:                  -0.539
REMARK UNBOUND:                -0.609
REMARK  Name = /home/qwerty/github/datacon2025hack/step_04_hit_selection/docking/ligands/lig_39.pdb
REMARK  6 active torsions:
REMARK  status: ('A' for Active; 'I' for Inactive)
REMARK    1  A    between atoms: C1_1  and  C2_2
REMARK    2  A    between atoms: C4_4  and  C5_5
REMARK    3  A    between atoms: C7_7  and  C8_8
REMARK    4  A    between atoms: N1_10  and  C9_11
REMARK    5  A    between atoms: N2_14  and  C12_15
REMARK    6  A    between atoms: C15_18  and  C16_19
REMARK                            x       y       z     vdW  Elec       q    Type
REMARK                         _______ _______ _______ _____ _____    ______ ____
ROOT
ATOM      1  C9  UNL     1      13.741   4.359  21.316  0.00  0.00    +0.076 C 
ATOM      2  C10 UNL     1      12.679   4.539  20.216  0.00  0.00    +0.041 C 
ATOM      3  C11 UNL     1      12.049   5.933  20.297  0.00  0.00    +0.107 C 
ATOM      4  N2  UNL     1      11.509   6.202  21.641  0.00  0.00    -0.329 N 
ATOM      5  C18 UNL     1      11.769   5.255  22.736  0.00  0.00    +0.107 C 
ATOM      6  C19 UNL     1      13.233   4.793  22.720  0.00  0.00    +0.041 C 
ENDROOT
BRANCH   4   7
ATOM      7  C12 UNL     1      10.595   7.303  21.829  0.00  0.00    +0.048 A 
ATOM      8  C13 UNL     1      11.046   8.534  22.333  0.00  0.00    +0.027 A 
ATOM      9  C14 UNL     1      10.153   9.593  22.509  0.00  0.00    +0.033 A 
ATOM     10  C15 UNL     1       8.803   9.421  22.174  0.00  0.00    +0.111 A 
ATOM     11  N7  UNL     1       8.384   8.224  21.681  0.00  0.00    -0.250 NA
ATOM     12  C17 UNL     1       9.233   7.177  21.502  0.00  0.00    +0.134 A 
BRANCH  10  13
ATOM     13  C16 UNL     1       7.831  10.512  22.347  0.00  0.00    +0.222 A 
ATOM     14  N3  UNL     1       7.630  11.509  21.460  0.00  0.00    -0.106 NA
ATOM     15  N4  UNL     1       6.687  12.260  22.005  0.00  0.00    -0.048 NA
ATOM     16  N5  UNL     1       6.336  11.741  23.168  0.00  0.00    -0.176 N 
ATOM     17  N6  UNL     1       7.030  10.645  23.421  0.00  0.00    -0.132 NA
ATOM     18  H17 UNL     1       5.610  12.142  23.802  0.00  0.00    +0.214 HD
ENDBRANCH  10  13
ENDBRANCH   4   7
BRANCH   1  21
ATOM     19  C8  UNL     1      15.288   2.509  20.514  0.00  0.00    +0.244 C 
ATOM     20  O1  UNL     1      15.742   3.266  19.612  0.00  0.00    -0.270 OA
ATOM     21  N1  UNL     1      14.210   2.968  21.349  0.00  0.00    -0.308 N 
ATOM     22  H9  UNL     1      13.694   2.272  21.933  0.00  0.00    +0.149 HD
BRANCH  19  29
ATOM     23  C1  UNL     1      17.294  -1.626  18.503  0.00  0.00    +0.044 C 
ATOM     24  C2  UNL     1      16.827  -0.864  19.708  0.00  0.00    -0.049 A 
ATOM     25  C3  UNL     1      17.009  -1.396  20.992  0.00  0.00    +0.006 A 
ATOM     26  C4  UNL     1      16.605  -0.674  22.124  0.00  0.00    -0.049 A 
ATOM     27  C5  UNL     1      16.843  -1.231  23.496  0.00  0.00    +0.044 C 
ATOM     28  C6  UNL     1      16.050   0.605  21.968  0.00  0.00    +0.016 A 
ATOM     29  C7  UNL     1      15.867   1.156  20.687  0.00  0.00    +0.037 A 
ATOM     30  C20 UNL     1      16.272   0.417  19.562  0.00  0.00    +0.016 A 
ENDBRANCH  19  29
ENDBRANCH   1  21
TORSDOF 4
ENDMDL
MODEL 3
REMARK VINA RESULT:    -6.539      8.821     12.529
REMARK INTER + INTRA:          -8.677
REMARK INTER:                  -8.050
REMARK INTRA:                  -0.626
REMARK UNBOUND:                -0.609
REMARK  Name = /home/qwerty/github/datacon2025hack/step_04_hit_selection/docking/ligands/lig_39.pdb
REMARK  6 active torsions:
REMARK  status: ('A' for Active; 'I' for Inactive)
REMARK    1  A    between atoms: C1_1  and  C2_2
REMARK    2  A    between atoms: C4_4  and  C5_5
REMARK    3  A    between atoms: C7_7  and  C8_8
REMARK    4  A    between atoms: N1_10  and  C9_11
REMARK    5  A    between atoms: N2_14  and  C12_15
REMARK    6  A    between atoms: C15_18  and  C16_19
REMARK                            x       y       z     vdW  Elec       q    Type
REMARK                         _______ _______ _______ _____ _____    ______ ____
ROOT
ATOM      1  C9  UNL     1      17.483   8.138  19.820  0.00  0.00    +0.076 C 
ATOM      2  C10 UNL     1      16.891   9.443  19.258  0.00  0.00    +0.041 C 
ATOM      3  C11 UNL     1      17.916  10.579  19.335  0.00  0.00    +0.107 C 
ATOM      4  N2  UNL     1      18.430  10.746  20.704  0.00  0.00    -0.329 N 
ATOM      5  C18 UNL     1      18.076   9.768  21.743  0.00  0.00    +0.107 C 
ATOM      6  C19 UNL     1      18.174   8.336  21.199  0.00  0.00    +0.041 C 
ENDROOT
BRANCH   4   7
ATOM      7  C12 UNL     1      19.140  11.955  21.050  0.00  0.00    +0.048 A 
ATOM      8  C13 UNL     1      19.219  13.027  20.147  0.00  0.00    +0.027 A 
ATOM      9  C14 UNL     1      19.905  14.193  20.493  0.00  0.00    +0.033 A 
ATOM     10  C15 UNL     1      20.513  14.286  21.753  0.00  0.00    +0.111 A 
ATOM     11  N7  UNL     1      20.422  13.241  22.619  0.00  0.00    -0.250 NA
ATOM     12  C17 UNL     1      19.761  12.095  22.304  0.00  0.00    +0.134 A 
BRANCH  10  13
ATOM     13  C16 UNL     1      21.248  15.497  22.154  0.00  0.00    +0.222 A 
ATOM     14  N3  UNL     1      21.154  16.087  23.363  0.00  0.00    -0.106 NA
ATOM     15  N4  UNL     1      21.967  17.129  23.295  0.00  0.00    -0.048 NA
ATOM     16  N5  UNL     1      22.526  17.165  22.099  0.00  0.00    -0.176 N 
ATOM     17  N6  UNL     1      22.103  16.160  21.352  0.00  0.00    -0.132 NA
ATOM     18  H17 UNL     1      23.210  17.889  21.786  0.00  0.00    +0.214 HD
ENDBRANCH  10  13
ENDBRANCH   4   7
BRANCH   1  21
ATOM     19  C8  UNL     1      16.673   5.754  19.473  0.00  0.00    +0.244 C 
ATOM     20  O1  UNL     1      17.730   5.476  18.842  0.00  0.00    -0.270 OA
ATOM     21  N1  UNL     1      16.444   7.105  19.912  0.00  0.00    -0.308 N 
ATOM     22  H9  UNL     1      15.485   7.375  20.228  0.00  0.00    +0.149 HD
BRANCH  19  29
ATOM     23  C1  UNL     1      15.643   0.903  20.230  0.00  0.00    +0.044 C 
ATOM     24  C2  UNL     1      15.177   2.322  20.088  0.00  0.00    -0.049 A 
ATOM     25  C3  UNL     1      13.826   2.643  20.281  0.00  0.00    +0.006 A 
ATOM     26  C4  UNL     1      13.391   3.972  20.183  0.00  0.00    -0.049 A 
ATOM     27  C5  UNL     1      11.951   4.312  20.434  0.00  0.00    +0.044 C 
ATOM     28  C6  UNL     1      14.322   4.989  19.926  0.00  0.00    +0.016 A 
ATOM     29  C7  UNL     1      15.681   4.685  19.737  0.00  0.00    +0.037 A 
ATOM     30  C20 UNL     1      16.102   3.346  19.834  0.00  0.00    +0.016 A 
ENDBRANCH  19  29
ENDBRANCH   1  21
TORSDOF 4
ENDMDL
MODEL 4
REMARK VINA RESULT:    -6.538     11.782     14.106
REMARK INTER + INTRA:          -8.675
REMARK INTER:                  -8.085
REMARK INTRA:                  -0.590
REMARK UNBOUND:                -0.609
REMARK  Name = /home/qwerty/github/datacon2025hack/step_04_hit_selection/docking/ligands/lig_39.pdb
REMARK  6 active torsions:
REMARK  status: ('A' for Active; 'I' for Inactive)
REMARK    1  A    between atoms: C1_1  and  C2_2
REMARK    2  A    between atoms: C4_4  and  C5_5
REMARK    3  A    between atoms: C7_7  and  C8_8
REMARK    4  A    between atoms: N1_10  and  C9_11
REMARK    5  A    between atoms: N2_14  and  C12_15
REMARK    6  A    between atoms: C15_18  and  C16_19
REMARK                            x       y       z     vdW  Elec       q    Type
REMARK                         _______ _______ _______ _____ _____    ______ ____
ROOT
ATOM      1  C9  UNL     1      18.912  10.817  35.233  0.00  0.00    +0.076 C 
ATOM      2  C10 UNL     1      18.770  12.325  35.508  0.00  0.00    +0.041 C 
ATOM      3  C11 UNL     1      17.338  12.663  35.936  0.00  0.00    +0.107 C 
ATOM      4  N2  UNL     1      16.355  12.182  34.952  0.00  0.00    -0.329 N 
ATOM      5  C18 UNL     1      16.794  11.331  33.836  0.00  0.00    +0.107 C 
ATOM      6  C19 UNL     1      17.782  10.262  34.321  0.00  0.00    +0.041 C 
ENDROOT
BRANCH   4   7
ATOM      7  C12 UNL     1      15.001  12.683  35.000  0.00  0.00    +0.048 A 
ATOM      8  C13 UNL     1      14.347  13.102  33.830  0.00  0.00    +0.027 A 
ATOM      9  C14 UNL     1      13.038  13.582  33.888  0.00  0.00    +0.033 A 
ATOM     10  C15 UNL     1      12.378  13.640  35.124  0.00  0.00    +0.111 A 
ATOM     11  N7  UNL     1      13.024  13.224  36.247  0.00  0.00    -0.250 NA
ATOM     12  C17 UNL     1      14.299  12.754  36.216  0.00  0.00    +0.134 A 
BRANCH  10  13
ATOM     13  C16 UNL     1      10.999  14.142  35.226  0.00  0.00    +0.222 A 
ATOM     14  N3  UNL     1      10.170  13.907  36.265  0.00  0.00    -0.106 NA
ATOM     15  N4  UNL     1       9.047  14.531  35.950  0.00  0.00    -0.048 NA
ATOM     16  N5  UNL     1       9.191  15.116  34.775  0.00  0.00    -0.176 N 
ATOM     17  N6  UNL     1      10.399  14.897  34.286  0.00  0.00    -0.132 NA
ATOM     18  H17 UNL     1       8.451  15.676  34.296  0.00  0.00    +0.214 HD
ENDBRANCH  10  13
ENDBRANCH   4   7
BRANCH   1  21
ATOM     19  C8  UNL     1      20.849   9.236  34.779  0.00  0.00    +0.244 C 
ATOM     20  O1  UNL     1      20.338   8.373  35.544  0.00  0.00    -0.270 OA
ATOM     21  N1  UNL     1      20.229  10.528  34.651  0.00  0.00    -0.308 N 
ATOM     22  H9  UNL     1      20.767  11.303  34.202  0.00  0.00    +0.149 HD
BRANCH  19  29
ATOM     23  C1  UNL     1      24.832   6.257  34.119  0.00  0.00    +0.044 C 
ATOM     24  C2  UNL     1      24.036   7.467  33.725  0.00  0.00    -0.049 A 
ATOM     25  C3  UNL     1      24.421   8.233  32.615  0.00  0.00    +0.006 A 
ATOM     26  C4  UNL     1      23.663   9.345  32.223  0.00  0.00    -0.049 A 
ATOM     27  C5  UNL     1      24.056  10.133  31.009  0.00  0.00    +0.044 C 
ATOM     28  C6  UNL     1      22.492   9.668  32.925  0.00  0.00    +0.016 A 
ATOM     29  C7  UNL     1      22.089   8.906  34.036  0.00  0.00    +0.037 A 
ATOM     30  C20 UNL     1      22.863   7.797  34.420  0.00  0.00    +0.016 A 
ENDBRANCH  19  29
ENDBRANCH   1  21
TORSDOF 4
ENDMDL
MODEL 5
REMARK VINA RESULT:    -6.425      6.468      9.497
REMARK INTER + INTRA:          -8.536
REMARK INTER:                  -7.914
REMARK INTRA:                  -0.622
REMARK UNBOUND:                -0.609
REMARK  Name = /home/qwerty/github/datacon2025hack/step_04_hit_selection/docking/ligands/lig_39.pdb
REMARK  6 active torsions:
REMARK  status: ('A' for Active; 'I' for Inactive)
REMARK    1  A    between atoms: C1_1  and  C2_2
REMARK    2  A    between atoms: C4_4  and  C5_5
REMARK    3  A    between atoms: C7_7  and  C8_8
REMARK    4  A    between atoms: N1_10  and  C9_11
REMARK    5  A    between atoms: N2_14  and  C12_15
REMARK    6  A    between atoms: C15_18  and  C16_19
REMARK                            x       y       z     vdW  Elec       q    Type
REMARK                         _______ _______ _______ _____ _____    ______ ____
ROOT
ATOM      1  C9  UNL     1      21.039   3.326  30.092  0.00  0.00    +0.076 C 
ATOM      2  C10 UNL     1      19.591   2.911  30.410  0.00  0.00    +0.041 C 
ATOM      3  C11 UNL     1      19.105   1.845  29.423  0.00  0.00    +0.107 C 
ATOM      4  N2  UNL     1      19.262   2.293  28.029  0.00  0.00    -0.329 N 
ATOM      5  C18 UNL     1      19.981   3.543  27.738  0.00  0.00    +0.107 C 
ATOM      6  C19 UNL     1      21.256   3.647  28.587  0.00  0.00    +0.041 C 
ENDROOT
BRANCH   4   7
ATOM      7  C12 UNL     1      18.569   1.588  26.976  0.00  0.00    +0.048 A 
ATOM      8  C13 UNL     1      17.549   0.671  27.276  0.00  0.00    +0.027 A 
ATOM      9  C14 UNL     1      16.883  -0.003  26.250  0.00  0.00    +0.033 A 
ATOM     10  C15 UNL     1      17.239   0.245  24.917  0.00  0.00    +0.111 A 
ATOM     11  N7  UNL     1      18.225   1.141  24.644  0.00  0.00    -0.250 NA
ATOM     12  C17 UNL     1      18.889   1.809  25.625  0.00  0.00    +0.134 A 
BRANCH  10  13
ATOM     13  C16 UNL     1      16.563  -0.448  23.809  0.00  0.00    +0.222 A 
ATOM     14  N3  UNL     1      17.195  -1.114  22.820  0.00  0.00    -0.106 NA
ATOM     15  N4  UNL     1      16.224  -1.574  22.048  0.00  0.00    -0.048 NA
ATOM     16  N5  UNL     1      15.060  -1.200  22.547  0.00  0.00    -0.176 N 
ATOM     17  N6  UNL     1      15.226  -0.493  23.651  0.00  0.00    -0.132 NA
ATOM     18  H17 UNL     1      14.132  -1.433  22.127  0.00  0.00    +0.214 HD
ENDBRANCH  10  13
ENDBRANCH   4   7
BRANCH   1  21
ATOM     19  C8  UNL     1      22.273   4.316  32.081  0.00  0.00    +0.244 C 
ATOM     20  O1  UNL     1      22.548   3.158  32.500  0.00  0.00    -0.270 OA
ATOM     21  N1  UNL     1      21.434   4.471  30.923  0.00  0.00    -0.308 N 
ATOM     22  H9  UNL     1      21.031   5.412  30.716  0.00  0.00    +0.149 HD
BRANCH  19  29
ATOM     23  C1  UNL     1      24.230   8.934  31.959  0.00  0.00    +0.044 C 
ATOM     24  C2  UNL     1      23.778   7.736  32.741  0.00  0.00    -0.049 A 
ATOM     25  C3  UNL     1      23.791   7.764  34.143  0.00  0.00    +0.006 A 
ATOM     26  C4  UNL     1      23.339   6.660  34.879  0.00  0.00    -0.049 A 
ATOM     27  C5  UNL     1      23.315   6.714  36.378  0.00  0.00    +0.044 C 
ATOM     28  C6  UNL     1      22.835   5.537  34.206  0.00  0.00    +0.016 A 
ATOM     29  C7  UNL     1      22.809   5.496  32.800  0.00  0.00    +0.037 A 
ATOM     30  C20 UNL     1      23.271   6.609  32.076  0.00  0.00    +0.016 A 
ENDBRANCH  19  29
ENDBRANCH   1  21
TORSDOF 4
ENDMDL
MODEL 6
REMARK VINA RESULT:    -6.402      6.414      8.846
REMARK INTER + INTRA:          -8.509
REMARK INTER:                  -7.888
REMARK INTRA:                  -0.621
REMARK UNBOUND:                -0.609
REMARK  Name = /home/qwerty/github/datacon2025hack/step_04_hit_selection/docking/ligands/lig_39.pdb
REMARK  6 active torsions:
REMARK  status: ('A' for Active; 'I' for Inactive)
REMARK    1  A    between atoms: C1_1  and  C2_2
REMARK    2  A    between atoms: C4_4  and  C5_5
REMARK    3  A    between atoms: C7_7  and  C8_8
REMARK    4  A    between atoms: N1_10  and  C9_11
REMARK    5  A    between atoms: N2_14  and  C12_15
REMARK    6  A    between atoms: C15_18  and  C16_19
REMARK                            x       y       z     vdW  Elec       q    Type
REMARK                         _______ _______ _______ _____ _____    ______ ____
ROOT
ATOM      1  C9  UNL     1      19.498   1.680  28.005  0.00  0.00    +0.076 C 
ATOM      2  C10 UNL     1      19.621   3.195  27.758  0.00  0.00    +0.041 C 
ATOM      3  C11 UNL     1      20.598   3.827  28.754  0.00  0.00    +0.107 C 
ATOM      4  N2  UNL     1      20.222   3.520  30.144  0.00  0.00    -0.329 N 
ATOM      5  C18 UNL     1      19.140   2.561  30.414  0.00  0.00    +0.107 C 
ATOM      6  C19 UNL     1      19.261   1.332  29.502  0.00  0.00    +0.041 C 
ENDROOT
BRANCH   4   7
ATOM      7  C12 UNL     1      20.807   4.284  31.221  0.00  0.00    +0.048 A 
ATOM      8  C13 UNL     1      21.704   5.330  30.956  0.00  0.00    +0.027 A 
ATOM      9  C14 UNL     1      22.261   6.064  32.005  0.00  0.00    +0.033 A 
ATOM     10  C15 UNL     1      21.915   5.751  33.326  0.00  0.00    +0.111 A 
ATOM     11  N7  UNL     1      21.039   4.738  33.566  0.00  0.00    -0.250 NA
ATOM     12  C17 UNL     1      20.484   4.008  32.561  0.00  0.00    +0.134 A 
BRANCH  10  13
ATOM     13  C16 UNL     1      22.483   6.499  34.459  0.00  0.00    +0.222 A 
ATOM     14  N3  UNL     1      23.080   5.936  35.530  0.00  0.00    -0.106 NA
ATOM     15  N4  UNL     1      23.436   6.955  36.294  0.00  0.00    -0.048 NA
ATOM     16  N5  UNL     1      23.069   8.082  35.711  0.00  0.00    -0.176 N 
ATOM     17  N6  UNL     1      22.468   7.842  34.559  0.00  0.00    -0.132 NA
ATOM     18  H17 UNL     1      23.232   9.035  36.107  0.00  0.00    +0.214 HD
ENDBRANCH  10  13
ENDBRANCH   4   7
BRANCH   1  21
ATOM     19  C8  UNL     1      18.715   0.371  25.973  0.00  0.00    +0.244 C 
ATOM     20  O1  UNL     1      19.896   0.338  25.526  0.00  0.00    -0.270 OA
ATOM     21  N1  UNL     1      18.431   1.112  27.172  0.00  0.00    -0.308 N 
ATOM     22  H9  UNL     1      17.435   1.321  27.410  0.00  0.00    +0.149 HD
BRANCH  19  29
ATOM     23  C1  UNL     1      14.407  -2.199  26.050  0.00  0.00    +0.044 C 
ATOM     24  C2  UNL     1      15.555  -1.612  25.282  0.00  0.00    -0.049 A 
ATOM     25  C3  UNL     1      15.572  -1.675  23.881  0.00  0.00    +0.006 A 
ATOM     26  C4  UNL     1      16.625  -1.099  23.157  0.00  0.00    -0.049 A 
ATOM     27  C5  UNL     1      16.613  -1.132  21.658  0.00  0.00    +0.044 C 
ATOM     28  C6  UNL     1      17.648  -0.424  23.840  0.00  0.00    +0.016 A 
ATOM     29  C7  UNL     1      17.643  -0.346  25.244  0.00  0.00    +0.037 A 
ATOM     30  C20 UNL     1      16.582  -0.934  25.957  0.00  0.00    +0.016 A 
ENDBRANCH  19  29
ENDBRANCH   1  21
TORSDOF 4
ENDMDL
MODEL 7
REMARK VINA RESULT:    -6.179     13.738     16.388
REMARK INTER + INTRA:          -8.233
REMARK INTER:                  -7.639
REMARK INTRA:                  -0.594
REMARK UNBOUND:                -0.609
REMARK  Name = /home/qwerty/github/datacon2025hack/step_04_hit_selection/docking/ligands/lig_39.pdb
REMARK  6 active torsions:
REMARK  status: ('A' for Active; 'I' for Inactive)
REMARK    1  A    between atoms: C1_1  and  C2_2
REMARK    2  A    between atoms: C4_4  and  C5_5
REMARK    3  A    between atoms: C7_7  and  C8_8
REMARK    4  A    between atoms: N1_10  and  C9_11
REMARK    5  A    between atoms: N2_14  and  C12_15
REMARK    6  A    between atoms: C15_18  and  C16_19
REMARK                            x       y       z     vdW  Elec       q    Type
REMARK                         _______ _______ _______ _____ _____    ______ ____
ROOT
ATOM      1  C9  UNL     1      11.220  12.784  31.929  0.00  0.00    +0.076 C 
ATOM      2  C10 UNL     1      10.881  13.804  30.826  0.00  0.00    +0.041 C 
ATOM      3  C11 UNL     1       9.976  13.170  29.764  0.00  0.00    +0.107 C 
ATOM      4  N2  UNL     1      10.569  11.938  29.218  0.00  0.00    -0.329 N 
ATOM      5  C18 UNL     1      11.787  11.381  29.827  0.00  0.00    +0.107 C 
ATOM      6  C19 UNL     1      11.696  11.418  31.359  0.00  0.00    +0.041 C 
ENDROOT
BRANCH   4   7
ATOM      7  C12 UNL     1      10.045  11.383  27.993  0.00  0.00    +0.048 A 
ATOM      8  C13 UNL     1       8.662  11.225  27.808  0.00  0.00    +0.027 A 
ATOM      9  C14 UNL     1       8.166  10.690  26.618  0.00  0.00    +0.033 A 
ATOM     10  C15 UNL     1       9.060  10.313  25.606  0.00  0.00    +0.111 A 
ATOM     11  N7  UNL     1      10.397  10.478  25.798  0.00  0.00    -0.250 NA
ATOM     12  C17 UNL     1      10.904  10.996  26.949  0.00  0.00    +0.134 A 
BRANCH  10  13
ATOM     13  C16 UNL     1       8.576   9.742  24.339  0.00  0.00    +0.222 A 
ATOM     14  N3  UNL     1       9.043   8.606  23.781  0.00  0.00    -0.106 NA
ATOM     15  N4  UNL     1       8.344   8.464  22.666  0.00  0.00    -0.048 NA
ATOM     16  N5  UNL     1       7.496   9.471  22.556  0.00  0.00    -0.176 N 
ATOM     17  N6  UNL     1       7.608  10.295  23.583  0.00  0.00    -0.132 NA
ATOM     18  H17 UNL     1       6.826   9.598  21.765  0.00  0.00    +0.214 HD
ENDBRANCH  10  13
ENDBRANCH   4   7
BRANCH   1  21
ATOM     19  C8  UNL     1      12.161  13.131  34.263  0.00  0.00    +0.244 C 
ATOM     20  O1  UNL     1      11.131  12.602  34.768  0.00  0.00    -0.270 OA
ATOM     21  N1  UNL     1      12.227  13.338  32.842  0.00  0.00    -0.308 N 
ATOM     22  H9  UNL     1      12.968  13.968  32.459  0.00  0.00    +0.149 HD
BRANCH  19  29
ATOM     23  C1  UNL     1      16.038  11.880  37.192  0.00  0.00    +0.044 C 
ATOM     24  C2  UNL     1      15.152  12.931  36.589  0.00  0.00    -0.049 A 
ATOM     25  C3  UNL     1      15.427  14.290  36.800  0.00  0.00    +0.006 A 
ATOM     26  C4  UNL     1      14.623  15.276  36.211  0.00  0.00    -0.049 A 
ATOM     27  C5  UNL     1      14.949  16.727  36.406  0.00  0.00    +0.044 C 
ATOM     28  C6  UNL     1      13.560  14.897  35.377  0.00  0.00    +0.016 A 
ATOM     29  C7  UNL     1      13.276  13.539  35.150  0.00  0.00    +0.037 A 
ATOM     30  C20 UNL     1      14.089  12.561  35.751  0.00  0.00    +0.016 A 
ENDBRANCH  19  29
ENDBRANCH   1  21
TORSDOF 4
ENDMDL
MODEL 8
REMARK VINA RESULT:    -6.159      5.762      9.414
REMARK INTER + INTRA:          -8.209
REMARK INTER:                  -7.611
REMARK INTRA:                  -0.598
REMARK UNBOUND:                -0.609
REMARK  Name = /home/qwerty/github/datacon2025hack/step_04_hit_selection/docking/ligands/lig_39.pdb
REMARK  6 active torsions:
REMARK  status: ('A' for Active; 'I' for Inactive)
REMARK    1  A    between atoms: C1_1  and  C2_2
REMARK    2  A    between atoms: C4_4  and  C5_5
REMARK    3  A    between atoms: C7_7  and  C8_8
REMARK    4  A    between atoms: N1_10  and  C9_11
REMARK    5  A    between atoms: N2_14  and  C12_15
REMARK    6  A    between atoms: C15_18  and  C16_19
REMARK                            x       y       z     vdW  Elec       q    Type
REMARK                         _______ _______ _______ _____ _____    ______ ____
ROOT
ATOM      1  C9  UNL     1      20.828   4.614  28.236  0.00  0.00    +0.076 C 
ATOM      2  C10 UNL     1      19.296   4.767  28.238  0.00  0.00    +0.041 C 
ATOM      3  C11 UNL     1      18.661   3.864  27.175  0.00  0.00    +0.107 C 
ATOM      4  N2  UNL     1      19.244   4.108  25.845  0.00  0.00    -0.329 N 
ATOM      5  C18 UNL     1      20.410   4.993  25.709  0.00  0.00    +0.107 C 
ATOM      6  C19 UNL     1      21.441   4.710  26.811  0.00  0.00    +0.041 C 
ENDROOT
BRANCH   4   7
ATOM      7  C12 UNL     1      18.564   3.609  24.672  0.00  0.00    +0.048 A 
ATOM      8  C13 UNL     1      18.828   4.151  23.404  0.00  0.00    +0.027 A 
ATOM      9  C14 UNL     1      18.167   3.658  22.277  0.00  0.00    +0.033 A 
ATOM     10  C15 UNL     1      17.241   2.616  22.420  0.00  0.00    +0.111 A 
ATOM     11  N7  UNL     1      17.003   2.098  23.655  0.00  0.00    -0.250 NA
ATOM     12  C17 UNL     1      17.632   2.562  24.768  0.00  0.00    +0.134 A 
BRANCH  10  13
ATOM     13  C16 UNL     1      16.523   2.072  21.256  0.00  0.00    +0.222 A 
ATOM     14  N3  UNL     1      16.143   0.785  21.121  0.00  0.00    -0.106 NA
ATOM     15  N4  UNL     1      15.540   0.731  19.945  0.00  0.00    -0.048 NA
ATOM     16  N5  UNL     1      15.557   1.932  19.394  0.00  0.00    -0.176 N 
ATOM     17  N6  UNL     1      16.163   2.802  20.183  0.00  0.00    -0.132 NA
ATOM     18  H17 UNL     1      15.146   2.163  18.463  0.00  0.00    +0.214 HD
ENDBRANCH  10  13
ENDBRANCH   4   7
BRANCH   1  21
ATOM     19  C8  UNL     1      21.706   5.329  30.511  0.00  0.00    +0.244 C 
ATOM     20  O1  UNL     1      21.260   4.268  31.028  0.00  0.00    -0.270 OA
ATOM     21  N1  UNL     1      21.440   5.609  29.125  0.00  0.00    -0.308 N 
ATOM     22  H9  UNL     1      21.613   6.575  28.765  0.00  0.00    +0.149 HD
BRANCH  19  29
ATOM     23  C1  UNL     1      23.999   6.391  34.846  0.00  0.00    +0.044 C 
ATOM     24  C2  UNL     1      23.586   6.798  33.461  0.00  0.00    -0.049 A 
ATOM     25  C3  UNL     1      24.002   8.030  32.936  0.00  0.00    +0.006 A 
ATOM     26  C4  UNL     1      23.648   8.401  31.631  0.00  0.00    -0.049 A 
ATOM     27  C5  UNL     1      24.133   9.701  31.061  0.00  0.00    +0.044 C 
ATOM     28  C6  UNL     1      22.904   7.515  30.836  0.00  0.00    +0.016 A 
ATOM     29  C7  UNL     1      22.486   6.274  31.346  0.00  0.00    +0.037 A 
ATOM     30  C20 UNL     1      22.844   5.918  32.659  0.00  0.00    +0.016 A 
ENDBRANCH  19  29
ENDBRANCH   1  21
TORSDOF 4
ENDMDL
MODEL 9
REMARK VINA RESULT:    -6.106      5.966      6.829
REMARK INTER + INTRA:          -8.144
REMARK INTER:                  -7.515
REMARK INTRA:                  -0.628
REMARK UNBOUND:                -0.609
REMARK  Name = /home/qwerty/github/datacon2025hack/step_04_hit_selection/docking/ligands/lig_39.pdb
REMARK  6 active torsions:
REMARK  status: ('A' for Active; 'I' for Inactive)
REMARK    1  A    between atoms: C1_1  and  C2_2
REMARK    2  A    between atoms: C4_4  and  C5_5
REMARK    3  A    between atoms: C7_7  and  C8_8
REMARK    4  A    between atoms: N1_10  and  C9_11
REMARK    5  A    between atoms: N2_14  and  C12_15
REMARK    6  A    between atoms: C15_18  and  C16_19
REMARK                            x       y       z     vdW  Elec       q    Type
REMARK                         _______ _______ _______ _____ _____    ______ ____
ROOT
ATOM      1  C9  UNL     1      18.251   7.420  20.335  0.00  0.00    +0.076 C 
ATOM      2  C10 UNL     1      17.798   6.392  19.282  0.00  0.00    +0.041 C 
ATOM      3  C11 UNL     1      17.007   5.257  19.940  0.00  0.00    +0.107 C 
ATOM      4  N2  UNL     1      17.771   4.633  21.033  0.00  0.00    -0.329 N 
ATOM      5  C18 UNL     1      19.041   5.231  21.472  0.00  0.00    +0.107 C 
ATOM      6  C19 UNL     1      18.917   6.758  21.574  0.00  0.00    +0.041 C 
ENDROOT
BRANCH   4   7
ATOM      7  C12 UNL     1      17.349   3.353  21.551  0.00  0.00    +0.048 A 
ATOM      8  C13 UNL     1      16.566   2.485  20.772  0.00  0.00    +0.027 A 
ATOM      9  C14 UNL     1      16.167   1.248  21.282  0.00  0.00    +0.033 A 
ATOM     10  C15 UNL     1      16.557   0.876  22.576  0.00  0.00    +0.111 A 
ATOM     11  N7  UNL     1      17.321   1.726  23.314  0.00  0.00    -0.250 NA
ATOM     12  C17 UNL     1      17.721   2.936  22.841  0.00  0.00    +0.134 A 
BRANCH  10  13
ATOM     13  C16 UNL     1      16.153  -0.418  23.149  0.00  0.00    +0.222 A 
ATOM     14  N3  UNL     1      17.010  -1.363  23.589  0.00  0.00    -0.106 NA
ATOM     15  N4  UNL     1      16.236  -2.349  24.014  0.00  0.00    -0.048 NA
ATOM     16  N5  UNL     1      14.971  -2.014  23.837  0.00  0.00    -0.176 N 
ATOM     17  N6  UNL     1      14.874  -0.811  23.297  0.00  0.00    -0.132 NA
ATOM     18  H17 UNL     1      14.156  -2.617  24.089  0.00  0.00    +0.214 HD
ENDBRANCH  10  13
ENDBRANCH   4   7
BRANCH   1  21
ATOM     19  C8  UNL     1      18.948   9.819  19.873  0.00  0.00    +0.244 C 
ATOM     20  O1  UNL     1      17.876  10.241  20.389  0.00  0.00    -0.270 OA
ATOM     21  N1  UNL     1      19.157   8.403  19.729  0.00  0.00    -0.308 N 
ATOM     22  H9  UNL     1      19.929   8.069  19.109  0.00  0.00    +0.149 HD
BRANCH  19  29
ATOM     23  C1  UNL     1      20.235  14.549  18.804  0.00  0.00    +0.044 C 
ATOM     24  C2  UNL     1      20.587  13.092  18.876  0.00  0.00    -0.049 A 
ATOM     25  C3  UNL     1      21.892  12.668  18.584  0.00  0.00    +0.006 A 
ATOM     26  C4  UNL     1      22.236  11.313  18.681  0.00  0.00    -0.049 A 
ATOM     27  C5  UNL     1      23.644  10.872  18.410  0.00  0.00    +0.044 C 
ATOM     28  C6  UNL     1      21.276  10.383  19.110  0.00  0.00    +0.016 A 
ATOM     29  C7  UNL     1      19.966  10.793  19.413  0.00  0.00    +0.037 A 
ATOM     30  C20 UNL     1      19.635  12.156  19.305  0.00  0.00    +0.016 A 
ENDBRANCH  19  29
ENDBRANCH   1  21
TORSDOF 4
ENDMDL
