REMARK  Name = /home/qwerty/github/datacon2025hack/step_04_hit_selection/docking/ligands/lig_598.pdb
REMARK  3 active torsions:
REMARK  status: ('A' for Active; 'I' for Inactive)
REMARK    1  A    between atoms: C1_1  and  C2_2
REMARK    2  A    between atoms: N1_4  and  C3_5
REMARK    3  A    between atoms: N3_16  and  C12_17
REMARK                            x       y       z     vdW  Elec       q    Type
REMARK                         _______ _______ _______ _____ _____    ______ ____
ROOT
ATOM      1  C3  UNL     1       5.257  -0.333  -0.156  0.00  0.00    +0.037 A 
ATOM      2  C4  UNL     1       5.912  -1.494   0.287  0.00  0.00    +0.023 A 
ATOM      3  C5  UNL     1       5.224  -2.460   1.020  0.00  0.00    +0.002 A 
ATOM      4  C6  UNL     1       3.870  -2.290   1.305  0.00  0.00    +0.005 A 
ATOM      5  C7  UNL     1       3.192  -1.140   0.877  0.00  0.00    -0.025 A 
ATOM      6  C8  UNL     1       3.889  -0.144   0.157  0.00  0.00    -0.020 A 
ATOM      7  C9  UNL     1       3.149   1.089  -0.291  0.00  0.00    +0.056 C 
ATOM      8  C10 UNL     1       2.058   1.453   0.710  0.00  0.00    +0.114 C 
ATOM      9  N2  UNL     1       1.154   0.313   0.918  0.00  0.00    -0.281 N 
ATOM     10  C11 UNL     1      -0.268   0.539   1.063  0.00  0.00    +0.307 C 
ATOM     11  O2  UNL     1      -0.718   1.718   1.057  0.00  0.00    -0.252 OA
ATOM     12  N3  UNL     1      -1.179  -0.560   1.249  0.00  0.00    -0.269 N 
ATOM     13  C24 UNL     1       1.705  -1.036   1.141  0.00  0.00    +0.144 C 
ATOM     14  H12 UNL     1      -0.827  -1.432   1.701  0.00  0.00    +0.156 HD
ENDROOT
BRANCH  12  15
ATOM     15  C12 UNL     1      -2.590  -0.483   0.975  0.00  0.00    +0.038 A 
ATOM     16  C13 UNL     1      -3.479  -1.322   1.697  0.00  0.00    +0.024 A 
ATOM     17  C14 UNL     1      -4.863  -1.294   1.447  0.00  0.00    +0.014 A 
ATOM     18  C15 UNL     1      -5.322  -0.428   0.459  0.00  0.00    +0.028 A 
ATOM     19  C16 UNL     1      -4.470   0.377  -0.264  0.00  0.00    +0.138 A 
ATOM     20  C17 UNL     1      -3.097   0.370  -0.036  0.00  0.00    +0.070 A 
ATOM     21  O3  UNL     1      -5.130   1.095  -1.152  0.00  0.00    -0.455 OA
ATOM     22  C18 UNL     1      -6.402   0.774  -1.022  0.00  0.00    +0.136 A 
ATOM     23  C19 UNL     1      -7.481   1.272  -1.748  0.00  0.00    +0.047 A 
ATOM     24  C20 UNL     1      -8.764   0.780  -1.441  0.00  0.00    +0.004 A 
ATOM     25  C21 UNL     1      -8.940  -0.188  -0.426  0.00  0.00    +0.001 A 
ATOM     26  C22 UNL     1      -7.835  -0.677   0.294  0.00  0.00    +0.012 A 
ATOM     27  C23 UNL     1      -6.578  -0.171  -0.032  0.00  0.00    +0.028 A 
ENDBRANCH  12  15
BRANCH   1  31
ATOM     28  C1  UNL     1       8.012   1.899  -1.724  0.00  0.00    +0.109 C 
ATOM     29  C2  UNL     1       7.297   1.056  -0.720  0.00  0.00    +0.214 C 
ATOM     30  O1  UNL     1       7.878   0.741   0.353  0.00  0.00    -0.276 OA
ATOM     31  N1  UNL     1       5.958   0.613  -0.983  0.00  0.00    -0.285 N 
ATOM     32  H4  UNL     1       5.458   1.024  -1.805  0.00  0.00    +0.155 HD
ENDBRANCH   1  31
TORSDOF 2
