REMARK  Name = /home/qwerty/github/datacon2025hack/step_04_hit_selection/docking/ligands/lig_799.pdb
REMARK  5 active torsions:
REMARK  status: ('A' for Active; 'I' for Inactive)
REMARK    1  A    between atoms: N1_3  and  C2_4
REMARK    2  A    between atoms: C2_4  and  C3_5
REMARK    3  A    between atoms: C3_5  and  O2_6
REMARK    4  A    between atoms: C3_5  and  C4_7
REMARK    5  A    between atoms: N2_16  and  C12_17
REMARK                            x       y       z     vdW  Elec       q    Type
REMARK                         _______ _______ _______ _____ _____    ______ ____
ROOT
ATOM      1  O1  UNL     1       1.325  -0.243   1.670  0.00  0.00    -0.253 OA
ATOM      2  C1  UNL     1       0.583   0.441   0.914  0.00  0.00    +0.304 C 
ATOM      3  N1  UNL     1      -0.696   0.887   1.380  0.00  0.00    -0.296 N 
ATOM      4  N2  UNL     1       0.991   0.739  -0.431  0.00  0.00    -0.269 N 
ATOM      5  H1  UNL     1      -1.285   1.453   0.729  0.00  0.00    +0.150 HD
ATOM      6  H11 UNL     1       0.259   1.084  -1.093  0.00  0.00    +0.156 HD
ENDROOT
BRANCH   4   7
ATOM      7  C12 UNL     1       2.298   0.457  -0.958  0.00  0.00    +0.038 A 
ATOM      8  C13 UNL     1       2.428   0.069  -2.303  0.00  0.00    +0.027 A 
ATOM      9  C14 UNL     1       3.689  -0.197  -2.846  0.00  0.00    +0.051 A 
ATOM     10  C15 UNL     1       4.831  -0.057  -2.055  0.00  0.00    +0.162 A 
ATOM     11  C16 UNL     1       4.713   0.326  -0.714  0.00  0.00    +0.164 A 
ATOM     12  C17 UNL     1       3.455   0.606  -0.170  0.00  0.00    +0.072 A 
ATOM     13  O3  UNL     1       5.867   0.425   0.068  0.00  0.00    -0.485 OA
ATOM     14  C18 UNL     1       7.110  -0.122  -0.378  0.00  0.00    +0.270 C 
ATOM     15  C19 UNL     1       7.283   0.108  -1.885  0.00  0.00    +0.270 C 
ATOM     16  O4  UNL     1       6.103  -0.294  -2.585  0.00  0.00    -0.485 OA
ENDBRANCH   4   7
BRANCH   3  17
ATOM     17  C2  UNL     1      -1.187   0.536   2.715  0.00  0.00    +0.142 C 
BRANCH  17  18
ATOM     18  C3  UNL     1      -2.618   1.051   2.979  0.00  0.00    +0.168 C 
BRANCH  18  19
ATOM     19  C4  UNL     1      -3.594   0.581   1.930  0.00  0.00    +0.021 A 
ATOM     20  C5  UNL     1      -3.989  -0.747   1.749  0.00  0.00    +0.022 A 
ATOM     21  C6  UNL     1      -4.853  -0.904   0.660  0.00  0.00    -0.010 A 
ATOM     22  C7  UNL     1      -5.415  -2.107   0.222  0.00  0.00    +0.009 A 
ATOM     23  C8  UNL     1      -6.265  -2.088  -0.896  0.00  0.00    +0.001 A 
ATOM     24  C9  UNL     1      -6.542  -0.877  -1.560  0.00  0.00    +0.001 A 
ATOM     25  C10 UNL     1      -5.972   0.325  -1.111  0.00  0.00    +0.015 A 
ATOM     26  C11 UNL     1      -5.133   0.280  -0.002  0.00  0.00    +0.020 A 
ATOM     27  S1  UNL     1      -4.315   1.545   0.738  0.00  0.00    -0.091 S 
ENDBRANCH  18  19
BRANCH  18  28
ATOM     28  O2  UNL     1      -2.649   2.450   3.125  0.00  0.00    -0.385 OA
ATOM     29  H5  UNL     1      -2.245   2.855   2.316  0.00  0.00    +0.210 HD
ENDBRANCH  18  28
ENDBRANCH  17  18
ENDBRANCH   3  17
TORSDOF 5
