MODEL 1
REMARK VINA RESULT:    -6.100      0.000      0.000
REMARK INTER + INTRA:          -8.599
REMARK INTER:                  -7.883
REMARK INTRA:                  -0.716
REMARK UNBOUND:                -0.716
REMARK  Name = /home/qwerty/github/datacon2025hack/step_04_hit_selection/docking/ligands/lig_426.pdb
REMARK  7 active torsions:
REMARK  status: ('A' for Active; 'I' for Inactive)
REMARK    1  A    between atoms: C1_1  and  C2_2
REMARK    2  A    between atoms: C2_2  and  C3_3
REMARK    3  A    between atoms: C2_2  and  C4_4
REMARK    4  A    between atoms: C7_7  and  C8_8
REMARK    5  A    between atoms: C8_8  and  N1_9
REMARK    6  A    between atoms: N3_15  and  C12_16
REMARK    7  A    between atoms: C15_19  and  C16_20
REMARK                            x       y       z     vdW  Elec       q    Type
REMARK                         _______ _______ _______ _____ _____    ______ ____
ROOT
ATOM      1  N1  UNL     1      20.509   4.377  23.956  0.00  0.00    -0.295 NA
ATOM      2  C9  UNL     1      20.794   4.970  22.631  0.00  0.00    +0.104 C 
ATOM      3  C10 UNL     1      19.711   4.653  21.590  0.00  0.00    +0.124 C 
ATOM      4  N2  UNL     1      18.371   4.917  22.129  0.00  0.00    -0.283 N 
ATOM      5  C11 UNL     1      17.317   5.326  21.235  0.00  0.00    +0.302 C 
ATOM      6  O1  UNL     1      17.585   6.078  20.257  0.00  0.00    -0.253 OA
ATOM      7  N3  UNL     1      15.965   4.883  21.439  0.00  0.00    -0.296 N 
ATOM      8  C18 UNL     1      18.056   4.446  23.482  0.00  0.00    +0.124 C 
ATOM      9  C19 UNL     1      19.187   4.803  24.454  0.00  0.00    +0.104 C 
ATOM     10  H16 UNL     1      15.791   4.096  22.105  0.00  0.00    +0.151 HD
ENDROOT
BRANCH   7  11
ATOM     11  C12 UNL     1      14.839   5.456  20.690  0.00  0.00    +0.076 C 
ATOM     12  C13 UNL     1      13.595   5.517  21.567  0.00  0.00    +0.023 C 
ATOM     13  C14 UNL     1      12.933   4.152  21.435  0.00  0.00    +0.020 C 
ATOM     14  C15 UNL     1      13.391   3.578  20.086  0.00  0.00    +0.093 C 
ATOM     15  C17 UNL     1      14.436   4.552  19.528  0.00  0.00    +0.040 C 
BRANCH  14  16
ATOM     16  C16 UNL     1      13.954   2.226  20.244  0.00  0.00    +0.066 C 
ATOM     17  N4  UNL     1      14.395   1.163  20.368  0.00  0.00    -0.196 NA
ENDBRANCH  14  16
ENDBRANCH   7  11
BRANCH   1  18
ATOM     18  C8  UNL     1      20.683   2.908  23.998  0.00  0.00    +0.119 C 
BRANCH  18  22
ATOM     19  C4  UNL     1      22.099   1.676  27.897  0.00  0.00    -0.045 A 
ATOM     20  C5  UNL     1      22.692   2.768  27.235  0.00  0.00    +0.004 A 
ATOM     21  C6  UNL     1      22.239   3.163  25.973  0.00  0.00    +0.005 A 
ATOM     22  C7  UNL     1      21.190   2.473  25.348  0.00  0.00    -0.033 A 
ATOM     23  C20 UNL     1      20.593   1.388  26.006  0.00  0.00    +0.005 A 
ATOM     24  C21 UNL     1      21.044   0.992  27.268  0.00  0.00    +0.004 A 
BRANCH  19  26
ATOM     25  C1  UNL     1      21.590   0.253  29.909  0.00  0.00    +0.012 C 
ATOM     26  C2  UNL     1      22.577   1.238  29.268  0.00  0.00    +0.013 C 
ATOM     27  C3  UNL     1      23.986   0.639  29.198  0.00  0.00    +0.012 C 
ENDBRANCH  19  26
ENDBRANCH  18  22
ENDBRANCH   1  18
TORSDOF 5
ENDMDL
MODEL 2
REMARK VINA RESULT:    -6.055      1.354      1.965
REMARK INTER + INTRA:          -8.541
REMARK INTER:                  -8.211
REMARK INTRA:                  -0.330
REMARK UNBOUND:                -0.716
REMARK  Name = /home/qwerty/github/datacon2025hack/step_04_hit_selection/docking/ligands/lig_426.pdb
REMARK  7 active torsions:
REMARK  status: ('A' for Active; 'I' for Inactive)
REMARK    1  A    between atoms: C1_1  and  C2_2
REMARK    2  A    between atoms: C2_2  and  C3_3
REMARK    3  A    between atoms: C2_2  and  C4_4
REMARK    4  A    between atoms: C7_7  and  C8_8
REMARK    5  A    between atoms: C8_8  and  N1_9
REMARK    6  A    between atoms: N3_15  and  C12_16
REMARK    7  A    between atoms: C15_19  and  C16_20
REMARK                            x       y       z     vdW  Elec       q    Type
REMARK                         _______ _______ _______ _____ _____    ______ ____
ROOT
ATOM      1  N1  UNL     1      20.026   4.274  24.282  0.00  0.00    -0.295 NA
ATOM      2  C9  UNL     1      19.983   5.249  23.171  0.00  0.00    +0.104 C 
ATOM      3  C10 UNL     1      19.468   4.638  21.859  0.00  0.00    +0.124 C 
ATOM      4  N2  UNL     1      18.233   3.877  22.085  0.00  0.00    -0.283 N 
ATOM      5  C11 UNL     1      17.256   3.786  21.028  0.00  0.00    +0.302 C 
ATOM      6  O1  UNL     1      17.065   4.775  20.269  0.00  0.00    -0.253 OA
ATOM      7  N3  UNL     1      16.501   2.580  20.825  0.00  0.00    -0.296 N 
ATOM      8  C18 UNL     1      18.171   2.966  23.233  0.00  0.00    +0.124 C 
ATOM      9  C19 UNL     1      18.703   3.656  24.496  0.00  0.00    +0.104 C 
ATOM     10  H16 UNL     1      16.815   1.706  21.304  0.00  0.00    +0.151 HD
ENDROOT
BRANCH   7  11
ATOM     11  C12 UNL     1      15.350   2.529  19.915  0.00  0.00    +0.076 C 
ATOM     12  C13 UNL     1      14.218   3.402  20.442  0.00  0.00    +0.023 C 
ATOM     13  C14 UNL     1      13.438   2.522  21.410  0.00  0.00    +0.020 C 
ATOM     14  C15 UNL     1      13.697   1.071  20.981  0.00  0.00    +0.093 C 
ATOM     15  C17 UNL     1      14.750   1.125  19.867  0.00  0.00    +0.040 C 
BRANCH  14  16
ATOM     16  C16 UNL     1      14.164   0.254  22.115  0.00  0.00    +0.066 C 
ATOM     17  N4  UNL     1      14.530  -0.386  23.006  0.00  0.00    -0.196 NA
ENDBRANCH  14  16
ENDBRANCH   7  11
BRANCH   1  18
ATOM     18  C8  UNL     1      21.104   3.269  24.149  0.00  0.00    +0.119 C 
BRANCH  18  22
ATOM     19  C4  UNL     1      21.868   1.284  27.916  0.00  0.00    -0.045 A 
ATOM     20  C5  UNL     1      20.911   0.770  27.021  0.00  0.00    +0.004 A 
ATOM     21  C6  UNL     1      20.659   1.414  25.806  0.00  0.00    +0.005 A 
ATOM     22  C7  UNL     1      21.355   2.583  25.466  0.00  0.00    -0.033 A 
ATOM     23  C20 UNL     1      22.313   3.095  26.352  0.00  0.00    +0.005 A 
ATOM     24  C21 UNL     1      22.567   2.453  27.568  0.00  0.00    +0.004 A 
BRANCH  19  26
ATOM     25  C1  UNL     1      20.930   0.634  30.159  0.00  0.00    +0.012 C 
ATOM     26  C2  UNL     1      22.155   0.594  29.237  0.00  0.00    +0.013 C 
ATOM     27  C3  UNL     1      22.633  -0.846  29.016  0.00  0.00    +0.012 C 
ENDBRANCH  19  26
ENDBRANCH  18  22
ENDBRANCH   1  18
TORSDOF 5
ENDMDL
MODEL 3
REMARK VINA RESULT:    -6.002      8.877     12.678
REMARK INTER + INTRA:          -8.472
REMARK INTER:                  -7.757
REMARK INTRA:                  -0.716
REMARK UNBOUND:                -0.716
REMARK  Name = /home/qwerty/github/datacon2025hack/step_04_hit_selection/docking/ligands/lig_426.pdb
REMARK  7 active torsions:
REMARK  status: ('A' for Active; 'I' for Inactive)
REMARK    1  A    between atoms: C1_1  and  C2_2
REMARK    2  A    between atoms: C2_2  and  C3_3
REMARK    3  A    between atoms: C2_2  and  C4_4
REMARK    4  A    between atoms: C7_7  and  C8_8
REMARK    5  A    between atoms: C8_8  and  N1_9
REMARK    6  A    between atoms: N3_15  and  C12_16
REMARK    7  A    between atoms: C15_19  and  C16_20
REMARK                            x       y       z     vdW  Elec       q    Type
REMARK                         _______ _______ _______ _____ _____    ______ ____
ROOT
ATOM      1  N1  UNL     1      18.617   2.397  33.901  0.00  0.00    -0.295 NA
ATOM      2  C9  UNL     1      17.862   2.122  35.143  0.00  0.00    +0.104 C 
ATOM      3  C10 UNL     1      18.148   3.143  36.255  0.00  0.00    +0.124 C 
ATOM      4  N2  UNL     1      18.051   4.515  35.743  0.00  0.00    -0.283 N 
ATOM      5  C11 UNL     1      17.632   5.572  36.630  0.00  0.00    +0.302 C 
ATOM      6  O1  UNL     1      16.760   5.337  37.511  0.00  0.00    -0.253 OA
ATOM      7  N3  UNL     1      18.200   6.888  36.528  0.00  0.00    -0.296 N 
ATOM      8  C18 UNL     1      18.691   4.833  34.462  0.00  0.00    +0.124 C 
ATOM      9  C19 UNL     1      18.353   3.765  33.414  0.00  0.00    +0.104 C 
ATOM     10  H16 UNL     1      19.065   7.017  35.957  0.00  0.00    +0.151 HD
ENDROOT
BRANCH   7  11
ATOM     11  C12 UNL     1      17.639   8.034  37.256  0.00  0.00    +0.076 C 
ATOM     12  C13 UNL     1      16.986   9.010  36.286  0.00  0.00    +0.023 C 
ATOM     13  C14 UNL     1      18.108   9.920  35.803  0.00  0.00    +0.020 C 
ATOM     14  C15 UNL     1      19.185   9.897  36.896  0.00  0.00    +0.093 C 
ATOM     15  C17 UNL     1      18.741   8.851  37.927  0.00  0.00    +0.040 C 
BRANCH  14  16
ATOM     16  C16 UNL     1      20.507   9.566  36.337  0.00  0.00    +0.066 C 
ATOM     17  N4  UNL     1      21.546   9.305  35.899  0.00  0.00    -0.196 NA
ENDBRANCH  14  16
ENDBRANCH   7  11
BRANCH   1  18
ATOM     18  C8  UNL     1      20.064   2.104  34.008  0.00  0.00    +0.119 C 
BRANCH  18  22
ATOM     19  C4  UNL     1      21.719   1.030  30.158  0.00  0.00    -0.045 A 
ATOM     20  C5  UNL     1      22.200   2.155  30.852  0.00  0.00    +0.004 A 
ATOM     21  C6  UNL     1      21.663   2.507  32.093  0.00  0.00    +0.005 A 
ATOM     22  C7  UNL     1      20.632   1.743  32.661  0.00  0.00    -0.033 A 
ATOM     23  C20 UNL     1      20.153   0.618  31.976  0.00  0.00    +0.005 A 
ATOM     24  C21 UNL     1      20.690   0.264  30.734  0.00  0.00    +0.004 A 
BRANCH  19  26
ATOM     25  C1  UNL     1      22.683  -0.851  28.792  0.00  0.00    +0.012 C 
ATOM     26  C2  UNL     1      22.295   0.633  28.812  0.00  0.00    +0.013 C 
ATOM     27  C3  UNL     1      21.322   0.964  27.674  0.00  0.00    +0.012 C 
ENDBRANCH  19  26
ENDBRANCH  18  22
ENDBRANCH   1  18
TORSDOF 5
ENDMDL
MODEL 4
REMARK VINA RESULT:    -5.960      3.626      5.190
REMARK INTER + INTRA:          -8.418
REMARK INTER:                  -7.859
REMARK INTRA:                  -0.559
REMARK UNBOUND:                -0.716
REMARK  Name = /home/qwerty/github/datacon2025hack/step_04_hit_selection/docking/ligands/lig_426.pdb
REMARK  7 active torsions:
REMARK  status: ('A' for Active; 'I' for Inactive)
REMARK    1  A    between atoms: C1_1  and  C2_2
REMARK    2  A    between atoms: C2_2  and  C3_3
REMARK    3  A    between atoms: C2_2  and  C4_4
REMARK    4  A    between atoms: C7_7  and  C8_8
REMARK    5  A    between atoms: C8_8  and  N1_9
REMARK    6  A    between atoms: N3_15  and  C12_16
REMARK    7  A    between atoms: C15_19  and  C16_20
REMARK                            x       y       z     vdW  Elec       q    Type
REMARK                         _______ _______ _______ _____ _____    ______ ____
ROOT
ATOM      1  N1  UNL     1      21.661   4.979  23.865  0.00  0.00    -0.295 NA
ATOM      2  C9  UNL     1      20.603   4.225  23.158  0.00  0.00    +0.104 C 
ATOM      3  C10 UNL     1      19.479   5.127  22.628  0.00  0.00    +0.124 C 
ATOM      4  N2  UNL     1      20.029   6.280  21.905  0.00  0.00    -0.283 N 
ATOM      5  C11 UNL     1      19.275   6.859  20.821  0.00  0.00    +0.302 C 
ATOM      6  O1  UNL     1      18.596   6.112  20.065  0.00  0.00    -0.253 OA
ATOM      7  N3  UNL     1      19.283   8.279  20.594  0.00  0.00    -0.296 N 
ATOM      8  C18 UNL     1      21.152   7.012  22.502  0.00  0.00    +0.124 C 
ATOM      9  C19 UNL     1      22.224   6.036  23.003  0.00  0.00    +0.104 C 
ATOM     10  H16 UNL     1      19.659   8.903  21.343  0.00  0.00    +0.151 HD
ENDROOT
BRANCH   7  11
ATOM     11  C12 UNL     1      18.717   8.873  19.377  0.00  0.00    +0.076 C 
ATOM     12  C13 UNL     1      19.828   9.411  18.483  0.00  0.00    +0.023 C 
ATOM     13  C14 UNL     1      20.113  10.820  18.988  0.00  0.00    +0.020 C 
ATOM     14  C15 UNL     1      18.831  11.299  19.682  0.00  0.00    +0.093 C 
ATOM     15  C17 UNL     1      17.872  10.102  19.708  0.00  0.00    +0.040 C 
BRANCH  14  16
ATOM     16  C16 UNL     1      19.110  11.786  21.045  0.00  0.00    +0.066 C 
ATOM     17  N4  UNL     1      19.328  12.168  22.115  0.00  0.00    -0.196 NA
ENDBRANCH  14  16
ENDBRANCH   7  11
BRANCH   1  18
ATOM     18  C8  UNL     1      21.242   5.491  25.189  0.00  0.00    +0.119 C 
BRANCH  18  22
ATOM     19  C4  UNL     1      22.106   2.615  28.302  0.00  0.00    -0.045 A 
ATOM     20  C5  UNL     1      22.616   2.434  27.003  0.00  0.00    +0.004 A 
ATOM     21  C6  UNL     1      22.333   3.359  25.994  0.00  0.00    +0.005 A 
ATOM     22  C7  UNL     1      21.532   4.479  26.265  0.00  0.00    -0.033 A 
ATOM     23  C20 UNL     1      21.027   4.666  27.559  0.00  0.00    +0.005 A 
ATOM     24  C21 UNL     1      21.309   3.742  28.569  0.00  0.00    +0.004 A 
BRANCH  19  26
ATOM     25  C1  UNL     1      21.289   0.581  29.539  0.00  0.00    +0.012 C 
ATOM     26  C2  UNL     1      22.409   1.621  29.408  0.00  0.00    +0.013 C 
ATOM     27  C3  UNL     1      23.767   0.945  29.188  0.00  0.00    +0.012 C 
ENDBRANCH  19  26
ENDBRANCH  18  22
ENDBRANCH   1  18
TORSDOF 5
ENDMDL
MODEL 5
REMARK VINA RESULT:    -5.935     11.392     14.879
REMARK INTER + INTRA:          -8.386
REMARK INTER:                  -7.819
REMARK INTRA:                  -0.567
REMARK UNBOUND:                -0.716
REMARK  Name = /home/qwerty/github/datacon2025hack/step_04_hit_selection/docking/ligands/lig_426.pdb
REMARK  7 active torsions:
REMARK  status: ('A' for Active; 'I' for Inactive)
REMARK    1  A    between atoms: C1_1  and  C2_2
REMARK    2  A    between atoms: C2_2  and  C3_3
REMARK    3  A    between atoms: C2_2  and  C4_4
REMARK    4  A    between atoms: C7_7  and  C8_8
REMARK    5  A    between atoms: C8_8  and  N1_9
REMARK    6  A    between atoms: N3_15  and  C12_16
REMARK    7  A    between atoms: C15_19  and  C16_20
REMARK                            x       y       z     vdW  Elec       q    Type
REMARK                         _______ _______ _______ _____ _____    ______ ____
ROOT
ATOM      1  N1  UNL     1      14.767  15.182  27.923  0.00  0.00    -0.295 NA
ATOM      2  C9  UNL     1      15.117  15.245  29.358  0.00  0.00    +0.104 C 
ATOM      3  C10 UNL     1      16.507  14.665  29.661  0.00  0.00    +0.124 C 
ATOM      4  N2  UNL     1      17.512  15.205  28.737  0.00  0.00    -0.283 N 
ATOM      5  C11 UNL     1      18.875  15.351  29.184  0.00  0.00    +0.302 C 
ATOM      6  O1  UNL     1      19.108  15.686  30.378  0.00  0.00    -0.253 OA
ATOM      7  N3  UNL     1      19.974  15.114  28.287  0.00  0.00    -0.296 N 
ATOM      8  C18 UNL     1      17.189  15.268  27.307  0.00  0.00    +0.124 C 
ATOM      9  C19 UNL     1      15.788  15.857  27.099  0.00  0.00    +0.104 C 
ATOM     10  H16 UNL     1      19.784  14.630  27.380  0.00  0.00    +0.151 HD
ENDROOT
BRANCH   7  11
ATOM     11  C12 UNL     1      21.354  15.471  28.639  0.00  0.00    +0.076 C 
ATOM     12  C13 UNL     1      21.812  16.679  27.832  0.00  0.00    +0.023 C 
ATOM     13  C14 UNL     1      22.337  16.117  26.517  0.00  0.00    +0.020 C 
ATOM     14  C15 UNL     1      22.759  14.669  26.803  0.00  0.00    +0.093 C 
ATOM     15  C17 UNL     1      22.325  14.361  28.241  0.00  0.00    +0.040 C 
BRANCH  14  16
ATOM     16  C16 UNL     1      22.137  13.733  25.848  0.00  0.00    +0.066 C 
ATOM     17  N4  UNL     1      21.650  12.999  25.098  0.00  0.00    -0.196 NA
ENDBRANCH  14  16
ENDBRANCH   7  11
BRANCH   1  18
ATOM     18  C8  UNL     1      14.468  13.814  27.444  0.00  0.00    +0.119 C 
BRANCH  18  22
ATOM     19  C4  UNL     1      10.230  13.006  27.763  0.00  0.00    -0.045 A 
ATOM     20  C5  UNL     1      11.132  11.969  27.460  0.00  0.00    +0.004 A 
ATOM     21  C6  UNL     1      12.501  12.230  27.351  0.00  0.00    +0.005 A 
ATOM     22  C7  UNL     1      12.991  13.531  27.538  0.00  0.00    -0.033 A 
ATOM     23  C20 UNL     1      12.097  14.565  27.845  0.00  0.00    +0.005 A 
ATOM     24  C21 UNL     1      10.728  14.306  27.956  0.00  0.00    +0.004 A 
BRANCH  19  26
ATOM     25  C1  UNL     1       8.385  12.255  29.301  0.00  0.00    +0.012 C 
ATOM     26  C2  UNL     1       8.742  12.737  27.889  0.00  0.00    +0.013 C 
ATOM     27  C3  UNL     1       7.922  13.975  27.505  0.00  0.00    +0.012 C 
ENDBRANCH  19  26
ENDBRANCH  18  22
ENDBRANCH   1  18
TORSDOF 5
ENDMDL
MODEL 6
REMARK VINA RESULT:    -5.913      5.107      7.268
REMARK INTER + INTRA:          -8.357
REMARK INTER:                  -8.046
REMARK INTRA:                  -0.311
REMARK UNBOUND:                -0.716
REMARK  Name = /home/qwerty/github/datacon2025hack/step_04_hit_selection/docking/ligands/lig_426.pdb
REMARK  7 active torsions:
REMARK  status: ('A' for Active; 'I' for Inactive)
REMARK    1  A    between atoms: C1_1  and  C2_2
REMARK    2  A    between atoms: C2_2  and  C3_3
REMARK    3  A    between atoms: C2_2  and  C4_4
REMARK    4  A    between atoms: C7_7  and  C8_8
REMARK    5  A    between atoms: C8_8  and  N1_9
REMARK    6  A    between atoms: N3_15  and  C12_16
REMARK    7  A    between atoms: C15_19  and  C16_20
REMARK                            x       y       z     vdW  Elec       q    Type
REMARK                         _______ _______ _______ _____ _____    ______ ____
ROOT
ATOM      1  N1  UNL     1      14.658   2.877  20.763  0.00  0.00    -0.295 NA
ATOM      2  C9  UNL     1      14.359   3.908  19.745  0.00  0.00    +0.104 C 
ATOM      3  C10 UNL     1      12.857   4.041  19.452  0.00  0.00    +0.124 C 
ATOM      4  N2  UNL     1      12.087   4.136  20.698  0.00  0.00    -0.283 N 
ATOM      5  C11 UNL     1      10.856   4.887  20.712  0.00  0.00    +0.302 C 
ATOM      6  O1  UNL     1      10.757   5.936  20.019  0.00  0.00    -0.253 OA
ATOM      7  N3  UNL     1       9.736   4.451  21.502  0.00  0.00    -0.296 N 
ATOM      8  C18 UNL     1      12.403   3.209  21.791  0.00  0.00    +0.124 C 
ATOM      9  C19 UNL     1      13.919   3.139  22.013  0.00  0.00    +0.104 C 
ATOM     10  H16 UNL     1       9.745   3.480  21.891  0.00  0.00    +0.151 HD
ENDROOT
BRANCH   7  11
ATOM     11  C12 UNL     1       8.559   5.302  21.716  0.00  0.00    +0.076 C 
ATOM     12  C13 UNL     1       8.877   6.403  22.721  0.00  0.00    +0.023 C 
ATOM     13  C14 UNL     1       8.630   5.789  24.092  0.00  0.00    +0.020 C 
ATOM     14  C15 UNL     1       7.625   4.648  23.881  0.00  0.00    +0.093 C 
ATOM     15  C17 UNL     1       7.424   4.515  22.367  0.00  0.00    +0.040 C 
BRANCH  14  16
ATOM     16  C16 UNL     1       8.118   3.387  24.465  0.00  0.00    +0.066 C 
ATOM     17  N4  UNL     1       8.503   2.397  24.924  0.00  0.00    -0.196 NA
ENDBRANCH  14  16
ENDBRANCH   7  11
BRANCH   1  18
ATOM     18  C8  UNL     1      14.475   1.491  20.276  0.00  0.00    +0.119 C 
BRANCH  18  22
ATOM     19  C4  UNL     1      16.138  -1.376  23.057  0.00  0.00    -0.045 A 
ATOM     20  C5  UNL     1      14.834  -0.879  23.240  0.00  0.00    +0.004 A 
ATOM     21  C6  UNL     1      14.298   0.052  22.346  0.00  0.00    +0.005 A 
ATOM     22  C7  UNL     1      15.055   0.505  21.256  0.00  0.00    -0.033 A 
ATOM     23  C20 UNL     1      16.352   0.009  21.066  0.00  0.00    +0.005 A 
ATOM     24  C21 UNL     1      16.891  -0.923  21.959  0.00  0.00    +0.004 A 
BRANCH  19  26
ATOM     25  C1  UNL     1      17.812  -1.750  24.898  0.00  0.00    +0.012 C 
ATOM     26  C2  UNL     1      16.732  -2.390  24.016  0.00  0.00    +0.013 C 
ATOM     27  C3  UNL     1      15.642  -3.048  24.870  0.00  0.00    +0.012 C 
ENDBRANCH  19  26
ENDBRANCH  18  22
ENDBRANCH   1  18
TORSDOF 5
ENDMDL
MODEL 7
REMARK VINA RESULT:    -5.883      8.978     12.676
REMARK INTER + INTRA:          -8.318
REMARK INTER:                  -7.900
REMARK INTRA:                  -0.418
REMARK UNBOUND:                -0.716
REMARK  Name = /home/qwerty/github/datacon2025hack/step_04_hit_selection/docking/ligands/lig_426.pdb
REMARK  7 active torsions:
REMARK  status: ('A' for Active; 'I' for Inactive)
REMARK    1  A    between atoms: C1_1  and  C2_2
REMARK    2  A    between atoms: C2_2  and  C3_3
REMARK    3  A    between atoms: C2_2  and  C4_4
REMARK    4  A    between atoms: C7_7  and  C8_8
REMARK    5  A    between atoms: C8_8  and  N1_9
REMARK    6  A    between atoms: N3_15  and  C12_16
REMARK    7  A    between atoms: C15_19  and  C16_20
REMARK                            x       y       z     vdW  Elec       q    Type
REMARK                         _______ _______ _______ _____ _____    ______ ____
ROOT
ATOM      1  N1  UNL     1      21.078  12.840  19.279  0.00  0.00    -0.295 NA
ATOM      2  C9  UNL     1      21.732  14.079  18.804  0.00  0.00    +0.104 C 
ATOM      3  C10 UNL     1      21.553  15.257  19.772  0.00  0.00    +0.124 C 
ATOM      4  N2  UNL     1      21.871  14.858  21.149  0.00  0.00    -0.283 N 
ATOM      5  C11 UNL     1      22.403  15.837  22.063  0.00  0.00    +0.302 C 
ATOM      6  O1  UNL     1      23.194  16.723  21.638  0.00  0.00    -0.253 OA
ATOM      7  N3  UNL     1      22.039  15.821  23.454  0.00  0.00    -0.296 N 
ATOM      8  C18 UNL     1      21.339  13.586  21.651  0.00  0.00    +0.124 C 
ATOM      9  C19 UNL     1      21.560  12.469  20.623  0.00  0.00    +0.104 C 
ATOM     10  H16 UNL     1      21.226  15.235  23.752  0.00  0.00    +0.151 HD
ENDROOT
BRANCH   7  11
ATOM     11  C12 UNL     1      22.731  16.652  24.447  0.00  0.00    +0.076 C 
ATOM     12  C13 UNL     1      24.059  16.017  24.839  0.00  0.00    +0.023 C 
ATOM     13  C14 UNL     1      23.728  15.033  25.954  0.00  0.00    +0.020 C 
ATOM     14  C15 UNL     1      22.431  15.535  26.604  0.00  0.00    +0.093 C 
ATOM     15  C17 UNL     1      21.943  16.715  25.754  0.00  0.00    +0.040 C 
BRANCH  14  16
ATOM     16  C16 UNL     1      21.417  14.468  26.666  0.00  0.00    +0.066 C 
ATOM     17  N4  UNL     1      20.619  13.632  26.715  0.00  0.00    -0.196 NA
ENDBRANCH  14  16
ENDBRANCH   7  11
BRANCH   1  18
ATOM     18  C8  UNL     1      19.601  12.879  19.198  0.00  0.00    +0.119 C 
BRANCH  18  22
ATOM     19  C4  UNL     1      17.972   8.872  19.105  0.00  0.00    -0.045 A 
ATOM     20  C5  UNL     1      17.162   9.962  19.473  0.00  0.00    +0.004 A 
ATOM     21  C6  UNL     1      17.688  11.257  19.509  0.00  0.00    +0.005 A 
ATOM     22  C7  UNL     1      19.033  11.484  19.182  0.00  0.00    -0.033 A 
ATOM     23  C20 UNL     1      19.842  10.402  18.810  0.00  0.00    +0.005 A 
ATOM     24  C21 UNL     1      19.318   9.107  18.772  0.00  0.00    +0.004 A 
BRANCH  19  26
ATOM     25  C1  UNL     1      18.488   6.457  18.623  0.00  0.00    +0.012 C 
ATOM     26  C2  UNL     1      17.414   7.462  19.057  0.00  0.00    +0.013 C 
ATOM     27  C3  UNL     1      16.798   7.065  20.404  0.00  0.00    +0.012 C 
ENDBRANCH  19  26
ENDBRANCH  18  22
ENDBRANCH   1  18
TORSDOF 5
ENDMDL
MODEL 8
REMARK VINA RESULT:    -5.826     12.116     14.489
REMARK INTER + INTRA:          -8.244
REMARK INTER:                  -7.625
REMARK INTRA:                  -0.620
REMARK UNBOUND:                -0.716
REMARK  Name = /home/qwerty/github/datacon2025hack/step_04_hit_selection/docking/ligands/lig_426.pdb
REMARK  7 active torsions:
REMARK  status: ('A' for Active; 'I' for Inactive)
REMARK    1  A    between atoms: C1_1  and  C2_2
REMARK    2  A    between atoms: C2_2  and  C3_3
REMARK    3  A    between atoms: C2_2  and  C4_4
REMARK    4  A    between atoms: C7_7  and  C8_8
REMARK    5  A    between atoms: C8_8  and  N1_9
REMARK    6  A    between atoms: N3_15  and  C12_16
REMARK    7  A    between atoms: C15_19  and  C16_20
REMARK                            x       y       z     vdW  Elec       q    Type
REMARK                         _______ _______ _______ _____ _____    ______ ____
ROOT
ATOM      1  N1  UNL     1       7.091   6.756  29.302  0.00  0.00    -0.295 NA
ATOM      2  C9  UNL     1       7.282   6.338  27.896  0.00  0.00    +0.104 C 
ATOM      3  C10 UNL     1       8.046   5.012  27.766  0.00  0.00    +0.124 C 
ATOM      4  N2  UNL     1       7.485   3.993  28.661  0.00  0.00    -0.283 N 
ATOM      5  C11 UNL     1       7.554   2.604  28.282  0.00  0.00    +0.302 C 
ATOM      6  O1  UNL     1       7.429   2.281  27.069  0.00  0.00    -0.253 OA
ATOM      7  N3  UNL     1       7.770   1.581  29.269  0.00  0.00    -0.296 N 
ATOM      8  C18 UNL     1       7.174   4.370  30.045  0.00  0.00    +0.124 C 
ATOM      9  C19 UNL     1       6.413   5.702  30.081  0.00  0.00    +0.104 C 
ATOM     10  H16 UNL     1       8.090   1.865  30.223  0.00  0.00    +0.151 HD
ENDROOT
BRANCH   7  11
ATOM     11  C12 UNL     1       7.621   0.155  28.954  0.00  0.00    +0.076 C 
ATOM     12  C13 UNL     1       6.539  -0.471  29.826  0.00  0.00    +0.023 C 
ATOM     13  C14 UNL     1       7.237  -0.873  31.118  0.00  0.00    +0.020 C 
ATOM     14  C15 UNL     1       8.719  -1.067  30.768  0.00  0.00    +0.093 C 
ATOM     15  C17 UNL     1       8.887  -0.621  29.310  0.00  0.00    +0.040 C 
BRANCH  14  16
ATOM     16  C16 UNL     1       9.588  -0.285  31.666  0.00  0.00    +0.066 C 
ATOM     17  N4  UNL     1      10.271   0.329  32.370  0.00  0.00    -0.196 NA
ENDBRANCH  14  16
ENDBRANCH   7  11
BRANCH   1  18
ATOM     18  C8  UNL     1       8.332   7.232  29.954  0.00  0.00    +0.119 C 
BRANCH  18  22
ATOM     19  C4  UNL     1       8.728  11.524  29.580  0.00  0.00    -0.045 A 
ATOM     20  C5  UNL     1       7.490  10.899  29.341  0.00  0.00    +0.004 A 
ATOM     21  C6  UNL     1       7.361   9.511  29.456  0.00  0.00    +0.005 A 
ATOM     22  C7  UNL     1       8.469   8.725  29.807  0.00  0.00    -0.033 A 
ATOM     23  C20 UNL     1       9.702   9.343  30.051  0.00  0.00    +0.005 A 
ATOM     24  C21 UNL     1       9.833  10.730  29.937  0.00  0.00    +0.004 A 
BRANCH  19  26
ATOM     25  C1  UNL     1       9.450  13.422  28.094  0.00  0.00    +0.012 C 
ATOM     26  C2  UNL     1       8.881  13.029  29.464  0.00  0.00    +0.013 C 
ATOM     27  C3  UNL     1       7.552  13.743  29.735  0.00  0.00    +0.012 C 
ENDBRANCH  19  26
ENDBRANCH  18  22
ENDBRANCH   1  18
TORSDOF 5
ENDMDL
MODEL 9
REMARK VINA RESULT:    -5.811      6.077      7.733
REMARK INTER + INTRA:          -8.225
REMARK INTER:                  -7.626
REMARK INTRA:                  -0.599
REMARK UNBOUND:                -0.716
REMARK  Name = /home/qwerty/github/datacon2025hack/step_04_hit_selection/docking/ligands/lig_426.pdb
REMARK  7 active torsions:
REMARK  status: ('A' for Active; 'I' for Inactive)
REMARK    1  A    between atoms: C1_1  and  C2_2
REMARK    2  A    between atoms: C2_2  and  C3_3
REMARK    3  A    between atoms: C2_2  and  C4_4
REMARK    4  A    between atoms: C7_7  and  C8_8
REMARK    5  A    between atoms: C8_8  and  N1_9
REMARK    6  A    between atoms: N3_15  and  C12_16
REMARK    7  A    between atoms: C15_19  and  C16_20
REMARK                            x       y       z     vdW  Elec       q    Type
REMARK                         _______ _______ _______ _____ _____    ______ ____
ROOT
ATOM      1  N1  UNL     1      13.509   2.687  20.635  0.00  0.00    -0.295 NA
ATOM      2  C9  UNL     1      12.079   2.584  20.998  0.00  0.00    +0.104 C 
ATOM      3  C10 UNL     1      11.496   3.909  21.513  0.00  0.00    +0.124 C 
ATOM      4  N2  UNL     1      11.846   5.019  20.618  0.00  0.00    -0.283 N 
ATOM      5  C11 UNL     1      10.947   6.138  20.496  0.00  0.00    +0.302 C 
ATOM      6  O1  UNL     1       9.701   5.945  20.537  0.00  0.00    -0.253 OA
ATOM      7  N3  UNL     1      11.452   7.475  20.334  0.00  0.00    -0.296 N 
ATOM      8  C18 UNL     1      13.229   5.121  20.136  0.00  0.00    +0.124 C 
ATOM      9  C19 UNL     1      13.728   3.757  19.642  0.00  0.00    +0.104 C 
ATOM     10  H16 UNL     1      12.464   7.653  20.522  0.00  0.00    +0.151 HD
ENDROOT
BRANCH   7  11
ATOM     11  C12 UNL     1      10.575   8.598  19.982  0.00  0.00    +0.076 C 
ATOM     12  C13 UNL     1      11.397   9.772  19.467  0.00  0.00    +0.023 C 
ATOM     13  C14 UNL     1      11.824  10.549  20.706  0.00  0.00    +0.020 C 
ATOM     14  C15 UNL     1      10.789  10.229  21.794  0.00  0.00    +0.093 C 
ATOM     15  C17 UNL     1       9.865   9.149  21.217  0.00  0.00    +0.040 C 
BRANCH  14  16
ATOM     16  C16 UNL     1      11.440   9.767  23.032  0.00  0.00    +0.066 C 
ATOM     17  N4  UNL     1      11.951   9.402  24.004  0.00  0.00    -0.196 NA
ENDBRANCH  14  16
ENDBRANCH   7  11
BRANCH   1  18
ATOM     18  C8  UNL     1      14.411   2.805  21.803  0.00  0.00    +0.119 C 
BRANCH  18  22
ATOM     19  C4  UNL     1      14.618  -0.912  24.006  0.00  0.00    -0.045 A 
ATOM     20  C5  UNL     1      15.198  -0.808  22.728  0.00  0.00    +0.004 A 
ATOM     21  C6  UNL     1      15.127   0.391  22.012  0.00  0.00    +0.005 A 
ATOM     22  C7  UNL     1      14.472   1.504  22.559  0.00  0.00    -0.033 A 
ATOM     23  C20 UNL     1      13.897   1.407  23.834  0.00  0.00    +0.005 A 
ATOM     24  C21 UNL     1      13.968   0.209  24.552  0.00  0.00    +0.004 A 
BRANCH  19  26
ATOM     25  C1  UNL     1      16.115  -2.776  24.792  0.00  0.00    +0.012 C 
ATOM     26  C2  UNL     1      14.691  -2.205  24.797  0.00  0.00    +0.013 C 
ATOM     27  C3  UNL     1      14.180  -2.007  26.229  0.00  0.00    +0.012 C 
ENDBRANCH  19  26
ENDBRANCH  18  22
ENDBRANCH   1  18
TORSDOF 5
ENDMDL
