REMARK  Name = /home/qwerty/github/datacon2025hack/step_04_hit_selection/docking/ligands/lig_567.pdb
REMARK  5 active torsions:
REMARK  status: ('A' for Active; 'I' for Inactive)
REMARK    1  A    between atoms: C1_1  and  C2_2
REMARK    2  A    between atoms: C2_2  and  N1_3
REMARK    3  A    between atoms: C2_2  and  C11_15
REMARK    4  A    between atoms: C3_4  and  C4_6
REMARK    5  A    between atoms: C15_19  and  N4_20
REMARK                            x       y       z     vdW  Elec       q    Type
REMARK                         _______ _______ _______ _____ _____    ______ ____
ROOT
ATOM      1  C1  UNL     1      -0.669  -1.871   2.569  0.00  0.00    +0.033 C 
ATOM      2  C2  UNL     1       0.140  -1.939   1.267  0.00  0.00    +0.100 C 
ENDROOT
BRANCH   2   3
ATOM      3  C11 UNL     1      -0.751  -1.906   0.038  0.00  0.00    -0.026 A 
ATOM      4  C12 UNL     1      -0.561  -2.852  -0.987  0.00  0.00    +0.005 A 
ATOM      5  C13 UNL     1      -1.364  -2.831  -2.129  0.00  0.00    +0.002 A 
ATOM      6  C14 UNL     1      -2.361  -1.862  -2.266  0.00  0.00    +0.023 A 
ATOM      7  C15 UNL     1      -2.554  -0.888  -1.269  0.00  0.00    +0.037 A 
ATOM      8  C20 UNL     1      -1.740  -0.913  -0.122  0.00  0.00    +0.029 A 
BRANCH   7   9
ATOM      9  N4  UNL     1      -3.602   0.093  -1.405  0.00  0.00    -0.271 N 
ATOM     10  C16 UNL     1      -4.893  -0.162  -2.028  0.00  0.00    +0.114 C 
ATOM     11  C17 UNL     1      -5.768   1.058  -1.697  0.00  0.00    +0.029 C 
ATOM     12  C18 UNL     1      -4.825   2.158  -1.184  0.00  0.00    +0.098 C 
ATOM     13  C19 UNL     1      -3.561   1.438  -0.953  0.00  0.00    +0.220 C 
ATOM     14  O2  UNL     1      -2.530   1.978  -0.467  0.00  0.00    -0.275 OA
ENDBRANCH   7   9
ENDBRANCH   2   3
BRANCH   2  15
ATOM     15  N1  UNL     1       1.112  -0.841   1.216  0.00  0.00    -0.305 N 
ATOM     16  C3  UNL     1       2.379  -0.912   1.894  0.00  0.00    +0.246 C 
ATOM     17  O1  UNL     1       2.603  -1.860   2.696  0.00  0.00    -0.270 OA
ATOM     18  H5  UNL     1       0.820   0.063   0.782  0.00  0.00    +0.150 HD
BRANCH  16  19
ATOM     19  C4  UNL     1       3.431   0.110   1.675  0.00  0.00    +0.057 A 
ATOM     20  C5  UNL     1       4.503   0.234   2.603  0.00  0.00    +0.124 A 
ATOM     21  N2  UNL     1       5.510   1.133   2.393  0.00  0.00    -0.253 NA
ATOM     22  C6  UNL     1       5.472   1.920   1.290  0.00  0.00    +0.088 A 
ATOM     23  C7  UNL     1       6.385   2.852   0.857  0.00  0.00    +0.047 A 
ATOM     24  C8  UNL     1       5.866   3.312  -0.352  0.00  0.00    +0.085 A 
ATOM     25  N3  UNL     1       4.696   2.691  -0.645  0.00  0.00    -0.359 N 
ATOM     26  C9  UNL     1       4.471   1.843   0.373  0.00  0.00    +0.066 A 
ATOM     27  C10 UNL     1       3.426   0.938   0.525  0.00  0.00    +0.042 A 
ATOM     28  H9  UNL     1       4.108   2.828  -1.496  0.00  0.00    +0.165 HD
ENDBRANCH  16  19
ENDBRANCH   2  15
TORSDOF 4
