MODEL 1
REMARK VINA RESULT:    -6.192      0.000      0.000
REMARK INTER + INTRA:          -7.773
REMARK INTER:                  -7.278
REMARK INTRA:                  -0.495
REMARK UNBOUND:                -0.495
REMARK  Name = /home/qwerty/github/datacon2025hack/step_04_hit_selection/docking/ligands/lig_574.pdb
REMARK  5 active torsions:
REMARK  status: ('A' for Active; 'I' for Inactive)
REMARK    1  A    between atoms: C1_1  and  C2_2
REMARK    2  A    between atoms: C2_2  and  C3_3
REMARK    3  A    between atoms: C2_2  and  C4_4
REMARK    4  A    between atoms: C7_9  and  C8_10
REMARK    5  A    between atoms: N2_12  and  C9_13
REMARK                            x       y       z     vdW  Elec       q    Type
REMARK                         _______ _______ _______ _____ _____    ______ ____
ROOT
ATOM      1  C8  UNL     1      13.213  11.924  33.197  0.00  0.00    +0.220 C 
ATOM      2  O2  UNL     1      13.618  10.733  33.292  0.00  0.00    -0.275 OA
ATOM      3  N2  UNL     1      13.889  12.978  33.903  0.00  0.00    -0.285 N 
ATOM      4  H13 UNL     1      13.387  13.886  34.034  0.00  0.00    +0.155 HD
ENDROOT
BRANCH   3   5
ATOM      5  C9  UNL     1      15.178  12.830  34.523  0.00  0.00    +0.034 A 
ATOM      6  C10 UNL     1      15.252  12.487  35.873  0.00  0.00    +0.027 A 
ATOM      7  C11 UNL     1      16.488  12.359  36.499  0.00  0.00    +0.048 A 
ATOM      8  C12 UNL     1      17.684  12.586  35.805  0.00  0.00    +0.133 A 
ATOM      9  C13 UNL     1      17.629  12.957  34.427  0.00  0.00    +0.080 A 
ATOM     10  C14 UNL     1      16.363  13.085  33.816  0.00  0.00    +0.040 A 
ATOM     11  C15 UNL     1      18.816  13.260  33.576  0.00  0.00    +0.248 C 
ATOM     12  O3  UNL     1      18.704  14.127  32.666  0.00  0.00    -0.270 OA
ATOM     13  N3  UNL     1      20.065  12.569  33.694  0.00  0.00    -0.308 N 
ATOM     14  C16 UNL     1      20.441  11.782  34.855  0.00  0.00    +0.145 C 
ATOM     15  C17 UNL     1      20.196  12.598  36.113  0.00  0.00    +0.247 C 
ATOM     16  O4  UNL     1      18.859  12.427  36.558  0.00  0.00    -0.490 OA
ATOM     17  H17 UNL     1      20.795  12.742  32.966  0.00  0.00    +0.149 HD
ENDBRANCH   3   5
BRANCH   1  23
ATOM     18  C4  UNL     1       8.848  12.387  29.649  0.00  0.00    +0.218 C 
ATOM     19  O1  UNL     1       8.082  11.384  29.653  0.00  0.00    -0.275 OA
ATOM     20  N1  UNL     1      10.190  12.266  30.185  0.00  0.00    -0.301 N 
ATOM     21  C5  UNL     1      11.028  13.458  30.409  0.00  0.00    +0.108 C 
ATOM     22  C6  UNL     1      12.306  13.123  31.192  0.00  0.00    +0.032 C 
ATOM     23  C7  UNL     1      11.974  12.214  32.388  0.00  0.00    +0.078 C 
ATOM     24  C18 UNL     1      11.254  10.905  31.958  0.00  0.00    +0.032 C 
ATOM     25  C19 UNL     1      10.744  10.941  30.509  0.00  0.00    +0.108 C 
BRANCH  18  27
ATOM     26  C1  UNL     1       7.958  13.610  27.643  0.00  0.00    +0.017 C 
ATOM     27  C2  UNL     1       8.301  13.705  29.135  0.00  0.00    +0.069 C 
ATOM     28  C3  UNL     1       7.069  14.113  29.948  0.00  0.00    +0.017 C 
ENDBRANCH  18  27
ENDBRANCH   1  23
TORSDOF 3
ENDMDL
MODEL 2
REMARK VINA RESULT:    -6.173     14.168     15.477
REMARK INTER + INTRA:          -7.751
REMARK INTER:                  -7.263
REMARK INTRA:                  -0.488
REMARK UNBOUND:                -0.495
REMARK  Name = /home/qwerty/github/datacon2025hack/step_04_hit_selection/docking/ligands/lig_574.pdb
REMARK  5 active torsions:
REMARK  status: ('A' for Active; 'I' for Inactive)
REMARK    1  A    between atoms: C1_1  and  C2_2
REMARK    2  A    between atoms: C2_2  and  C3_3
REMARK    3  A    between atoms: C2_2  and  C4_4
REMARK    4  A    between atoms: C7_9  and  C8_10
REMARK    5  A    between atoms: N2_12  and  C9_13
REMARK                            x       y       z     vdW  Elec       q    Type
REMARK                         _______ _______ _______ _____ _____    ______ ____
ROOT
ATOM      1  C8  UNL     1      12.927   2.940  22.181  0.00  0.00    +0.220 C 
ATOM      2  O2  UNL     1      14.006   3.522  22.477  0.00  0.00    -0.275 OA
ATOM      3  N2  UNL     1      12.921   1.537  21.871  0.00  0.00    -0.285 N 
ATOM      4  H13 UNL     1      12.091   1.145  21.370  0.00  0.00    +0.155 HD
ENDROOT
BRANCH   3   5
ATOM      5  C9  UNL     1      14.028   0.656  22.123  0.00  0.00    +0.034 A 
ATOM      6  C10 UNL     1      15.030   0.523  21.161  0.00  0.00    +0.027 A 
ATOM      7  C11 UNL     1      16.101  -0.340  21.374  0.00  0.00    +0.048 A 
ATOM      8  C12 UNL     1      16.196  -1.108  22.543  0.00  0.00    +0.133 A 
ATOM      9  C13 UNL     1      15.171  -1.002  23.531  0.00  0.00    +0.080 A 
ATOM     10  C14 UNL     1      14.093  -0.123  23.289  0.00  0.00    +0.040 A 
ATOM     11  C15 UNL     1      15.127  -1.781  24.802  0.00  0.00    +0.248 C 
ATOM     12  O3  UNL     1      14.002  -2.110  25.272  0.00  0.00    -0.270 OA
ATOM     13  N3  UNL     1      16.295  -2.122  25.558  0.00  0.00    -0.308 N 
ATOM     14  C16 UNL     1      17.641  -2.083  25.015  0.00  0.00    +0.145 C 
ATOM     15  C17 UNL     1      17.666  -2.821  23.687  0.00  0.00    +0.247 C 
ATOM     16  O4  UNL     1      17.325  -1.940  22.627  0.00  0.00    -0.490 OA
ATOM     17  H17 UNL     1      16.164  -2.541  26.506  0.00  0.00    +0.149 HD
ENDBRANCH   3   5
BRANCH   1  23
ATOM     18  C4  UNL     1       7.776   5.220  21.813  0.00  0.00    +0.218 C 
ATOM     19  O1  UNL     1       7.051   5.003  22.824  0.00  0.00    -0.275 OA
ATOM     20  N1  UNL     1       8.944   4.395  21.579  0.00  0.00    -0.301 N 
ATOM     21  C5  UNL     1       9.937   4.757  20.550  0.00  0.00    +0.108 C 
ATOM     22  C6  UNL     1      11.196   3.883  20.632  0.00  0.00    +0.032 C 
ATOM     23  C7  UNL     1      11.657   3.751  22.094  0.00  0.00    +0.078 C 
ATOM     24  C18 UNL     1      10.548   3.176  23.018  0.00  0.00    +0.032 C 
ATOM     25  C19 UNL     1       9.158   3.167  22.365  0.00  0.00    +0.108 C 
BRANCH  18  27
ATOM     26  C1  UNL     1       5.939   6.346  20.519  0.00  0.00    +0.017 C 
ATOM     27  C2  UNL     1       7.421   6.389  20.915  0.00  0.00    +0.069 C 
ATOM     28  C3  UNL     1       7.755   7.709  21.617  0.00  0.00    +0.017 C 
ENDBRANCH  18  27
ENDBRANCH   1  23
TORSDOF 3
ENDMDL
MODEL 3
REMARK VINA RESULT:    -6.167     13.064     15.738
REMARK INTER + INTRA:          -7.744
REMARK INTER:                  -7.297
REMARK INTRA:                  -0.447
REMARK UNBOUND:                -0.495
REMARK  Name = /home/qwerty/github/datacon2025hack/step_04_hit_selection/docking/ligands/lig_574.pdb
REMARK  5 active torsions:
REMARK  status: ('A' for Active; 'I' for Inactive)
REMARK    1  A    between atoms: C1_1  and  C2_2
REMARK    2  A    between atoms: C2_2  and  C3_3
REMARK    3  A    between atoms: C2_2  and  C4_4
REMARK    4  A    between atoms: C7_9  and  C8_10
REMARK    5  A    between atoms: N2_12  and  C9_13
REMARK                            x       y       z     vdW  Elec       q    Type
REMARK                         _______ _______ _______ _____ _____    ______ ____
ROOT
ATOM      1  C8  UNL     1      21.100   5.127  25.175  0.00  0.00    +0.220 C 
ATOM      2  O2  UNL     1      20.132   5.923  25.030  0.00  0.00    -0.275 OA
ATOM      3  N2  UNL     1      21.941   4.796  24.057  0.00  0.00    -0.285 N 
ATOM      4  H13 UNL     1      22.546   3.946  24.127  0.00  0.00    +0.155 HD
ENDROOT
BRANCH   3   5
ATOM      5  C9  UNL     1      21.931   5.509  22.808  0.00  0.00    +0.034 A 
ATOM      6  C10 UNL     1      20.953   5.212  21.858  0.00  0.00    +0.027 A 
ATOM      7  C11 UNL     1      20.937   5.874  20.635  0.00  0.00    +0.048 A 
ATOM      8  C12 UNL     1      21.903   6.837  20.314  0.00  0.00    +0.133 A 
ATOM      9  C13 UNL     1      22.924   7.141  21.265  0.00  0.00    +0.080 A 
ATOM     10  C14 UNL     1      22.922   6.453  22.497  0.00  0.00    +0.040 A 
ATOM     11  C15 UNL     1      24.031   8.116  21.046  0.00  0.00    +0.248 C 
ATOM     12  O3  UNL     1      25.154   7.888  21.578  0.00  0.00    -0.270 OA
ATOM     13  N3  UNL     1      23.872   9.338  20.314  0.00  0.00    -0.308 N 
ATOM     14  C16 UNL     1      22.763   9.593  19.411  0.00  0.00    +0.145 C 
ATOM     15  C17 UNL     1      22.608   8.414  18.465  0.00  0.00    +0.247 C 
ATOM     16  O4  UNL     1      21.772   7.424  19.044  0.00  0.00    -0.490 OA
ATOM     17  H17 UNL     1      24.655  10.029  20.331  0.00  0.00    +0.149 HD
ENDBRANCH   3   5
BRANCH   1  23
ATOM     18  C4  UNL     1      21.923   1.967  29.778  0.00  0.00    +0.218 C 
ATOM     19  O1  UNL     1      23.045   1.388  29.803  0.00  0.00    -0.275 OA
ATOM     20  N1  UNL     1      21.407   2.476  28.523  0.00  0.00    -0.301 N 
ATOM     21  C5  UNL     1      20.223   3.353  28.489  0.00  0.00    +0.108 C 
ATOM     22  C6  UNL     1      19.995   3.958  27.096  0.00  0.00    +0.032 C 
ATOM     23  C7  UNL     1      21.322   4.480  26.520  0.00  0.00    +0.078 C 
ATOM     24  C18 UNL     1      22.415   3.379  26.450  0.00  0.00    +0.032 C 
ATOM     25  C19 UNL     1      22.059   2.117  27.252  0.00  0.00    +0.108 C 
BRANCH  18  27
ATOM     26  C1  UNL     1      20.706   0.816  31.652  0.00  0.00    +0.017 C 
ATOM     27  C2  UNL     1      21.188   2.160  31.090  0.00  0.00    +0.069 C 
ATOM     28  C3  UNL     1      22.094   2.873  32.098  0.00  0.00    +0.017 C 
ENDBRANCH  18  27
ENDBRANCH   1  23
TORSDOF 3
ENDMDL
MODEL 4
REMARK VINA RESULT:    -6.137      4.345      6.480
REMARK INTER + INTRA:          -7.708
REMARK INTER:                  -7.195
REMARK INTRA:                  -0.513
REMARK UNBOUND:                -0.495
REMARK  Name = /home/qwerty/github/datacon2025hack/step_04_hit_selection/docking/ligands/lig_574.pdb
REMARK  5 active torsions:
REMARK  status: ('A' for Active; 'I' for Inactive)
REMARK    1  A    between atoms: C1_1  and  C2_2
REMARK    2  A    between atoms: C2_2  and  C3_3
REMARK    3  A    between atoms: C2_2  and  C4_4
REMARK    4  A    between atoms: C7_9  and  C8_10
REMARK    5  A    between atoms: N2_12  and  C9_13
REMARK                            x       y       z     vdW  Elec       q    Type
REMARK                         _______ _______ _______ _____ _____    ______ ____
ROOT
ATOM      1  C8  UNL     1       9.972  12.899  28.990  0.00  0.00    +0.220 C 
ATOM      2  O2  UNL     1       9.031  13.443  29.631  0.00  0.00    -0.275 OA
ATOM      3  N2  UNL     1      11.304  12.888  29.529  0.00  0.00    -0.285 N 
ATOM      4  H13 UNL     1      12.099  12.689  28.880  0.00  0.00    +0.155 HD
ENDROOT
BRANCH   3   5
ATOM      5  C9  UNL     1      11.621  13.226  30.890  0.00  0.00    +0.034 A 
ATOM      6  C10 UNL     1      12.109  14.500  31.183  0.00  0.00    +0.027 A 
ATOM      7  C11 UNL     1      12.442  14.842  32.490  0.00  0.00    +0.048 A 
ATOM      8  C12 UNL     1      12.317  13.922  33.539  0.00  0.00    +0.133 A 
ATOM      9  C13 UNL     1      11.838  12.606  33.257  0.00  0.00    +0.080 A 
ATOM     10  C14 UNL     1      11.511  12.282  31.923  0.00  0.00    +0.040 A 
ATOM     11  C15 UNL     1      11.686  11.519  34.266  0.00  0.00    +0.248 C 
ATOM     12  O3  UNL     1      11.876  10.325  33.903  0.00  0.00    -0.270 OA
ATOM     13  N3  UNL     1      11.270  11.751  35.617  0.00  0.00    -0.308 N 
ATOM     14  C16 UNL     1      11.306  13.055  36.255  0.00  0.00    +0.145 C 
ATOM     15  C17 UNL     1      12.672  13.682  36.033  0.00  0.00    +0.247 C 
ATOM     16  O4  UNL     1      12.692  14.397  34.807  0.00  0.00    -0.490 OA
ATOM     17  H17 UNL     1      11.051  10.922  36.215  0.00  0.00    +0.149 HD
ENDBRANCH   3   5
BRANCH   1  23
ATOM     18  C4  UNL     1       8.589  10.076  24.302  0.00  0.00    +0.218 C 
ATOM     19  O1  UNL     1       7.344   9.968  24.123  0.00  0.00    -0.275 OA
ATOM     20  N1  UNL     1       9.097  10.409  25.618  0.00  0.00    -0.301 N 
ATOM     21  C5  UNL     1      10.514  10.769  25.817  0.00  0.00    +0.108 C 
ATOM     22  C6  UNL     1      10.778  11.307  27.231  0.00  0.00    +0.032 C 
ATOM     23  C7  UNL     1       9.691  12.322  27.625  0.00  0.00    +0.078 C 
ATOM     24  C18 UNL     1       8.259  11.725  27.541  0.00  0.00    +0.032 C 
ATOM     25  C19 UNL     1       8.203  10.386  26.788  0.00  0.00    +0.108 C 
BRANCH  18  27
ATOM     26  C1  UNL     1       9.883   8.440  22.902  0.00  0.00    +0.017 C 
ATOM     27  C2  UNL     1       9.502   9.912  23.103  0.00  0.00    +0.069 C 
ATOM     28  C3  UNL     1       8.824  10.472  21.849  0.00  0.00    +0.017 C 
ENDBRANCH  18  27
ENDBRANCH   1  23
TORSDOF 3
ENDMDL
MODEL 5
REMARK VINA RESULT:    -6.086      4.075      5.027
REMARK INTER + INTRA:          -7.648
REMARK INTER:                  -7.170
REMARK INTRA:                  -0.479
REMARK UNBOUND:                -0.495
REMARK  Name = /home/qwerty/github/datacon2025hack/step_04_hit_selection/docking/ligands/lig_574.pdb
REMARK  5 active torsions:
REMARK  status: ('A' for Active; 'I' for Inactive)
REMARK    1  A    between atoms: C1_1  and  C2_2
REMARK    2  A    between atoms: C2_2  and  C3_3
REMARK    3  A    between atoms: C2_2  and  C4_4
REMARK    4  A    between atoms: C7_9  and  C8_10
REMARK    5  A    between atoms: N2_12  and  C9_13
REMARK                            x       y       z     vdW  Elec       q    Type
REMARK                         _______ _______ _______ _____ _____    ______ ____
ROOT
ATOM      1  C8  UNL     1      14.821  13.930  28.838  0.00  0.00    +0.220 C 
ATOM      2  O2  UNL     1      15.566  13.380  27.983  0.00  0.00    -0.275 OA
ATOM      3  N2  UNL     1      15.380  14.804  29.833  0.00  0.00    -0.285 N 
ATOM      4  H13 UNL     1      14.806  15.021  30.680  0.00  0.00    +0.155 HD
ENDROOT
BRANCH   3   5
ATOM      5  C9  UNL     1      16.720  15.324  29.781  0.00  0.00    +0.034 A 
ATOM      6  C10 UNL     1      16.957  16.541  29.141  0.00  0.00    +0.027 A 
ATOM      7  C11 UNL     1      18.248  17.053  29.060  0.00  0.00    +0.048 A 
ATOM      8  C12 UNL     1      19.342  16.361  29.598  0.00  0.00    +0.133 A 
ATOM      9  C13 UNL     1      19.122  15.104  30.240  0.00  0.00    +0.080 A 
ATOM     10  C14 UNL     1      17.804  14.604  30.305  0.00  0.00    +0.040 A 
ATOM     11  C15 UNL     1      20.193  14.247  30.825  0.00  0.00    +0.248 C 
ATOM     12  O3  UNL     1      20.053  12.993  30.788  0.00  0.00    -0.270 OA
ATOM     13  N3  UNL     1      21.348  14.773  31.491  0.00  0.00    -0.308 N 
ATOM     14  C16 UNL     1      21.795  16.148  31.356  0.00  0.00    +0.145 C 
ATOM     15  C17 UNL     1      21.852  16.512  29.881  0.00  0.00    +0.247 C 
ATOM     16  O4  UNL     1      20.589  16.989  29.442  0.00  0.00    -0.490 OA
ATOM     17  H17 UNL     1      21.973  14.105  31.996  0.00  0.00    +0.149 HD
ENDBRANCH   3   5
BRANCH   1  23
ATOM     18  C4  UNL     1       9.206  13.478  28.480  0.00  0.00    +0.218 C 
ATOM     19  O1  UNL     1       8.779  13.377  27.296  0.00  0.00    -0.275 OA
ATOM     20  N1  UNL     1      10.541  13.990  28.719  0.00  0.00    -0.301 N 
ATOM     21  C5  UNL     1      11.157  13.907  30.056  0.00  0.00    +0.108 C 
ATOM     22  C6  UNL     1      12.644  14.290  30.028  0.00  0.00    +0.032 C 
ATOM     23  C7  UNL     1      13.347  13.606  28.843  0.00  0.00    +0.078 C 
ATOM     24  C18 UNL     1      12.684  13.948  27.480  0.00  0.00    +0.032 C 
ATOM     25  C19 UNL     1      11.306  14.612  27.625  0.00  0.00    +0.108 C 
BRANCH  18  27
ATOM     26  C1  UNL     1       7.135  13.952  29.823  0.00  0.00    +0.017 C 
ATOM     27  C2  UNL     1       8.314  12.994  29.607  0.00  0.00    +0.069 C 
ATOM     28  C3  UNL     1       7.812  11.578  29.306  0.00  0.00    +0.017 C 
ENDBRANCH  18  27
ENDBRANCH   1  23
TORSDOF 3
ENDMDL
MODEL 6
REMARK VINA RESULT:    -6.085     14.353     15.668
REMARK INTER + INTRA:          -7.647
REMARK INTER:                  -7.201
REMARK INTRA:                  -0.445
REMARK UNBOUND:                -0.495
REMARK  Name = /home/qwerty/github/datacon2025hack/step_04_hit_selection/docking/ligands/lig_574.pdb
REMARK  5 active torsions:
REMARK  status: ('A' for Active; 'I' for Inactive)
REMARK    1  A    between atoms: C1_1  and  C2_2
REMARK    2  A    between atoms: C2_2  and  C3_3
REMARK    3  A    between atoms: C2_2  and  C4_4
REMARK    4  A    between atoms: C7_9  and  C8_10
REMARK    5  A    between atoms: N2_12  and  C9_13
REMARK                            x       y       z     vdW  Elec       q    Type
REMARK                         _______ _______ _______ _____ _____    ______ ____
ROOT
ATOM      1  C8  UNL     1      17.204   6.820  20.421  0.00  0.00    +0.220 C 
ATOM      2  O2  UNL     1      17.129   7.380  21.549  0.00  0.00    -0.275 OA
ATOM      3  N2  UNL     1      17.470   7.597  19.242  0.00  0.00    -0.285 N 
ATOM      4  H13 UNL     1      17.256   7.172  18.311  0.00  0.00    +0.155 HD
ENDROOT
BRANCH   3   5
ATOM      5  C9  UNL     1      17.925   8.961  19.266  0.00  0.00    +0.034 A 
ATOM      6  C10 UNL     1      16.988   9.994  19.320  0.00  0.00    +0.027 A 
ATOM      7  C11 UNL     1      17.405  11.321  19.324  0.00  0.00    +0.048 A 
ATOM      8  C12 UNL     1      18.764  11.659  19.256  0.00  0.00    +0.133 A 
ATOM      9  C13 UNL     1      19.736  10.617  19.180  0.00  0.00    +0.080 A 
ATOM     10  C14 UNL     1      19.288   9.279  19.173  0.00  0.00    +0.040 A 
ATOM     11  C15 UNL     1      21.209  10.831  19.070  0.00  0.00    +0.248 C 
ATOM     12  O3  UNL     1      21.894  10.000  18.411  0.00  0.00    -0.270 OA
ATOM     13  N3  UNL     1      21.901  11.897  19.730  0.00  0.00    -0.308 N 
ATOM     14  C16 UNL     1      21.240  13.076  20.260  0.00  0.00    +0.145 C 
ATOM     15  C17 UNL     1      20.320  13.653  19.197  0.00  0.00    +0.247 C 
ATOM     16  O4  UNL     1      19.044  13.036  19.262  0.00  0.00    -0.490 OA
ATOM     17  H17 UNL     1      22.946  11.889  19.717  0.00  0.00    +0.149 HD
ENDBRANCH   3   5
BRANCH   1  23
ATOM     18  C4  UNL     1      15.508   1.436  20.461  0.00  0.00    +0.218 C 
ATOM     19  O1  UNL     1      14.488   1.220  19.749  0.00  0.00    -0.275 OA
ATOM     20  N1  UNL     1      15.823   2.791  20.868  0.00  0.00    -0.301 N 
ATOM     21  C5  UNL     1      17.116   3.114  21.498  0.00  0.00    +0.108 C 
ATOM     22  C6  UNL     1      17.330   4.629  21.631  0.00  0.00    +0.032 C 
ATOM     23  C7  UNL     1      16.945   5.337  20.321  0.00  0.00    +0.078 C 
ATOM     24  C18 UNL     1      15.482   5.041  19.891  0.00  0.00    +0.032 C 
ATOM     25  C19 UNL     1      14.846   3.875  20.665  0.00  0.00    +0.108 C 
BRANCH  18  27
ATOM     26  C1  UNL     1      15.854  -0.502  22.022  0.00  0.00    +0.017 C 
ATOM     27  C2  UNL     1      16.401   0.262  20.809  0.00  0.00    +0.069 C 
ATOM     28  C3  UNL     1      16.537  -0.669  19.600  0.00  0.00    +0.017 C 
ENDBRANCH  18  27
ENDBRANCH   1  23
TORSDOF 3
ENDMDL
MODEL 7
REMARK VINA RESULT:    -6.026     13.392     16.838
REMARK INTER + INTRA:          -7.578
REMARK INTER:                  -7.093
REMARK INTRA:                  -0.485
REMARK UNBOUND:                -0.495
REMARK  Name = /home/qwerty/github/datacon2025hack/step_04_hit_selection/docking/ligands/lig_574.pdb
REMARK  5 active torsions:
REMARK  status: ('A' for Active; 'I' for Inactive)
REMARK    1  A    between atoms: C1_1  and  C2_2
REMARK    2  A    between atoms: C2_2  and  C3_3
REMARK    3  A    between atoms: C2_2  and  C4_4
REMARK    4  A    between atoms: C7_9  and  C8_10
REMARK    5  A    between atoms: N2_12  and  C9_13
REMARK                            x       y       z     vdW  Elec       q    Type
REMARK                         _______ _______ _______ _____ _____    ______ ____
ROOT
ATOM      1  C8  UNL     1      19.727   2.390  25.415  0.00  0.00    +0.220 C 
ATOM      2  O2  UNL     1      20.539   2.133  24.485  0.00  0.00    -0.275 OA
ATOM      3  N2  UNL     1      18.341   2.634  25.122  0.00  0.00    -0.285 N 
ATOM      4  H13 UNL     1      17.758   3.107  25.850  0.00  0.00    +0.155 HD
ENDROOT
BRANCH   3   5
ATOM      5  C9  UNL     1      17.729   2.352  23.853  0.00  0.00    +0.034 A 
ATOM      6  C10 UNL     1      17.580   3.380  22.921  0.00  0.00    +0.027 A 
ATOM      7  C11 UNL     1      16.971   3.135  21.694  0.00  0.00    +0.048 A 
ATOM      8  C12 UNL     1      16.477   1.865  21.367  0.00  0.00    +0.133 A 
ATOM      9  C13 UNL     1      16.601   0.805  22.315  0.00  0.00    +0.080 A 
ATOM     10  C14 UNL     1      17.219   1.079  23.553  0.00  0.00    +0.040 A 
ATOM     11  C15 UNL     1      16.093  -0.583  22.113  0.00  0.00    +0.248 C 
ATOM     12  O3  UNL     1      15.678  -1.228  23.117  0.00  0.00    -0.270 OA
ATOM     13  N3  UNL     1      16.112  -1.253  20.847  0.00  0.00    -0.308 N 
ATOM     14  C16 UNL     1      16.270  -0.566  19.578  0.00  0.00    +0.145 C 
ATOM     15  C17 UNL     1      15.299   0.601  19.518  0.00  0.00    +0.247 C 
ATOM     16  O4  UNL     1      15.882   1.758  20.098  0.00  0.00    -0.490 OA
ATOM     17  H17 UNL     1      15.872  -2.270  20.824  0.00  0.00    +0.149 HD
ENDBRANCH   3   5
BRANCH   1  23
ATOM     18  C4  UNL     1      21.863   1.983  30.624  0.00  0.00    +0.218 C 
ATOM     19  O1  UNL     1      23.110   1.787  30.648  0.00  0.00    -0.275 OA
ATOM     20  N1  UNL     1      21.119   1.718  29.409  0.00  0.00    -0.301 N 
ATOM     21  C5  UNL     1      19.716   2.150  29.268  0.00  0.00    +0.108 C 
ATOM     22  C6  UNL     1      19.203   1.978  27.831  0.00  0.00    +0.032 C 
ATOM     23  C7  UNL     1      20.245   2.502  26.828  0.00  0.00    +0.078 C 
ATOM     24  C18 UNL     1      21.626   1.809  26.987  0.00  0.00    +0.032 C 
ATOM     25  C19 UNL     1      21.754   1.003  28.289  0.00  0.00    +0.108 C 
BRANCH  18  27
ATOM     26  C1  UNL     1      20.576   1.441  32.713  0.00  0.00    +0.017 C 
ATOM     27  C2  UNL     1      21.205   2.555  31.865  0.00  0.00    +0.069 C 
ATOM     28  C3  UNL     1      22.229   3.346  32.684  0.00  0.00    +0.017 C 
ENDBRANCH  18  27
ENDBRANCH   1  23
TORSDOF 3
ENDMDL
MODEL 8
REMARK VINA RESULT:    -5.990     13.570     16.119
REMARK INTER + INTRA:          -7.535
REMARK INTER:                  -7.064
REMARK INTRA:                  -0.471
REMARK UNBOUND:                -0.495
REMARK  Name = /home/qwerty/github/datacon2025hack/step_04_hit_selection/docking/ligands/lig_574.pdb
REMARK  5 active torsions:
REMARK  status: ('A' for Active; 'I' for Inactive)
REMARK    1  A    between atoms: C1_1  and  C2_2
REMARK    2  A    between atoms: C2_2  and  C3_3
REMARK    3  A    between atoms: C2_2  and  C4_4
REMARK    4  A    between atoms: C7_9  and  C8_10
REMARK    5  A    between atoms: N2_12  and  C9_13
REMARK                            x       y       z     vdW  Elec       q    Type
REMARK                         _______ _______ _______ _____ _____    ______ ____
ROOT
ATOM      1  C8  UNL     1      20.967   4.878  23.914  0.00  0.00    +0.220 C 
ATOM      2  O2  UNL     1      20.219   5.850  24.208  0.00  0.00    -0.275 OA
ATOM      3  N2  UNL     1      21.535   4.771  22.598  0.00  0.00    -0.285 N 
ATOM      4  H13 UNL     1      21.910   3.844  22.295  0.00  0.00    +0.155 HD
ENDROOT
BRANCH   3   5
ATOM      5  C9  UNL     1      21.533   5.839  21.636  0.00  0.00    +0.034 A 
ATOM      6  C10 UNL     1      20.542   5.875  20.654  0.00  0.00    +0.027 A 
ATOM      7  C11 UNL     1      20.533   6.887  19.700  0.00  0.00    +0.048 A 
ATOM      8  C12 UNL     1      21.520   7.882  19.683  0.00  0.00    +0.133 A 
ATOM      9  C13 UNL     1      22.554   7.852  20.667  0.00  0.00    +0.080 A 
ATOM     10  C14 UNL     1      22.544   6.813  21.622  0.00  0.00    +0.040 A 
ATOM     11  C15 UNL     1      23.682   8.825  20.749  0.00  0.00    +0.248 C 
ATOM     12  O3  UNL     1      24.802   8.419  21.167  0.00  0.00    -0.270 OA
ATOM     13  N3  UNL     1      23.546  10.217  20.439  0.00  0.00    -0.308 N 
ATOM     14  C16 UNL     1      22.438  10.764  19.676  0.00  0.00    +0.145 C 
ATOM     15  C17 UNL     1      22.249   9.944  18.411  0.00  0.00    +0.247 C 
ATOM     16  O4  UNL     1      21.394   8.840  18.663  0.00  0.00    -0.490 OA
ATOM     17  H17 UNL     1      24.346  10.852  20.661  0.00  0.00    +0.149 HD
ENDBRANCH   3   5
BRANCH   1  23
ATOM     18  C4  UNL     1      21.382   1.328  28.282  0.00  0.00    +0.218 C 
ATOM     19  O1  UNL     1      20.286   0.790  28.606  0.00  0.00    -0.275 OA
ATOM     20  N1  UNL     1      21.379   2.528  27.470  0.00  0.00    -0.301 N 
ATOM     21  C5  UNL     1      22.626   3.050  26.882  0.00  0.00    +0.108 C 
ATOM     22  C6  UNL     1      22.360   4.181  25.878  0.00  0.00    +0.032 C 
ATOM     23  C7  UNL     1      21.201   3.798  24.941  0.00  0.00    +0.078 C 
ATOM     24  C18 UNL     1      19.898   3.455  25.715  0.00  0.00    +0.032 C 
ATOM     25  C19 UNL     1      20.122   3.255  27.222  0.00  0.00    +0.108 C 
BRANCH  18  27
ATOM     26  C1  UNL     1      23.196   1.251  30.020  0.00  0.00    +0.017 C 
ATOM     27  C2  UNL     1      22.668   0.647  28.711  0.00  0.00    +0.069 C 
ATOM     28  C3  UNL     1      22.437  -0.859  28.865  0.00  0.00    +0.017 C 
ENDBRANCH  18  27
ENDBRANCH   1  23
TORSDOF 3
ENDMDL
MODEL 9
REMARK VINA RESULT:    -5.958      4.290      6.307
REMARK INTER + INTRA:          -7.497
REMARK INTER:                  -7.023
REMARK INTRA:                  -0.474
REMARK UNBOUND:                -0.495
REMARK  Name = /home/qwerty/github/datacon2025hack/step_04_hit_selection/docking/ligands/lig_574.pdb
REMARK  5 active torsions:
REMARK  status: ('A' for Active; 'I' for Inactive)
REMARK    1  A    between atoms: C1_1  and  C2_2
REMARK    2  A    between atoms: C2_2  and  C3_3
REMARK    3  A    between atoms: C2_2  and  C4_4
REMARK    4  A    between atoms: C7_9  and  C8_10
REMARK    5  A    between atoms: N2_12  and  C9_13
REMARK                            x       y       z     vdW  Elec       q    Type
REMARK                         _______ _______ _______ _____ _____    ______ ____
ROOT
ATOM      1  C8  UNL     1      16.602   9.701  35.839  0.00  0.00    +0.220 C 
ATOM      2  O2  UNL     1      16.349   8.471  35.723  0.00  0.00    -0.275 OA
ATOM      3  N2  UNL     1      17.903  10.136  36.270  0.00  0.00    -0.285 N 
ATOM      4  H13 UNL     1      18.005  11.116  36.621  0.00  0.00    +0.155 HD
ENDROOT
BRANCH   3   5
ATOM      5  C9  UNL     1      19.054   9.277  36.338  0.00  0.00    +0.034 A 
ATOM      6  C10 UNL     1      19.281   8.527  37.492  0.00  0.00    +0.027 A 
ATOM      7  C11 UNL     1      20.400   7.705  37.588  0.00  0.00    +0.048 A 
ATOM      8  C12 UNL     1      21.333   7.620  36.546  0.00  0.00    +0.133 A 
ATOM      9  C13 UNL     1      21.129   8.395  35.365  0.00  0.00    +0.080 A 
ATOM     10  C14 UNL     1      19.989   9.224  35.294  0.00  0.00    +0.040 A 
ATOM     11  C15 UNL     1      22.054   8.427  34.195  0.00  0.00    +0.248 C 
ATOM     12  O3  UNL     1      22.166   9.502  33.541  0.00  0.00    -0.270 OA
ATOM     13  N3  UNL     1      22.777   7.281  33.731  0.00  0.00    -0.308 N 
ATOM     14  C16 UNL     1      22.986   6.086  34.530  0.00  0.00    +0.145 C 
ATOM     15  C17 UNL     1      23.502   6.487  35.902  0.00  0.00    +0.247 C 
ATOM     16  O4  UNL     1      22.417   6.757  36.777  0.00  0.00    -0.490 OA
ATOM     17  H17 UNL     1      23.288   7.355  32.822  0.00  0.00    +0.149 HD
ENDBRANCH   3   5
BRANCH   1  23
ATOM     18  C4  UNL     1      12.594  13.673  35.701  0.00  0.00    +0.218 C 
ATOM     19  O1  UNL     1      13.039  14.848  35.824  0.00  0.00    -0.275 OA
ATOM     20  N1  UNL     1      13.416  12.549  36.105  0.00  0.00    -0.301 N 
ATOM     21  C5  UNL     1      13.031  11.166  35.767  0.00  0.00    +0.108 C 
ATOM     22  C6  UNL     1      14.151  10.164  36.083  0.00  0.00    +0.032 C 
ATOM     23  C7  UNL     1      15.503  10.702  35.584  0.00  0.00    +0.078 C 
ATOM     24  C18 UNL     1      15.848  12.094  36.183  0.00  0.00    +0.032 C 
ATOM     25  C19 UNL     1      14.654  12.771  36.872  0.00  0.00    +0.108 C 
BRANCH  18  27
ATOM     26  C1  UNL     1      10.121  14.005  35.996  0.00  0.00    +0.017 C 
ATOM     27  C2  UNL     1      11.228  13.486  35.069  0.00  0.00    +0.069 C 
ATOM     28  C3  UNL     1      11.177  14.198  33.713  0.00  0.00    +0.017 C 
ENDBRANCH  18  27
ENDBRANCH   1  23
TORSDOF 3
ENDMDL
