REMARK  Name = /home/qwerty/github/datacon2025hack/step_04_hit_selection/docking/ligands/lig_597.pdb
REMARK  6 active torsions:
REMARK  status: ('A' for Active; 'I' for Inactive)
REMARK    1  A    between atoms: C1_1  and  O1_2
REMARK    2  A    between atoms: O1_2  and  C2_3
REMARK    3  A    between atoms: C6_7  and  C7_8
REMARK    4  A    between atoms: N1_10  and  C8_11
REMARK    5  A    between atoms: C19_24  and  O5_25
REMARK    6  A    between atoms: C24_31  and  O7_32
REMARK                            x       y       z     vdW  Elec       q    Type
REMARK                         _______ _______ _______ _____ _____    ______ ____
ROOT
ATOM      1  C8  UNL     1       0.597  -0.735   0.817  0.00  0.00    +0.034 A 
ATOM      2  C9  UNL     1       0.759  -1.672   1.870  0.00  0.00    +0.024 A 
ATOM      3  C10 UNL     1      -0.359  -2.233   2.508  0.00  0.00    +0.017 A 
ATOM      4  C11 UNL     1      -1.623  -1.851   2.068  0.00  0.00    +0.067 A 
ATOM      5  C12 UNL     1      -1.800  -0.960   1.037  0.00  0.00    +0.021 A 
ATOM      6  C13 UNL     1      -0.702  -0.391   0.388  0.00  0.00    +0.032 A 
ATOM      7  C14 UNL     1      -3.274  -0.747   0.771  0.00  0.00    +0.196 C 
ATOM      8  O3  UNL     1      -3.899  -1.599   1.745  0.00  0.00    -0.440 OA
ATOM      9  C15 UNL     1      -2.935  -2.248   2.507  0.00  0.00    +0.341 C 
ATOM     10  O4  UNL     1      -3.192  -3.059   3.435  0.00  0.00    -0.245 OA
ATOM     11  C16 UNL     1      -3.649   0.702   1.039  0.00  0.00    +0.047 A 
ATOM     12  C17 UNL     1      -3.516   1.243   2.332  0.00  0.00    +0.015 A 
ATOM     13  C18 UNL     1      -3.810   2.587   2.573  0.00  0.00    +0.046 A 
ATOM     14  C19 UNL     1      -4.235   3.413   1.526  0.00  0.00    +0.120 A 
ATOM     15  C20 UNL     1      -4.368   2.886   0.238  0.00  0.00    +0.092 A 
ATOM     16  C21 UNL     1      -4.082   1.539  -0.009  0.00  0.00    +0.140 A 
ATOM     17  O6  UNL     1      -4.243   1.038  -1.301  0.00  0.00    -0.455 OA
ATOM     18  C22 UNL     1      -4.060  -0.310  -1.611  0.00  0.00    +0.140 A 
ATOM     19  C23 UNL     1      -4.324  -0.749  -2.913  0.00  0.00    +0.092 A 
ATOM     20  C24 UNL     1      -4.168  -2.096  -3.251  0.00  0.00    +0.120 A 
ATOM     21  C25 UNL     1      -3.742  -3.010  -2.280  0.00  0.00    +0.046 A 
ATOM     22  C26 UNL     1      -3.470  -2.577  -0.980  0.00  0.00    +0.015 A 
ATOM     23  C27 UNL     1      -3.626  -1.223  -0.630  0.00  0.00    +0.047 A 
ENDROOT
BRANCH   1  26
ATOM     24  C7  UNL     1       2.998   0.079   0.773  0.00  0.00    +0.248 C 
ATOM     25  O2  UNL     1       3.054   0.201   2.028  0.00  0.00    -0.270 OA
ATOM     26  N1  UNL     1       1.732  -0.170   0.139  0.00  0.00    -0.281 N 
ATOM     27  H7  UNL     1       1.592   0.183  -0.835  0.00  0.00    +0.155 HD
BRANCH  24  32
ATOM     28  C2  UNL     1       6.533   1.046  -0.223  0.00  0.00    +0.121 A 
ATOM     29  C3  UNL     1       6.585   0.559  -1.542  0.00  0.00    +0.045 A 
ATOM     30  C4  UNL     1       5.476  -0.083  -2.096  0.00  0.00    +0.004 A 
ATOM     31  C5  UNL     1       4.307  -0.242  -1.349  0.00  0.00    +0.013 A 
ATOM     32  C6  UNL     1       4.232   0.248  -0.033  0.00  0.00    +0.040 A 
ATOM     33  C28 UNL     1       5.358   0.884   0.522  0.00  0.00    +0.058 A 
BRANCH  28  35
ATOM     34  C1  UNL     1       8.873   1.928  -0.254  0.00  0.00    +0.277 C 
ATOM     35  O1  UNL     1       7.621   1.695   0.382  0.00  0.00    -0.495 OA
ENDBRANCH  28  35
ENDBRANCH  24  32
ENDBRANCH   1  26
BRANCH  14  36
ATOM     36  O5  UNL     1      -4.527   4.756   1.753  0.00  0.00    -0.507 OA
ATOM     37  H13 UNL     1      -4.441   5.168   2.675  0.00  0.00    +0.292 HD
ENDBRANCH  14  36
BRANCH  20  38
ATOM     38  O7  UNL     1      -4.438  -2.515  -4.551  0.00  0.00    -0.507 OA
ATOM     39  H16 UNL     1      -4.334  -3.485  -4.828  0.00  0.00    +0.292 HD
ENDBRANCH  20  38
TORSDOF 5
