MODEL 1
REMARK VINA RESULT:    -8.589      0.000      0.000
REMARK INTER + INTRA:         -11.958
REMARK INTER:                 -11.099
REMARK INTRA:                  -0.859
REMARK UNBOUND:                -0.859
REMARK  Name = /home/qwerty/github/datacon2025hack/step_04_hit_selection/docking/ligands/lig_361.pdb
REMARK  9 active torsions:
REMARK  status: ('A' for Active; 'I' for Inactive)
REMARK    1  A    between atoms: C1_1  and  N1_2
REMARK    2  A    between atoms: C3_4  and  C4_5
REMARK    3  A    between atoms: C8_11  and  C9_12
REMARK    4  A    between atoms: C13_18  and  C14_19
REMARK    5  A    between atoms: C17_23  and  N7_24
REMARK    6  A    between atoms: N7_24  and  C18_25
REMARK    7  A    between atoms: C18_25  and  C19_26
REMARK    8  A    between atoms: C18_25  and  C20_27
REMARK    9  A    between atoms: C18_25  and  C21_28
REMARK                            x       y       z     vdW  Elec       q    Type
REMARK                         _______ _______ _______ _____ _____    ______ ____
ROOT
ATOM      1  C9  UNL     1      12.342   3.254  20.585  0.00  0.00    +0.122 A 
ATOM      2  N4  UNL     1      12.560   4.194  19.632  0.00  0.00    -0.171 NA
ATOM      3  N5  UNL     1      13.812   4.078  19.209  0.00  0.00    -0.276 N 
ATOM      4  C10 UNL     1      14.397   3.072  19.878  0.00  0.00    +0.066 A 
ATOM      5  C11 UNL     1      15.699   2.601  19.754  0.00  0.00    +0.028 A 
ATOM      6  C12 UNL     1      16.083   1.520  20.568  0.00  0.00    +0.010 A 
ATOM      7  C13 UNL     1      15.167   0.934  21.485  0.00  0.00    -0.016 A 
ATOM      8  C23 UNL     1      13.851   1.451  21.578  0.00  0.00    +0.020 A 
ATOM      9  C24 UNL     1      13.506   2.524  20.756  0.00  0.00    +0.030 A 
ATOM     10  H8  UNL     1      14.248   4.680  18.475  0.00  0.00    +0.189 HD
ENDROOT
BRANCH   1  17
ATOM     11  C4  UNL     1       9.072   6.151  21.727  0.00  0.00    +0.075 A 
ATOM     12  C5  UNL     1       7.989   5.533  22.417  0.00  0.00    +0.030 A 
ATOM     13  C6  UNL     1       8.015   4.149  22.677  0.00  0.00    +0.031 A 
ATOM     14  C7  UNL     1       9.126   3.443  22.235  0.00  0.00    +0.085 A 
ATOM     15  N2  UNL     1       9.403   2.134  22.342  0.00  0.00    -0.275 N 
ATOM     16  N3  UNL     1      10.582   1.906  21.766  0.00  0.00    -0.169 NA
ATOM     17  C8  UNL     1      11.060   3.083  21.287  0.00  0.00    +0.139 A 
ATOM     18  C25 UNL     1      10.140   4.064  21.583  0.00  0.00    +0.118 A 
ATOM     19  N8  UNL     1      10.139   5.393  21.319  0.00  0.00    -0.243 NA
ATOM     20  H7  UNL     1       8.811   1.403  22.792  0.00  0.00    +0.189 HD
BRANCH  11  24
ATOM     21  C1  UNL     1       7.907  11.023  21.574  0.00  0.00    +0.172 C 
ATOM     22  N1  UNL     1       8.585   9.749  21.381  0.00  0.00    -0.274 N 
ATOM     23  C2  UNL     1       8.212   8.570  21.913  0.00  0.00    +0.118 A 
ATOM     24  C3  UNL     1       9.072   7.598  21.437  0.00  0.00    +0.038 A 
ATOM     25  C26 UNL     1       9.945   8.272  20.599  0.00  0.00    +0.144 A 
ATOM     26  N9  UNL     1       9.622   9.580  20.576  0.00  0.00    -0.179 NA
ENDBRANCH  11  24
ENDBRANCH   1  17
BRANCH   7  27
ATOM     27  C14 UNL     1      15.584  -0.210  22.334  0.00  0.00    +0.002 A 
ATOM     28  C15 UNL     1      16.774  -0.905  22.069  0.00  0.00    +0.119 A 
ATOM     29  N6  UNL     1      17.154  -1.940  22.862  0.00  0.00    -0.261 NA
ATOM     30  C16 UNL     1      16.405  -2.352  23.916  0.00  0.00    +0.133 A 
ATOM     31  C17 UNL     1      15.192  -1.711  24.216  0.00  0.00    +0.046 A 
ATOM     32  C22 UNL     1      14.802  -0.623  23.423  0.00  0.00    +0.034 A 
BRANCH  31  33
ATOM     33  N7  UNL     1      14.372  -2.092  25.339  0.00  0.00    -0.338 N 
ATOM     34  H13 UNL     1      13.993  -3.068  25.303  0.00  0.00    +0.147 HD
BRANCH  33  35
ATOM     35  C18 UNL     1      14.250  -1.367  26.624  0.00  0.00    +0.024 C 
ATOM     36  C19 UNL     1      13.860  -2.379  27.724  0.00  0.00    +0.031 C 
ATOM     37  C20 UNL     1      15.586  -0.711  27.032  0.00  0.00    +0.031 C 
ATOM     38  C21 UNL     1      13.135  -0.309  26.528  0.00  0.00    +0.031 C 
ENDBRANCH  33  35
ENDBRANCH  31  33
ENDBRANCH   7  27
TORSDOF 5
ENDMDL
MODEL 2
REMARK VINA RESULT:    -8.355      3.968      6.410
REMARK INTER + INTRA:         -11.657
REMARK INTER:                 -10.672
REMARK INTRA:                  -0.984
REMARK UNBOUND:                -0.859
REMARK  Name = /home/qwerty/github/datacon2025hack/step_04_hit_selection/docking/ligands/lig_361.pdb
REMARK  9 active torsions:
REMARK  status: ('A' for Active; 'I' for Inactive)
REMARK    1  A    between atoms: C1_1  and  N1_2
REMARK    2  A    between atoms: C3_4  and  C4_5
REMARK    3  A    between atoms: C8_11  and  C9_12
REMARK    4  A    between atoms: C13_18  and  C14_19
REMARK    5  A    between atoms: C17_23  and  N7_24
REMARK    6  A    between atoms: N7_24  and  C18_25
REMARK    7  A    between atoms: C18_25  and  C19_26
REMARK    8  A    between atoms: C18_25  and  C20_27
REMARK    9  A    between atoms: C18_25  and  C21_28
REMARK                            x       y       z     vdW  Elec       q    Type
REMARK                         _______ _______ _______ _____ _____    ______ ____
ROOT
ATOM      1  C9  UNL     1      15.752   0.226  22.076  0.00  0.00    +0.122 A 
ATOM      2  N4  UNL     1      14.924  -0.845  22.135  0.00  0.00    -0.171 NA
ATOM      3  N5  UNL     1      15.346  -1.647  23.105  0.00  0.00    -0.276 N 
ATOM      4  C10 UNL     1      16.433  -1.098  23.669  0.00  0.00    +0.066 A 
ATOM      5  C11 UNL     1      17.197  -1.592  24.721  0.00  0.00    +0.028 A 
ATOM      6  C12 UNL     1      18.298  -0.826  25.145  0.00  0.00    +0.010 A 
ATOM      7  C13 UNL     1      18.614   0.410  24.515  0.00  0.00    -0.016 A 
ATOM      8  C23 UNL     1      17.808   0.871  23.445  0.00  0.00    +0.020 A 
ATOM      9  C24 UNL     1      16.725   0.085  23.052  0.00  0.00    +0.030 A 
ATOM     10  H8  UNL     1      14.890  -2.549  23.369  0.00  0.00    +0.189 HD
ENDROOT
BRANCH   1  17
ATOM     11  C4  UNL     1      12.303   2.976  21.116  0.00  0.00    +0.075 A 
ATOM     12  C5  UNL     1      12.602   3.916  20.087  0.00  0.00    +0.030 A 
ATOM     13  C6  UNL     1      13.872   3.918  19.481  0.00  0.00    +0.031 A 
ATOM     14  C7  UNL     1      14.790   2.979  19.931  0.00  0.00    +0.085 A 
ATOM     15  N2  UNL     1      16.056   2.767  19.539  0.00  0.00    -0.275 N 
ATOM     16  N3  UNL     1      16.555   1.761  20.256  0.00  0.00    -0.169 NA
ATOM     17  C8  UNL     1      15.595   1.329  21.114  0.00  0.00    +0.139 A 
ATOM     18  C25 UNL     1      14.471   2.098  20.912  0.00  0.00    +0.118 A 
ATOM     19  N8  UNL     1      13.256   2.075  21.512  0.00  0.00    -0.243 NA
ATOM     20  H7  UNL     1      16.581   3.288  18.803  0.00  0.00    +0.189 HD
BRANCH  11  24
ATOM     21  C1  UNL     1       7.677   4.140  22.656  0.00  0.00    +0.172 C 
ATOM     22  N1  UNL     1       8.935   3.439  22.439  0.00  0.00    -0.274 N 
ATOM     23  C2  UNL     1       9.947   3.863  21.659  0.00  0.00    +0.118 A 
ATOM     24  C3  UNL     1      10.981   2.952  21.772  0.00  0.00    +0.038 A 
ATOM     25  C26 UNL     1      10.518   1.995  22.662  0.00  0.00    +0.144 A 
ATOM     26  N9  UNL     1       9.273   2.319  23.058  0.00  0.00    -0.179 NA
ENDBRANCH  11  24
ENDBRANCH   1  17
BRANCH   7  27
ATOM     27  C14 UNL     1      19.775   1.211  24.977  0.00  0.00    +0.002 A 
ATOM     28  C15 UNL     1      20.317   2.224  24.171  0.00  0.00    +0.119 A 
ATOM     29  N6  UNL     1      21.370   2.960  24.611  0.00  0.00    -0.261 NA
ATOM     30  C16 UNL     1      21.945   2.742  25.821  0.00  0.00    +0.133 A 
ATOM     31  C17 UNL     1      21.463   1.727  26.662  0.00  0.00    +0.046 A 
ATOM     32  C22 UNL     1      20.359   0.977  26.232  0.00  0.00    +0.034 A 
BRANCH  31  33
ATOM     33  N7  UNL     1      22.020   1.471  27.967  0.00  0.00    -0.338 N 
ATOM     34  H13 UNL     1      22.997   1.093  27.968  0.00  0.00    +0.147 HD
BRANCH  33  35
ATOM     35  C18 UNL     1      21.476   1.938  29.262  0.00  0.00    +0.024 C 
ATOM     36  C19 UNL     1      22.566   1.767  30.343  0.00  0.00    +0.031 C 
ATOM     37  C20 UNL     1      21.090   3.432  29.207  0.00  0.00    +0.031 C 
ATOM     38  C21 UNL     1      20.263   1.080  29.664  0.00  0.00    +0.031 C 
ENDBRANCH  33  35
ENDBRANCH  31  33
ENDBRANCH   7  27
TORSDOF 5
ENDMDL
MODEL 3
REMARK VINA RESULT:    -8.267      3.853     10.141
REMARK INTER + INTRA:         -11.543
REMARK INTER:                 -10.539
REMARK INTRA:                  -1.004
REMARK UNBOUND:                -0.859
REMARK  Name = /home/qwerty/github/datacon2025hack/step_04_hit_selection/docking/ligands/lig_361.pdb
REMARK  9 active torsions:
REMARK  status: ('A' for Active; 'I' for Inactive)
REMARK    1  A    between atoms: C1_1  and  N1_2
REMARK    2  A    between atoms: C3_4  and  C4_5
REMARK    3  A    between atoms: C8_11  and  C9_12
REMARK    4  A    between atoms: C13_18  and  C14_19
REMARK    5  A    between atoms: C17_23  and  N7_24
REMARK    6  A    between atoms: N7_24  and  C18_25
REMARK    7  A    between atoms: C18_25  and  C19_26
REMARK    8  A    between atoms: C18_25  and  C20_27
REMARK    9  A    between atoms: C18_25  and  C21_28
REMARK                            x       y       z     vdW  Elec       q    Type
REMARK                         _______ _______ _______ _____ _____    ______ ____
ROOT
ATOM      1  C9  UNL     1       9.298   6.335  21.568  0.00  0.00    +0.122 A 
ATOM      2  N4  UNL     1       9.626   6.592  20.278  0.00  0.00    -0.171 NA
ATOM      3  N5  UNL     1       9.795   7.901  20.143  0.00  0.00    -0.276 N 
ATOM      4  C10 UNL     1       9.583   8.483  21.333  0.00  0.00    +0.066 A 
ATOM      5  C11 UNL     1       9.655   9.835  21.653  0.00  0.00    +0.028 A 
ATOM      6  C12 UNL     1       9.394  10.206  22.984  0.00  0.00    +0.010 A 
ATOM      7  C13 UNL     1       9.067   9.228  23.964  0.00  0.00    -0.016 A 
ATOM      8  C23 UNL     1       9.003   7.864  23.590  0.00  0.00    +0.020 A 
ATOM      9  C24 UNL     1       9.267   7.533  22.261  0.00  0.00    +0.030 A 
ATOM     10  H8  UNL     1      10.053   8.376  19.248  0.00  0.00    +0.189 HD
ENDROOT
BRANCH   1  17
ATOM     11  C4  UNL     1      11.692   2.507  21.511  0.00  0.00    +0.075 A 
ATOM     12  C5  UNL     1      11.028   1.418  22.147  0.00  0.00    +0.030 A 
ATOM     13  C6  UNL     1       9.751   1.603  22.712  0.00  0.00    +0.031 A 
ATOM     14  C7  UNL     1       9.194   2.871  22.616  0.00  0.00    +0.085 A 
ATOM     15  N2  UNL     1       8.012   3.320  23.066  0.00  0.00    -0.275 N 
ATOM     16  N3  UNL     1       7.905   4.610  22.749  0.00  0.00    -0.169 NA
ATOM     17  C8  UNL     1       9.031   4.984  22.090  0.00  0.00    +0.139 A 
ATOM     18  C25 UNL     1       9.854   3.884  22.001  0.00  0.00    +0.118 A 
ATOM     19  N8  UNL     1      11.083   3.733  21.450  0.00  0.00    -0.243 NA
ATOM     20  H7  UNL     1       7.287   2.773  23.579  0.00  0.00    +0.189 HD
BRANCH  11  24
ATOM     21  C1  UNL     1      16.109   0.647  20.045  0.00  0.00    +0.172 C 
ATOM     22  N1  UNL     1      14.969   1.531  20.240  0.00  0.00    -0.274 N 
ATOM     23  C2  UNL     1      13.833   1.218  20.890  0.00  0.00    +0.118 A 
ATOM     24  C3  UNL     1      13.032   2.344  20.913  0.00  0.00    +0.038 A 
ATOM     25  C26 UNL     1      13.767   3.319  20.258  0.00  0.00    +0.144 A 
ATOM     26  N9  UNL     1      14.946   2.800  19.864  0.00  0.00    -0.179 NA
ENDBRANCH  11  24
ENDBRANCH   1  17
BRANCH   7  27
ATOM     27  C14 UNL     1       8.799   9.635  25.367  0.00  0.00    +0.002 A 
ATOM     28  C15 UNL     1       7.725   9.085  26.082  0.00  0.00    +0.119 A 
ATOM     29  N6  UNL     1       7.499   9.453  27.370  0.00  0.00    -0.261 NA
ATOM     30  C16 UNL     1       8.279  10.364  28.006  0.00  0.00    +0.133 A 
ATOM     31  C17 UNL     1       9.354  10.966  27.334  0.00  0.00    +0.046 A 
ATOM     32  C22 UNL     1       9.616  10.576  26.013  0.00  0.00    +0.034 A 
BRANCH  31  33
ATOM     33  N7  UNL     1      10.229  11.920  27.970  0.00  0.00    -0.338 N 
ATOM     34  H13 UNL     1      11.239  11.645  28.005  0.00  0.00    +0.147 HD
BRANCH  33  35
ATOM     35  C18 UNL     1       9.899  13.322  28.314  0.00  0.00    +0.024 C 
ATOM     36  C19 UNL     1      10.998  14.241  27.737  0.00  0.00    +0.031 C 
ATOM     37  C20 UNL     1       8.549  13.751  27.701  0.00  0.00    +0.031 C 
ATOM     38  C21 UNL     1       9.880  13.499  29.844  0.00  0.00    +0.031 C 
ENDBRANCH  33  35
ENDBRANCH  31  33
ENDBRANCH   7  27
TORSDOF 5
ENDMDL
MODEL 4
REMARK VINA RESULT:    -8.211     12.059     16.423
REMARK INTER + INTRA:         -11.470
REMARK INTER:                 -10.457
REMARK INTRA:                  -1.013
REMARK UNBOUND:                -0.859
REMARK  Name = /home/qwerty/github/datacon2025hack/step_04_hit_selection/docking/ligands/lig_361.pdb
REMARK  9 active torsions:
REMARK  status: ('A' for Active; 'I' for Inactive)
REMARK    1  A    between atoms: C1_1  and  N1_2
REMARK    2  A    between atoms: C3_4  and  C4_5
REMARK    3  A    between atoms: C8_11  and  C9_12
REMARK    4  A    between atoms: C13_18  and  C14_19
REMARK    5  A    between atoms: C17_23  and  N7_24
REMARK    6  A    between atoms: N7_24  and  C18_25
REMARK    7  A    between atoms: C18_25  and  C19_26
REMARK    8  A    between atoms: C18_25  and  C20_27
REMARK    9  A    between atoms: C18_25  and  C21_28
REMARK                            x       y       z     vdW  Elec       q    Type
REMARK                         _______ _______ _______ _____ _____    ______ ____
ROOT
ATOM      1  C9  UNL     1      22.615   4.417  33.244  0.00  0.00    +0.122 A 
ATOM      2  N4  UNL     1      23.781   4.548  32.566  0.00  0.00    -0.171 NA
ATOM      3  N5  UNL     1      24.269   5.759  32.805  0.00  0.00    -0.276 N 
ATOM      4  C10 UNL     1      23.429   6.402  33.631  0.00  0.00    +0.066 A 
ATOM      5  C11 UNL     1      23.547   7.689  34.144  0.00  0.00    +0.028 A 
ATOM      6  C12 UNL     1      22.532   8.145  35.004  0.00  0.00    +0.010 A 
ATOM      7  C13 UNL     1      21.425   7.314  35.334  0.00  0.00    -0.016 A 
ATOM      8  C23 UNL     1      21.347   6.010  34.784  0.00  0.00    +0.020 A 
ATOM      9  C24 UNL     1      22.372   5.593  33.934  0.00  0.00    +0.030 A 
ATOM     10  H8  UNL     1      25.162   6.128  32.407  0.00  0.00    +0.189 HD
ENDROOT
BRANCH   1  17
ATOM     11  C4  UNL     1      21.123   1.813  29.871  0.00  0.00    +0.075 A 
ATOM     12  C5  UNL     1      20.328   0.716  30.316  0.00  0.00    +0.030 A 
ATOM     13  C6  UNL     1      20.081   0.536  31.690  0.00  0.00    +0.031 A 
ATOM     14  C7  UNL     1      20.640   1.462  32.561  0.00  0.00    +0.085 A 
ATOM     15  N2  UNL     1      20.570   1.524  33.900  0.00  0.00    -0.275 N 
ATOM     16  N3  UNL     1      21.266   2.583  34.308  0.00  0.00    -0.169 NA
ATOM     17  C8  UNL     1      21.785   3.202  33.216  0.00  0.00    +0.139 A 
ATOM     18  C25 UNL     1      21.389   2.495  32.102  0.00  0.00    +0.118 A 
ATOM     19  N8  UNL     1      21.643   2.691  30.786  0.00  0.00    -0.243 NA
ATOM     20  H7  UNL     1      20.065   0.866  34.533  0.00  0.00    +0.189 HD
BRANCH  11  24
ATOM     21  C1  UNL     1      22.733   3.700  25.516  0.00  0.00    +0.172 C 
ATOM     22  N1  UNL     1      22.125   2.833  26.515  0.00  0.00    -0.274 N 
ATOM     23  C2  UNL     1      22.141   3.034  27.846  0.00  0.00    +0.118 A 
ATOM     24  C3  UNL     1      21.402   2.027  28.437  0.00  0.00    +0.038 A 
ATOM     25  C26 UNL     1      20.952   1.248  27.384  0.00  0.00    +0.144 A 
ATOM     26  N9  UNL     1      21.400   1.765  26.223  0.00  0.00    -0.179 NA
ENDBRANCH  11  24
ENDBRANCH   1  17
BRANCH   7  27
ATOM     27  C14 UNL     1      20.364   7.806  36.247  0.00  0.00    +0.002 A 
ATOM     28  C15 UNL     1      19.669   6.921  37.085  0.00  0.00    +0.119 A 
ATOM     29  N6  UNL     1      18.711   7.386  37.929  0.00  0.00    -0.261 NA
ATOM     30  C16 UNL     1      18.378   8.701  37.986  0.00  0.00    +0.133 A 
ATOM     31  C17 UNL     1      19.022   9.630  37.154  0.00  0.00    +0.046 A 
ATOM     32  C22 UNL     1      20.032   9.169  36.298  0.00  0.00    +0.034 A 
BRANCH  31  33
ATOM     33  N7  UNL     1      18.724  11.041  37.193  0.00  0.00    -0.338 N 
ATOM     34  H13 UNL     1      19.271  11.592  37.896  0.00  0.00    +0.147 HD
BRANCH  33  35
ATOM     35  C18 UNL     1      17.957  11.805  36.185  0.00  0.00    +0.024 C 
ATOM     36  C19 UNL     1      18.942  12.672  35.371  0.00  0.00    +0.031 C 
ATOM     37  C20 UNL     1      17.223  10.867  35.202  0.00  0.00    +0.031 C 
ATOM     38  C21 UNL     1      16.956  12.744  36.884  0.00  0.00    +0.031 C 
ENDBRANCH  33  35
ENDBRANCH  31  33
ENDBRANCH   7  27
TORSDOF 5
ENDMDL
MODEL 5
REMARK VINA RESULT:    -8.199      4.007      6.863
REMARK INTER + INTRA:         -11.455
REMARK INTER:                 -10.327
REMARK INTRA:                  -1.128
REMARK UNBOUND:                -0.859
REMARK  Name = /home/qwerty/github/datacon2025hack/step_04_hit_selection/docking/ligands/lig_361.pdb
REMARK  9 active torsions:
REMARK  status: ('A' for Active; 'I' for Inactive)
REMARK    1  A    between atoms: C1_1  and  N1_2
REMARK    2  A    between atoms: C3_4  and  C4_5
REMARK    3  A    between atoms: C8_11  and  C9_12
REMARK    4  A    between atoms: C13_18  and  C14_19
REMARK    5  A    between atoms: C17_23  and  N7_24
REMARK    6  A    between atoms: N7_24  and  C18_25
REMARK    7  A    between atoms: C18_25  and  C19_26
REMARK    8  A    between atoms: C18_25  and  C20_27
REMARK    9  A    between atoms: C18_25  and  C21_28
REMARK                            x       y       z     vdW  Elec       q    Type
REMARK                         _______ _______ _______ _____ _____    ______ ____
ROOT
ATOM      1  C9  UNL     1      15.805   0.099  22.112  0.00  0.00    +0.122 A 
ATOM      2  N4  UNL     1      15.014  -1.001  22.159  0.00  0.00    -0.171 NA
ATOM      3  N5  UNL     1      15.464  -1.798  23.120  0.00  0.00    -0.276 N 
ATOM      4  C10 UNL     1      16.532  -1.218  23.690  0.00  0.00    +0.066 A 
ATOM      5  C11 UNL     1      17.313  -1.696  24.736  0.00  0.00    +0.028 A 
ATOM      6  C12 UNL     1      18.386  -0.897  25.169  0.00  0.00    +0.010 A 
ATOM      7  C13 UNL     1      18.659   0.356  24.553  0.00  0.00    -0.016 A 
ATOM      8  C23 UNL     1      17.837   0.801  23.488  0.00  0.00    +0.020 A 
ATOM      9  C24 UNL     1      16.782  -0.019  23.086  0.00  0.00    +0.030 A 
ATOM     10  H8  UNL     1      15.040  -2.719  23.374  0.00  0.00    +0.189 HD
ENDROOT
BRANCH   1  17
ATOM     11  C4  UNL     1      12.298   2.813  21.262  0.00  0.00    +0.075 A 
ATOM     12  C5  UNL     1      12.558   3.764  20.232  0.00  0.00    +0.030 A 
ATOM     13  C6  UNL     1      13.812   3.786  19.593  0.00  0.00    +0.031 A 
ATOM     14  C7  UNL     1      14.753   2.854  20.013  0.00  0.00    +0.085 A 
ATOM     15  N2  UNL     1      16.011   2.660  19.586  0.00  0.00    -0.275 N 
ATOM     16  N3  UNL     1      16.540   1.656  20.283  0.00  0.00    -0.169 NA
ATOM     17  C8  UNL     1      15.609   1.207  21.162  0.00  0.00    +0.139 A 
ATOM     18  C25 UNL     1      14.470   1.963  20.995  0.00  0.00    +0.118 A 
ATOM     19  N8  UNL     1      13.272   1.921  21.626  0.00  0.00    -0.243 NA
ATOM     20  H7  UNL     1      16.509   3.193  18.840  0.00  0.00    +0.189 HD
BRANCH  11  24
ATOM     21  C1  UNL     1       7.728   3.941  22.986  0.00  0.00    +0.172 C 
ATOM     22  N1  UNL     1       8.972   3.240  22.699  0.00  0.00    -0.274 N 
ATOM     23  C2  UNL     1       9.967   3.693  21.914  0.00  0.00    +0.118 A 
ATOM     24  C3  UNL     1      10.994   2.768  21.953  0.00  0.00    +0.038 A 
ATOM     25  C26 UNL     1      10.546   1.773  22.806  0.00  0.00    +0.144 A 
ATOM     26  N9  UNL     1       9.315   2.088  23.253  0.00  0.00    -0.179 NA
ENDBRANCH  11  24
ENDBRANCH   1  17
BRANCH   7  27
ATOM     27  C14 UNL     1      19.792   1.192  25.024  0.00  0.00    +0.002 A 
ATOM     28  C15 UNL     1      20.396   0.949  26.267  0.00  0.00    +0.119 A 
ATOM     29  N6  UNL     1      21.442   1.711  26.680  0.00  0.00    -0.261 NA
ATOM     30  C16 UNL     1      21.930   2.732  25.931  0.00  0.00    +0.133 A 
ATOM     31  C17 UNL     1      21.351   3.038  24.689  0.00  0.00    +0.046 A 
ATOM     32  C22 UNL     1      20.288   2.243  24.237  0.00  0.00    +0.034 A 
BRANCH  31  33
ATOM     33  N7  UNL     1      21.847   4.095  23.843  0.00  0.00    -0.338 N 
ATOM     34  H13 UNL     1      22.668   3.839  23.246  0.00  0.00    +0.147 HD
BRANCH  33  35
ATOM     35  C18 UNL     1      21.161   5.370  23.537  0.00  0.00    +0.024 C 
ATOM     36  C19 UNL     1      20.068   5.100  22.480  0.00  0.00    +0.031 C 
ATOM     37  C20 UNL     1      20.477   5.959  24.790  0.00  0.00    +0.031 C 
ATOM     38  C21 UNL     1      22.163   6.379  22.944  0.00  0.00    +0.031 C 
ENDBRANCH  33  35
ENDBRANCH  31  33
ENDBRANCH   7  27
TORSDOF 5
ENDMDL
MODEL 6
REMARK VINA RESULT:    -8.061     12.982     15.546
REMARK INTER + INTRA:         -11.276
REMARK INTER:                 -10.216
REMARK INTRA:                  -1.061
REMARK UNBOUND:                -0.859
REMARK  Name = /home/qwerty/github/datacon2025hack/step_04_hit_selection/docking/ligands/lig_361.pdb
REMARK  9 active torsions:
REMARK  status: ('A' for Active; 'I' for Inactive)
REMARK    1  A    between atoms: C1_1  and  N1_2
REMARK    2  A    between atoms: C3_4  and  C4_5
REMARK    3  A    between atoms: C8_11  and  C9_12
REMARK    4  A    between atoms: C13_18  and  C14_19
REMARK    5  A    between atoms: C17_23  and  N7_24
REMARK    6  A    between atoms: N7_24  and  C18_25
REMARK    7  A    between atoms: C18_25  and  C19_26
REMARK    8  A    between atoms: C18_25  and  C20_27
REMARK    9  A    between atoms: C18_25  and  C21_28
REMARK                            x       y       z     vdW  Elec       q    Type
REMARK                         _______ _______ _______ _____ _____    ______ ____
ROOT
ATOM      1  C9  UNL     1      12.022  14.307  33.126  0.00  0.00    +0.122 A 
ATOM      2  N4  UNL     1      10.846  14.425  33.789  0.00  0.00    -0.171 NA
ATOM      3  N5  UNL     1      11.060  14.153  35.071  0.00  0.00    -0.276 N 
ATOM      4  C10 UNL     1      12.360  13.867  35.234  0.00  0.00    +0.066 A 
ATOM      5  C11 UNL     1      13.024  13.528  36.408  0.00  0.00    +0.028 A 
ATOM      6  C12 UNL     1      14.405  13.274  36.328  0.00  0.00    +0.010 A 
ATOM      7  C13 UNL     1      15.093  13.362  35.086  0.00  0.00    -0.016 A 
ATOM      8  C23 UNL     1      14.374  13.708  33.916  0.00  0.00    +0.020 A 
ATOM      9  C24 UNL     1      13.005  13.951  34.033  0.00  0.00    +0.030 A 
ATOM     10  H8  UNL     1      10.322  14.169  35.811  0.00  0.00    +0.189 HD
ENDROOT
BRANCH   1  17
ATOM     11  C4  UNL     1      10.059  12.424  29.522  0.00  0.00    +0.075 A 
ATOM     12  C5  UNL     1      10.520  12.961  28.285  0.00  0.00    +0.030 A 
ATOM     13  C6  UNL     1      11.496  13.977  28.276  0.00  0.00    +0.031 A 
ATOM     14  C7  UNL     1      11.967  14.411  29.508  0.00  0.00    +0.085 A 
ATOM     15  N2  UNL     1      12.878  15.356  29.787  0.00  0.00    -0.275 N 
ATOM     16  N3  UNL     1      13.009  15.436  31.110  0.00  0.00    -0.169 NA
ATOM     17  C8  UNL     1      12.170  14.532  31.679  0.00  0.00    +0.139 A 
ATOM     18  C25 UNL     1      11.507  13.877  30.666  0.00  0.00    +0.118 A 
ATOM     19  N8  UNL     1      10.569  12.899  30.702  0.00  0.00    -0.243 NA
ATOM     20  H7  UNL     1      13.406  15.941  29.103  0.00  0.00    +0.189 HD
BRANCH  11  24
ATOM     21  C1  UNL     1       7.576   8.175  30.470  0.00  0.00    +0.172 C 
ATOM     22  N1  UNL     1       7.921   9.507  29.992  0.00  0.00    -0.274 N 
ATOM     23  C2  UNL     1       9.068  10.162  30.249  0.00  0.00    +0.118 A 
ATOM     24  C3  UNL     1       9.035  11.362  29.563  0.00  0.00    +0.038 A 
ATOM     25  C26 UNL     1       7.823  11.356  28.891  0.00  0.00    +0.144 A 
ATOM     26  N9  UNL     1       7.167  10.212  29.163  0.00  0.00    -0.179 NA
ENDBRANCH  11  24
ENDBRANCH   1  17
BRANCH   7  27
ATOM     27  C14 UNL     1      16.552  13.097  35.018  0.00  0.00    +0.002 A 
ATOM     28  C15 UNL     1      17.352  13.718  34.046  0.00  0.00    +0.119 A 
ATOM     29  N6  UNL     1      18.688  13.481  34.004  0.00  0.00    -0.261 NA
ATOM     30  C16 UNL     1      19.297  12.634  34.873  0.00  0.00    +0.133 A 
ATOM     31  C17 UNL     1      18.546  11.964  35.852  0.00  0.00    +0.046 A 
ATOM     32  C22 UNL     1      17.169  12.221  35.925  0.00  0.00    +0.034 A 
BRANCH  31  33
ATOM     33  N7  UNL     1      19.146  11.075  36.815  0.00  0.00    -0.338 N 
ATOM     34  H13 UNL     1      19.543  11.541  37.665  0.00  0.00    +0.147 HD
BRANCH  33  35
ATOM     35  C18 UNL     1      19.011   9.601  36.853  0.00  0.00    +0.024 C 
ATOM     36  C19 UNL     1      20.403   8.987  37.120  0.00  0.00    +0.031 C 
ATOM     37  C20 UNL     1      18.066   9.149  37.987  0.00  0.00    +0.031 C 
ATOM     38  C21 UNL     1      18.511   9.082  35.493  0.00  0.00    +0.031 C 
ENDBRANCH  33  35
ENDBRANCH  31  33
ENDBRANCH   7  27
TORSDOF 5
ENDMDL
MODEL 7
REMARK VINA RESULT:    -8.048     11.665     15.726
REMARK INTER + INTRA:         -11.259
REMARK INTER:                 -10.403
REMARK INTRA:                  -0.856
REMARK UNBOUND:                -0.859
REMARK  Name = /home/qwerty/github/datacon2025hack/step_04_hit_selection/docking/ligands/lig_361.pdb
REMARK  9 active torsions:
REMARK  status: ('A' for Active; 'I' for Inactive)
REMARK    1  A    between atoms: C1_1  and  N1_2
REMARK    2  A    between atoms: C3_4  and  C4_5
REMARK    3  A    between atoms: C8_11  and  C9_12
REMARK    4  A    between atoms: C13_18  and  C14_19
REMARK    5  A    between atoms: C17_23  and  N7_24
REMARK    6  A    between atoms: N7_24  and  C18_25
REMARK    7  A    between atoms: C18_25  and  C19_26
REMARK    8  A    between atoms: C18_25  and  C20_27
REMARK    9  A    between atoms: C18_25  and  C21_28
REMARK                            x       y       z     vdW  Elec       q    Type
REMARK                         _______ _______ _______ _____ _____    ______ ____
ROOT
ATOM      1  C9  UNL     1      12.209  14.734  31.688  0.00  0.00    +0.122 A 
ATOM      2  N4  UNL     1      13.113  15.682  31.341  0.00  0.00    -0.171 NA
ATOM      3  N5  UNL     1      13.159  15.751  30.016  0.00  0.00    -0.276 N 
ATOM      4  C10 UNL     1      12.291  14.859  29.513  0.00  0.00    +0.066 A 
ATOM      5  C11 UNL     1      12.010  14.594  28.177  0.00  0.00    +0.028 A 
ATOM      6  C12 UNL     1      11.047  13.609  27.895  0.00  0.00    +0.010 A 
ATOM      7  C13 UNL     1      10.387  12.910  28.944  0.00  0.00    -0.016 A 
ATOM      8  C23 UNL     1      10.709  13.213  30.290  0.00  0.00    +0.020 A 
ATOM      9  C24 UNL     1      11.670  14.196  30.532  0.00  0.00    +0.030 A 
ATOM     10  H8  UNL     1      13.774  16.400  29.477  0.00  0.00    +0.189 HD
ENDROOT
BRANCH   1  17
ATOM     11  C4  UNL     1      14.767  13.385  35.156  0.00  0.00    +0.075 A 
ATOM     12  C5  UNL     1      14.020  13.142  36.345  0.00  0.00    +0.030 A 
ATOM     13  C6  UNL     1      12.624  13.327  36.352  0.00  0.00    +0.031 A 
ATOM     14  C7  UNL     1      12.036  13.749  35.167  0.00  0.00    +0.085 A 
ATOM     15  N2  UNL     1      10.746  14.006  34.899  0.00  0.00    -0.275 N 
ATOM     16  N3  UNL     1      10.650  14.390  33.628  0.00  0.00    -0.169 NA
ATOM     17  C8  UNL     1      11.892  14.377  33.081  0.00  0.00    +0.139 A 
ATOM     18  C25 UNL     1      12.777  13.969  34.053  0.00  0.00    +0.118 A 
ATOM     19  N8  UNL     1      14.121  13.799  34.020  0.00  0.00    -0.243 NA
ATOM     20  H7  UNL     1       9.941  13.927  35.558  0.00  0.00    +0.189 HD
BRANCH  11  24
ATOM     21  C1  UNL     1      19.521  12.393  36.394  0.00  0.00    +0.172 C 
ATOM     22  N1  UNL     1      18.325  12.746  35.643  0.00  0.00    -0.274 N 
ATOM     23  C2  UNL     1      17.067  12.745  36.120  0.00  0.00    +0.118 A 
ATOM     24  C3  UNL     1      16.231  13.203  35.119  0.00  0.00    +0.038 A 
ATOM     25  C26 UNL     1      17.070  13.478  34.051  0.00  0.00    +0.144 A 
ATOM     26  N9  UNL     1      18.341  13.199  34.398  0.00  0.00    -0.179 NA
ENDBRANCH  11  24
ENDBRANCH   1  17
BRANCH   7  27
ATOM     27  C14 UNL     1       9.369  11.876  28.632  0.00  0.00    +0.002 A 
ATOM     28  C15 UNL     1       8.725  11.167  29.657  0.00  0.00    +0.119 A 
ATOM     29  N6  UNL     1       7.784  10.235  29.359  0.00  0.00    -0.261 NA
ATOM     30  C16 UNL     1       7.441   9.941  28.079  0.00  0.00    +0.133 A 
ATOM     31  C17 UNL     1       8.068  10.600  27.010  0.00  0.00    +0.046 A 
ATOM     32  C22 UNL     1       9.022  11.585  27.303  0.00  0.00    +0.034 A 
BRANCH  31  33
ATOM     33  N7  UNL     1       7.724  10.344  25.633  0.00  0.00    -0.338 N 
ATOM     34  H13 UNL     1       6.916  10.901  25.265  0.00  0.00    +0.147 HD
BRANCH  33  35
ATOM     35  C18 UNL     1       8.544   9.609  24.644  0.00  0.00    +0.024 C 
ATOM     36  C19 UNL     1       7.997   9.910  23.231  0.00  0.00    +0.031 C 
ATOM     37  C20 UNL     1      10.020  10.057  24.689  0.00  0.00    +0.031 C 
ATOM     38  C21 UNL     1       8.431   8.093  24.889  0.00  0.00    +0.031 C 
ENDBRANCH  33  35
ENDBRANCH  31  33
ENDBRANCH   7  27
TORSDOF 5
ENDMDL
MODEL 8
REMARK VINA RESULT:    -8.029     13.752     17.978
REMARK INTER + INTRA:         -11.236
REMARK INTER:                 -10.150
REMARK INTRA:                  -1.086
REMARK UNBOUND:                -0.859
REMARK  Name = /home/qwerty/github/datacon2025hack/step_04_hit_selection/docking/ligands/lig_361.pdb
REMARK  9 active torsions:
REMARK  status: ('A' for Active; 'I' for Inactive)
REMARK    1  A    between atoms: C1_1  and  N1_2
REMARK    2  A    between atoms: C3_4  and  C4_5
REMARK    3  A    between atoms: C8_11  and  C9_12
REMARK    4  A    between atoms: C13_18  and  C14_19
REMARK    5  A    between atoms: C17_23  and  N7_24
REMARK    6  A    between atoms: N7_24  and  C18_25
REMARK    7  A    between atoms: C18_25  and  C19_26
REMARK    8  A    between atoms: C18_25  and  C20_27
REMARK    9  A    between atoms: C18_25  and  C21_28
REMARK                            x       y       z     vdW  Elec       q    Type
REMARK                         _______ _______ _______ _____ _____    ______ ____
ROOT
ATOM      1  C9  UNL     1      14.910  13.046  35.933  0.00  0.00    +0.122 A 
ATOM      2  N4  UNL     1      14.504  12.651  37.165  0.00  0.00    -0.171 NA
ATOM      3  N5  UNL     1      13.187  12.488  37.139  0.00  0.00    -0.276 N 
ATOM      4  C10 UNL     1      12.747  12.772  35.903  0.00  0.00    +0.066 A 
ATOM      5  C11 UNL     1      11.441  12.732  35.426  0.00  0.00    +0.028 A 
ATOM      6  C12 UNL     1      11.227  13.070  34.078  0.00  0.00    +0.010 A 
ATOM      7  C13 UNL     1      12.313  13.440  33.236  0.00  0.00    -0.016 A 
ATOM      8  C23 UNL     1      13.626  13.468  33.768  0.00  0.00    +0.020 A 
ATOM      9  C24 UNL     1      13.800  13.128  35.110  0.00  0.00    +0.030 A 
ATOM     10  H8  UNL     1      12.611  12.187  37.956  0.00  0.00    +0.189 HD
ENDROOT
BRANCH   1  17
ATOM     11  C4  UNL     1      18.695  10.612  36.299  0.00  0.00    +0.075 A 
ATOM     12  C5  UNL     1      19.853  11.298  35.830  0.00  0.00    +0.030 A 
ATOM     13  C6  UNL     1      19.740  12.605  35.319  0.00  0.00    +0.031 A 
ATOM     14  C7  UNL     1      18.471  13.170  35.299  0.00  0.00    +0.085 A 
ATOM     15  N2  UNL     1      18.082  14.379  34.866  0.00  0.00    -0.275 N 
ATOM     16  N3  UNL     1      16.766  14.483  35.037  0.00  0.00    -0.169 NA
ATOM     17  C8  UNL     1      16.312  13.326  35.585  0.00  0.00    +0.139 A 
ATOM     18  C25 UNL     1      17.391  12.488  35.755  0.00  0.00    +0.118 A 
ATOM     19  N8  UNL     1      17.473  11.230  36.252  0.00  0.00    -0.243 NA
ATOM     20  H7  UNL     1      18.689  15.125  34.460  0.00  0.00    +0.189 HD
BRANCH  11  24
ATOM     21  C1  UNL     1      17.562   6.051  38.040  0.00  0.00    +0.172 C 
ATOM     22  N1  UNL     1      18.298   7.221  37.583  0.00  0.00    -0.274 N 
ATOM     23  C2  UNL     1      17.754   8.351  37.095  0.00  0.00    +0.118 A 
ATOM     24  C3  UNL     1      18.781   9.240  36.838  0.00  0.00    +0.038 A 
ATOM     25  C26 UNL     1      19.935   8.572  37.212  0.00  0.00    +0.144 A 
ATOM     26  N9  UNL     1      19.613   7.346  37.670  0.00  0.00    -0.179 NA
ENDBRANCH  11  24
ENDBRANCH   1  17
BRANCH   7  27
ATOM     27  C14 UNL     1      12.073  13.788  31.813  0.00  0.00    +0.002 A 
ATOM     28  C15 UNL     1      13.008  14.544  31.090  0.00  0.00    +0.119 A 
ATOM     29  N6  UNL     1      12.784  14.844  29.784  0.00  0.00    -0.261 NA
ATOM     30  C16 UNL     1      11.660  14.446  29.137  0.00  0.00    +0.133 A 
ATOM     31  C17 UNL     1      10.677  13.707  29.814  0.00  0.00    +0.046 A 
ATOM     32  C22 UNL     1      10.907  13.368  31.155  0.00  0.00    +0.034 A 
BRANCH  31  33
ATOM     33  N7  UNL     1       9.477  13.238  29.167  0.00  0.00    -0.338 N 
ATOM     34  H13 UNL     1       8.803  13.987  28.881  0.00  0.00    +0.147 HD
BRANCH  33  35
ATOM     35  C18 UNL     1       9.241  11.878  28.632  0.00  0.00    +0.024 C 
ATOM     36  C19 UNL     1       8.309  11.987  27.406  0.00  0.00    +0.031 C 
ATOM     37  C20 UNL     1      10.557  11.215  28.174  0.00  0.00    +0.031 C 
ATOM     38  C21 UNL     1       8.539  11.010  29.693  0.00  0.00    +0.031 C 
ENDBRANCH  33  35
ENDBRANCH  31  33
ENDBRANCH   7  27
TORSDOF 5
ENDMDL
MODEL 9
REMARK VINA RESULT:    -7.794     12.599     15.308
REMARK INTER + INTRA:         -10.932
REMARK INTER:                 -10.052
REMARK INTRA:                  -0.880
REMARK UNBOUND:                -0.859
REMARK  Name = /home/qwerty/github/datacon2025hack/step_04_hit_selection/docking/ligands/lig_361.pdb
REMARK  9 active torsions:
REMARK  status: ('A' for Active; 'I' for Inactive)
REMARK    1  A    between atoms: C1_1  and  N1_2
REMARK    2  A    between atoms: C3_4  and  C4_5
REMARK    3  A    between atoms: C8_11  and  C9_12
REMARK    4  A    between atoms: C13_18  and  C14_19
REMARK    5  A    between atoms: C17_23  and  N7_24
REMARK    6  A    between atoms: N7_24  and  C18_25
REMARK    7  A    between atoms: C18_25  and  C19_26
REMARK    8  A    between atoms: C18_25  and  C20_27
REMARK    9  A    between atoms: C18_25  and  C21_28
REMARK                            x       y       z     vdW  Elec       q    Type
REMARK                         _______ _______ _______ _____ _____    ______ ____
ROOT
ATOM      1  C9  UNL     1      21.770   7.022  35.661  0.00  0.00    +0.122 A 
ATOM      2  N4  UNL     1      22.862   7.824  35.689  0.00  0.00    -0.171 NA
ATOM      3  N5  UNL     1      23.702   7.420  34.744  0.00  0.00    -0.276 N 
ATOM      4  C10 UNL     1      23.156   6.371  34.109  0.00  0.00    +0.066 A 
ATOM      5  C11 UNL     1      23.685   5.637  33.053  0.00  0.00    +0.028 A 
ATOM      6  C12 UNL     1      22.916   4.574  32.546  0.00  0.00    +0.010 A 
ATOM      7  C13 UNL     1      21.642   4.265  33.100  0.00  0.00    -0.016 A 
ATOM      8  C23 UNL     1      21.146   5.040  34.178  0.00  0.00    +0.020 A 
ATOM      9  C24 UNL     1      21.938   6.086  34.655  0.00  0.00    +0.030 A 
ATOM     10  H8  UNL     1      24.627   7.863  34.545  0.00  0.00    +0.189 HD
ENDROOT
BRANCH   1  17
ATOM     11  C4  UNL     1      18.556  10.170  36.047  0.00  0.00    +0.075 A 
ATOM     12  C5  UNL     1      17.630   9.902  37.096  0.00  0.00    +0.030 A 
ATOM     13  C6  UNL     1      17.774   8.747  37.888  0.00  0.00    +0.031 A 
ATOM     14  C7  UNL     1      18.842   7.909  37.596  0.00  0.00    +0.085 A 
ATOM     15  N2  UNL     1      19.206   6.756  38.178  0.00  0.00    -0.275 N 
ATOM     16  N3  UNL     1      20.292   6.298  37.560  0.00  0.00    -0.169 NA
ATOM     17  C8  UNL     1      20.623   7.169  36.572  0.00  0.00    +0.139 A 
ATOM     18  C25 UNL     1      19.706   8.196  36.590  0.00  0.00    +0.118 A 
ATOM     19  N8  UNL     1      19.589   9.300  35.814  0.00  0.00    -0.243 NA
ATOM     20  H7  UNL     1      18.733   6.281  38.978  0.00  0.00    +0.189 HD
BRANCH  11  24
ATOM     21  C1  UNL     1      17.197  13.406  32.470  0.00  0.00    +0.172 C 
ATOM     22  N1  UNL     1      17.822  12.814  33.644  0.00  0.00    -0.274 N 
ATOM     23  C2  UNL     1      17.597  11.572  34.113  0.00  0.00    +0.118 A 
ATOM     24  C3  UNL     1      18.429  11.371  35.198  0.00  0.00    +0.038 A 
ATOM     25  C26 UNL     1      19.148  12.548  35.321  0.00  0.00    +0.144 A 
ATOM     26  N9  UNL     1      18.765  13.408  34.358  0.00  0.00    -0.179 NA
ENDBRANCH  11  24
ENDBRANCH   1  17
BRANCH   7  27
ATOM     27  C14 UNL     1      20.839   3.144  32.551  0.00  0.00    +0.002 A 
ATOM     28  C15 UNL     1      19.453   3.081  32.763  0.00  0.00    +0.119 A 
ATOM     29  N6  UNL     1      18.726   2.059  32.242  0.00  0.00    -0.261 NA
ATOM     30  C16 UNL     1      19.299   1.062  31.521  0.00  0.00    +0.133 A 
ATOM     31  C17 UNL     1      20.685   1.058  31.297  0.00  0.00    +0.046 A 
ATOM     32  C22 UNL     1      21.444   2.121  31.805  0.00  0.00    +0.034 A 
BRANCH  31  33
ATOM     33  N7  UNL     1      21.340   0.037  30.517  0.00  0.00    -0.338 N 
ATOM     34  H13 UNL     1      21.064  -0.946  30.748  0.00  0.00    +0.147 HD
BRANCH  33  35
ATOM     35  C18 UNL     1      22.122   0.245  29.277  0.00  0.00    +0.024 C 
ATOM     36  C19 UNL     1      23.391   1.054  29.627  0.00  0.00    +0.031 C 
ATOM     37  C20 UNL     1      22.568  -1.097  28.658  0.00  0.00    +0.031 C 
ATOM     38  C21 UNL     1      21.298   1.060  28.264  0.00  0.00    +0.031 C 
ENDBRANCH  33  35
ENDBRANCH  31  33
ENDBRANCH   7  27
TORSDOF 5
ENDMDL
