REMARK  Name = /home/qwerty/github/datacon2025hack/step_04_hit_selection/docking/ligands/lig_90.pdb
REMARK  4 active torsions:
REMARK  status: ('A' for Active; 'I' for Inactive)
REMARK    1  A    between atoms: C1_1  and  C2_2
REMARK    2  A    between atoms: C5_5  and  C6_6
REMARK    3  A    between atoms: C7_8  and  C8_9
REMARK    4  A    between atoms: C11_14  and  C12_15
REMARK                            x       y       z     vdW  Elec       q    Type
REMARK                         _______ _______ _______ _____ _____    ______ ____
ROOT
ATOM      1  C8  UNL     1       0.122   0.355   0.854  0.00  0.00    +0.265 C 
ATOM      2  O1  UNL     1       0.114   1.612   0.943  0.00  0.00    -0.268 OA
ATOM      3  N2  UNL     1      -1.120  -0.350   0.673  0.00  0.00    -0.296 N 
ATOM      4  C9  UNL     1      -1.241  -1.610  -0.047  0.00  0.00    +0.109 C 
ATOM      5  C10 UNL     1      -2.707  -1.720  -0.448  0.00  0.00    +0.029 C 
ATOM      6  C11 UNL     1      -3.450  -0.756   0.483  0.00  0.00    +0.039 C 
ATOM      7  C17 UNL     1      -2.409   0.280   0.912  0.00  0.00    +0.116 C 
ENDROOT
BRANCH   6   8
ATOM      8  C12 UNL     1      -4.684  -0.143  -0.153  0.00  0.00    -0.025 A 
ATOM      9  C13 UNL     1      -5.951  -0.357   0.415  0.00  0.00    +0.007 A 
ATOM     10  C14 UNL     1      -7.087   0.205  -0.169  0.00  0.00    +0.020 A 
ATOM     11  C15 UNL     1      -6.952   0.980  -1.321  0.00  0.00    +0.111 A 
ATOM     12  N3  UNL     1      -5.723   1.183  -1.864  0.00  0.00    -0.263 NA
ATOM     13  C16 UNL     1      -4.600   0.647  -1.315  0.00  0.00    +0.114 A 
ENDBRANCH   6   8
BRANCH   1  16
ATOM     14  C6  UNL     1       3.641  -0.542   0.639  0.00  0.00    +0.144 A 
ATOM     15  N1  UNL     1       2.557   0.242   0.458  0.00  0.00    -0.231 NA
ATOM     16  C7  UNL     1       1.418  -0.345   0.916  0.00  0.00    +0.133 A 
ATOM     17  C18 UNL     1       1.597  -1.602   1.494  0.00  0.00    +0.080 A 
ATOM     18  S1  UNL     1       3.231  -1.986   1.397  0.00  0.00    -0.072 S 
BRANCH  14  23
ATOM     19  C1  UNL     1       7.268   2.161  -1.256  0.00  0.00    +0.086 C 
ATOM     20  C2  UNL     1       6.567   1.027  -0.587  0.00  0.00    +0.103 A 
ATOM     21  C3  UNL     1       7.164  -0.136  -0.143  0.00  0.00    +0.045 A 
ATOM     22  C4  UNL     1       6.145  -0.899   0.387  0.00  0.00    +0.052 A 
ATOM     23  C5  UNL     1       4.994  -0.150   0.228  0.00  0.00    +0.160 A 
ATOM     24  O2  UNL     1       5.275   0.992  -0.357  0.00  0.00    -0.458 OA
ENDBRANCH  14  23
ENDBRANCH   1  16
TORSDOF 3
