REMARK  Name = /home/qwerty/github/datacon2025hack/step_04_hit_selection/docking/ligands/lig_439.pdb
REMARK  5 active torsions:
REMARK  status: ('A' for Active; 'I' for Inactive)
REMARK    1  A    between atoms: C1_1  and  N1_2
REMARK    2  A    between atoms: N1_2  and  C2_3
REMARK    3  A    between atoms: C3_4  and  C4_6
REMARK    4  A    between atoms: C7_9  and  N2_10
REMARK    5  A    between atoms: C10_15  and  C11_16
REMARK                            x       y       z     vdW  Elec       q    Type
REMARK                         _______ _______ _______ _____ _____    ______ ____
ROOT
ATOM      1  N2  UNL     1       0.849   0.151   0.586  0.00  0.00    -0.269 N 
ATOM      2  C8  UNL     1      -0.130   1.150   0.255  0.00  0.00    +0.307 C 
ATOM      3  O2  UNL     1       0.237   2.330   0.005  0.00  0.00    -0.252 OA
ATOM      4  N3  UNL     1      -1.532   0.823   0.234  0.00  0.00    -0.281 N 
ATOM      5  C9  UNL     1      -2.042  -0.535   0.357  0.00  0.00    +0.118 C 
ATOM      6  C10 UNL     1      -3.565  -0.418   0.227  0.00  0.00    +0.043 C 
ATOM      7  C17 UNL     1      -3.816   0.951  -0.434  0.00  0.00    +0.044 C 
ATOM      8  C18 UNL     1      -5.113   1.636   0.046  0.00  0.00    +0.165 C 
ATOM      9  O3  UNL     1      -5.002   3.032  -0.134  0.00  0.00    -0.379 OA
ATOM     10  C19 UNL     1      -4.108   3.589   0.821  0.00  0.00    +0.161 C 
ATOM     11  C20 UNL     1      -2.827   2.751   1.057  0.00  0.00    +0.051 C 
ATOM     12  C21 UNL     1      -2.569   1.789  -0.113  0.00  0.00    +0.086 C 
ATOM     13  H9  UNL     1       0.542  -0.683   1.135  0.00  0.00    +0.156 HD
ENDROOT
BRANCH   1  17
ATOM     14  C4  UNL     1       5.021   0.466  -0.215  0.00  0.00    +0.037 A 
ATOM     15  C5  UNL     1       4.555  -0.217   0.921  0.00  0.00    +0.015 A 
ATOM     16  C6  UNL     1       3.184  -0.315   1.175  0.00  0.00    +0.024 A 
ATOM     17  C7  UNL     1       2.255   0.287   0.315  0.00  0.00    +0.035 A 
ATOM     18  C22 UNL     1       2.719   0.966  -0.825  0.00  0.00    +0.024 A 
ATOM     19  C23 UNL     1       4.090   1.064  -1.080  0.00  0.00    +0.015 A 
BRANCH  14  23
ATOM     20  C1  UNL     1       7.062  -1.861  -0.188  0.00  0.00    +0.132 C 
ATOM     21  N1  UNL     1       7.405  -0.439  -0.094  0.00  0.00    -0.304 N 
ATOM     22  C2  UNL     1       8.744  -0.055   0.355  0.00  0.00    +0.132 C 
ATOM     23  C3  UNL     1       6.473   0.586  -0.486  0.00  0.00    +0.246 C 
ATOM     24  O1  UNL     1       6.903   1.622  -1.063  0.00  0.00    -0.270 OA
ENDBRANCH  14  23
ENDBRANCH   1  17
BRANCH   6  25
ATOM     25  C11 UNL     1      -4.196  -1.569  -0.536  0.00  0.00    -0.042 A 
ATOM     26  C12 UNL     1      -5.201  -2.344   0.073  0.00  0.00    +0.004 A 
ATOM     27  C13 UNL     1      -5.800  -3.399  -0.622  0.00  0.00    +0.000 A 
ATOM     28  C14 UNL     1      -5.407  -3.691  -1.930  0.00  0.00    +0.000 A 
ATOM     29  C15 UNL     1      -4.415  -2.926  -2.547  0.00  0.00    +0.000 A 
ATOM     30  C16 UNL     1      -3.812  -1.870  -1.858  0.00  0.00    +0.004 A 
ENDBRANCH   6  25
TORSDOF 3
