MODEL 1
REMARK VINA RESULT:    -7.362      0.000      0.000
REMARK INTER + INTRA:         -10.964
REMARK INTER:                  -9.945
REMARK INTRA:                  -1.019
REMARK UNBOUND:                -1.019
REMARK  Name = /home/qwerty/github/datacon2025hack/step_04_hit_selection/docking/ligands/lig_151.pdb
REMARK  9 active torsions:
REMARK  status: ('A' for Active; 'I' for Inactive)
REMARK    1  A    between atoms: C1_1  and  C2_2
REMARK    2  A    between atoms: C5_5  and  C6_6
REMARK    3  A    between atoms: C9_9  and  C10_10
REMARK    4  A    between atoms: C11_11  and  N1_12
REMARK    5  A    between atoms: N2_15  and  C13_16
REMARK    6  A    between atoms: C13_16  and  C14_17
REMARK    7  A    between atoms: C14_17  and  O2_18
REMARK    8  A    between atoms: C14_17  and  C15_19
REMARK    9  A    between atoms: C18_22  and  O3_23
REMARK                            x       y       z     vdW  Elec       q    Type
REMARK                         _______ _______ _______ _____ _____    ______ ____
ROOT
ATOM      1  N1  UNL     1      22.439   2.857  32.951  0.00  0.00    -0.269 N 
ATOM      2  C12 UNL     1      22.544   4.264  32.694  0.00  0.00    +0.304 C 
ATOM      3  O1  UNL     1      21.564   4.895  32.210  0.00  0.00    -0.253 OA
ATOM      4  N2  UNL     1      23.773   4.947  32.966  0.00  0.00    -0.296 N 
ATOM      5  H11 UNL     1      23.320   2.315  33.100  0.00  0.00    +0.156 HD
ATOM      6  H12 UNL     1      24.570   4.398  33.363  0.00  0.00    +0.150 HD
ENDROOT
BRANCH   1  12
ATOM      7  C6  UNL     1      19.076   1.391  33.675  0.00  0.00    -0.016 A 
ATOM      8  C7  UNL     1      18.825   0.692  32.483  0.00  0.00    +0.009 A 
ATOM      9  C8  UNL     1      19.743   0.727  31.432  0.00  0.00    +0.006 A 
ATOM     10  C9  UNL     1      20.934   1.460  31.548  0.00  0.00    -0.029 A 
ATOM     11  C10 UNL     1      21.877   1.507  30.375  0.00  0.00    +0.045 C 
ATOM     12  C11 UNL     1      21.218   2.127  32.761  0.00  0.00    +0.038 A 
ATOM     13  C21 UNL     1      20.278   2.110  33.800  0.00  0.00    +0.032 A 
BRANCH   7  18
ATOM     14  C1  UNL     1      15.249   1.275  38.038  0.00  0.00    +0.044 C 
ATOM     15  C2  UNL     1      16.216   1.323  36.893  0.00  0.00    -0.050 A 
ATOM     16  C3  UNL     1      16.201   0.322  35.911  0.00  0.00    +0.004 A 
ATOM     17  C4  UNL     1      17.125   0.346  34.864  0.00  0.00    +0.009 A 
ATOM     18  C5  UNL     1      18.092   1.365  34.788  0.00  0.00    -0.018 A 
ATOM     19  C22 UNL     1      18.115   2.357  35.785  0.00  0.00    +0.009 A 
ATOM     20  C23 UNL     1      17.189   2.332  36.831  0.00  0.00    +0.004 A 
ENDBRANCH   7  18
ENDBRANCH   1  12
BRANCH   4  21
ATOM     21  C13 UNL     1      23.922   6.380  32.714  0.00  0.00    +0.141 C 
BRANCH  21  22
ATOM     22  C14 UNL     1      24.548   7.097  33.927  0.00  0.00    +0.162 C 
BRANCH  22  23
ATOM     23  C15 UNL     1      23.539   7.275  35.044  0.00  0.00    -0.017 A 
ATOM     24  C16 UNL     1      22.547   8.268  34.948  0.00  0.00    +0.010 A 
ATOM     25  C17 UNL     1      21.618   8.444  35.977  0.00  0.00    +0.046 A 
ATOM     26  C18 UNL     1      21.667   7.632  37.117  0.00  0.00    +0.117 A 
ATOM     27  C19 UNL     1      22.651   6.646  37.223  0.00  0.00    +0.046 A 
ATOM     28  C20 UNL     1      23.582   6.466  36.196  0.00  0.00    +0.010 A 
BRANCH  26  29
ATOM     29  O3  UNL     1      20.746   7.798  38.149  0.00  0.00    -0.507 OA
ATOM     30  H19 UNL     1      20.323   7.003  38.614  0.00  0.00    +0.292 HD
ENDBRANCH  26  29
ENDBRANCH  22  23
BRANCH  22  31
ATOM     31  O2  UNL     1      25.110   8.336  33.565  0.00  0.00    -0.386 OA
ATOM     32  H16 UNL     1      24.976   8.969  34.319  0.00  0.00    +0.210 HD
ENDBRANCH  22  31
ENDBRANCH  21  22
ENDBRANCH   4  21
TORSDOF 7
ENDMDL
MODEL 2
REMARK VINA RESULT:    -7.247      3.275      6.809
REMARK INTER + INTRA:         -10.807
REMARK INTER:                 -10.021
REMARK INTRA:                  -0.786
REMARK UNBOUND:                -1.019
REMARK  Name = /home/qwerty/github/datacon2025hack/step_04_hit_selection/docking/ligands/lig_151.pdb
REMARK  9 active torsions:
REMARK  status: ('A' for Active; 'I' for Inactive)
REMARK    1  A    between atoms: C1_1  and  C2_2
REMARK    2  A    between atoms: C5_5  and  C6_6
REMARK    3  A    between atoms: C9_9  and  C10_10
REMARK    4  A    between atoms: C11_11  and  N1_12
REMARK    5  A    between atoms: N2_15  and  C13_16
REMARK    6  A    between atoms: C13_16  and  C14_17
REMARK    7  A    between atoms: C14_17  and  O2_18
REMARK    8  A    between atoms: C14_17  and  C15_19
REMARK    9  A    between atoms: C18_22  and  O3_23
REMARK                            x       y       z     vdW  Elec       q    Type
REMARK                         _______ _______ _______ _____ _____    ______ ____
ROOT
ATOM      1  N1  UNL     1      22.192   2.847  32.360  0.00  0.00    -0.269 N 
ATOM      2  C12 UNL     1      21.994   4.143  32.940  0.00  0.00    +0.304 C 
ATOM      3  O1  UNL     1      21.268   4.995  32.357  0.00  0.00    -0.253 OA
ATOM      4  N2  UNL     1      22.643   4.478  34.172  0.00  0.00    -0.296 N 
ATOM      5  H11 UNL     1      22.984   2.263  32.712  0.00  0.00    +0.156 HD
ATOM      6  H12 UNL     1      23.242   3.753  34.631  0.00  0.00    +0.150 HD
ENDROOT
BRANCH   1  12
ATOM      7  C6  UNL     1      21.150   2.741  28.770  0.00  0.00    -0.016 A 
ATOM      8  C7  UNL     1      20.222   1.687  28.789  0.00  0.00    +0.009 A 
ATOM      9  C8  UNL     1      19.961   0.993  29.972  0.00  0.00    +0.006 A 
ATOM     10  C9  UNL     1      20.621   1.335  31.162  0.00  0.00    -0.029 A 
ATOM     11  C10 UNL     1      20.343   0.533  32.405  0.00  0.00    +0.045 C 
ATOM     12  C11 UNL     1      21.521   2.426  31.163  0.00  0.00    +0.038 A 
ATOM     13  C21 UNL     1      21.798   3.098  29.965  0.00  0.00    +0.032 A 
BRANCH   7  18
ATOM     14  C1  UNL     1      22.258   5.576  23.826  0.00  0.00    +0.044 C 
ATOM     15  C2  UNL     1      21.993   4.863  25.119  0.00  0.00    -0.050 A 
ATOM     16  C3  UNL     1      22.759   3.746  25.481  0.00  0.00    +0.004 A 
ATOM     17  C4  UNL     1      22.489   3.060  26.668  0.00  0.00    +0.009 A 
ATOM     18  C5  UNL     1      21.439   3.471  27.508  0.00  0.00    -0.018 A 
ATOM     19  C22 UNL     1      20.661   4.581  27.131  0.00  0.00    +0.009 A 
ATOM     20  C23 UNL     1      20.934   5.267  25.945  0.00  0.00    +0.004 A 
ENDBRANCH   7  18
ENDBRANCH   1  12
BRANCH   4  21
ATOM     21  C13 UNL     1      22.471   5.790  34.794  0.00  0.00    +0.141 C 
BRANCH  21  22
ATOM     22  C14 UNL     1      23.794   6.582  34.800  0.00  0.00    +0.162 C 
BRANCH  22  23
ATOM     23  C15 UNL     1      23.768   7.709  33.787  0.00  0.00    -0.017 A 
ATOM     24  C16 UNL     1      24.955   8.111  33.147  0.00  0.00    +0.010 A 
ATOM     25  C17 UNL     1      24.941   9.154  32.217  0.00  0.00    +0.046 A 
ATOM     26  C18 UNL     1      23.743   9.812  31.915  0.00  0.00    +0.117 A 
ATOM     27  C19 UNL     1      22.560   9.423  32.548  0.00  0.00    +0.046 A 
ATOM     28  C20 UNL     1      22.569   8.379  33.479  0.00  0.00    +0.010 A 
BRANCH  26  29
ATOM     29  O3  UNL     1      23.717  10.853  30.990  0.00  0.00    -0.507 OA
ATOM     30  H19 UNL     1      23.981  10.708  30.022  0.00  0.00    +0.292 HD
ENDBRANCH  26  29
ENDBRANCH  22  23
BRANCH  22  31
ATOM     31  O2  UNL     1      24.903   5.743  34.580  0.00  0.00    -0.386 OA
ATOM     32  H16 UNL     1      25.291   5.969  33.694  0.00  0.00    +0.210 HD
ENDBRANCH  22  31
ENDBRANCH  21  22
ENDBRANCH   4  21
TORSDOF 7
ENDMDL
MODEL 3
REMARK VINA RESULT:    -7.113      9.740     14.628
REMARK INTER + INTRA:         -10.627
REMARK INTER:                  -9.506
REMARK INTRA:                  -1.121
REMARK UNBOUND:                -1.019
REMARK  Name = /home/qwerty/github/datacon2025hack/step_04_hit_selection/docking/ligands/lig_151.pdb
REMARK  9 active torsions:
REMARK  status: ('A' for Active; 'I' for Inactive)
REMARK    1  A    between atoms: C1_1  and  C2_2
REMARK    2  A    between atoms: C5_5  and  C6_6
REMARK    3  A    between atoms: C9_9  and  C10_10
REMARK    4  A    between atoms: C11_11  and  N1_12
REMARK    5  A    between atoms: N2_15  and  C13_16
REMARK    6  A    between atoms: C13_16  and  C14_17
REMARK    7  A    between atoms: C14_17  and  O2_18
REMARK    8  A    between atoms: C14_17  and  C15_19
REMARK    9  A    between atoms: C18_22  and  O3_23
REMARK                            x       y       z     vdW  Elec       q    Type
REMARK                         _______ _______ _______ _____ _____    ______ ____
ROOT
ATOM      1  N1  UNL     1      20.247   0.737  24.391  0.00  0.00    -0.269 N 
ATOM      2  C12 UNL     1      18.887   0.385  24.678  0.00  0.00    +0.304 C 
ATOM      3  O1  UNL     1      18.055   1.278  25.000  0.00  0.00    -0.253 OA
ATOM      4  N2  UNL     1      18.480  -0.987  24.620  0.00  0.00    -0.296 N 
ATOM      5  H11 UNL     1      20.964  -0.024  24.383  0.00  0.00    +0.156 HD
ATOM      6  H12 UNL     1      19.191  -1.706  24.353  0.00  0.00    +0.150 HD
ENDROOT
BRANCH   1  12
ATOM      7  C6  UNL     1      20.891   4.205  23.147  0.00  0.00    -0.016 A 
ATOM      8  C7  UNL     1      21.597   4.753  24.231  0.00  0.00    +0.009 A 
ATOM      9  C8  UNL     1      21.835   3.996  25.379  0.00  0.00    +0.006 A 
ATOM     10  C9  UNL     1      21.373   2.674  25.472  0.00  0.00    -0.029 A 
ATOM     11  C10 UNL     1      21.613   1.906  26.745  0.00  0.00    +0.045 C 
ATOM     12  C11 UNL     1      20.704   2.097  24.368  0.00  0.00    +0.038 A 
ATOM     13  C21 UNL     1      20.445   2.874  23.230  0.00  0.00    +0.032 A 
BRANCH   7  18
ATOM     14  C1  UNL     1      19.854   7.395  18.409  0.00  0.00    +0.044 C 
ATOM     15  C2  UNL     1      20.123   6.544  19.614  0.00  0.00    -0.050 A 
ATOM     16  C3  UNL     1      19.058   6.012  20.357  0.00  0.00    +0.004 A 
ATOM     17  C4  UNL     1      19.307   5.249  21.501  0.00  0.00    +0.009 A 
ATOM     18  C5  UNL     1      20.626   5.015  21.931  0.00  0.00    -0.018 A 
ATOM     19  C22 UNL     1      21.690   5.566  21.193  0.00  0.00    +0.009 A 
ATOM     20  C23 UNL     1      21.439   6.328  20.049  0.00  0.00    +0.004 A 
ENDBRANCH   7  18
ENDBRANCH   1  12
BRANCH   4  21
ATOM     21  C13 UNL     1      17.104  -1.388  24.909  0.00  0.00    +0.141 C 
BRANCH  21  22
ATOM     22  C14 UNL     1      16.481  -2.144  23.718  0.00  0.00    +0.162 C 
BRANCH  22  23
ATOM     23  C15 UNL     1      16.206  -1.213  22.555  0.00  0.00    -0.017 A 
ATOM     24  C16 UNL     1      15.239  -0.199  22.675  0.00  0.00    +0.010 A 
ATOM     25  C17 UNL     1      14.974   0.660  21.605  0.00  0.00    +0.046 A 
ATOM     26  C18 UNL     1      15.670   0.516  20.398  0.00  0.00    +0.117 A 
ATOM     27  C19 UNL     1      16.630  -0.490  20.267  0.00  0.00    +0.046 A 
ATOM     28  C20 UNL     1      16.898  -1.351  21.336  0.00  0.00    +0.010 A 
BRANCH  26  29
ATOM     29  O3  UNL     1      15.414   1.366  19.324  0.00  0.00    -0.507 OA
ATOM     30  H19 UNL     1      14.491   1.753  19.163  0.00  0.00    +0.292 HD
ENDBRANCH  26  29
ENDBRANCH  22  23
BRANCH  22  31
ATOM     31  O2  UNL     1      15.309  -2.829  24.093  0.00  0.00    -0.386 OA
ATOM     32  H16 UNL     1      15.294  -2.897  25.084  0.00  0.00    +0.210 HD
ENDBRANCH  22  31
ENDBRANCH  21  22
ENDBRANCH   4  21
TORSDOF 7
ENDMDL
MODEL 4
REMARK VINA RESULT:    -7.091      4.643      7.103
REMARK INTER + INTRA:         -10.597
REMARK INTER:                  -9.824
REMARK INTRA:                  -0.773
REMARK UNBOUND:                -1.019
REMARK  Name = /home/qwerty/github/datacon2025hack/step_04_hit_selection/docking/ligands/lig_151.pdb
REMARK  9 active torsions:
REMARK  status: ('A' for Active; 'I' for Inactive)
REMARK    1  A    between atoms: C1_1  and  C2_2
REMARK    2  A    between atoms: C5_5  and  C6_6
REMARK    3  A    between atoms: C9_9  and  C10_10
REMARK    4  A    between atoms: C11_11  and  N1_12
REMARK    5  A    between atoms: N2_15  and  C13_16
REMARK    6  A    between atoms: C13_16  and  C14_17
REMARK    7  A    between atoms: C14_17  and  O2_18
REMARK    8  A    between atoms: C14_17  and  C15_19
REMARK    9  A    between atoms: C18_22  and  O3_23
REMARK                            x       y       z     vdW  Elec       q    Type
REMARK                         _______ _______ _______ _____ _____    ______ ____
ROOT
ATOM      1  N1  UNL     1      21.523   2.174  28.376  0.00  0.00    -0.269 N 
ATOM      2  C12 UNL     1      21.111   3.238  29.244  0.00  0.00    +0.304 C 
ATOM      3  O1  UNL     1      20.217   4.048  28.874  0.00  0.00    -0.253 OA
ATOM      4  N2  UNL     1      21.733   3.393  30.525  0.00  0.00    -0.296 N 
ATOM      5  H11 UNL     1      22.424   1.686  28.586  0.00  0.00    +0.156 HD
ATOM      6  H12 UNL     1      22.474   2.710  30.804  0.00  0.00    +0.150 HD
ENDROOT
BRANCH   1  12
ATOM      7  C6  UNL     1      19.112   0.822  25.858  0.00  0.00    -0.016 A 
ATOM      8  C7  UNL     1      19.635   1.357  24.669  0.00  0.00    +0.009 A 
ATOM      9  C8  UNL     1      20.758   2.185  24.698  0.00  0.00    +0.006 A 
ATOM     10  C9  UNL     1      21.386   2.497  25.914  0.00  0.00    -0.029 A 
ATOM     11  C10 UNL     1      22.569   3.428  25.905  0.00  0.00    +0.045 C 
ATOM     12  C11 UNL     1      20.896   1.924  27.110  0.00  0.00    +0.038 A 
ATOM     13  C21 UNL     1      19.751   1.117  27.075  0.00  0.00    +0.032 A 
BRANCH   7  18
ATOM     14  C1  UNL     1      14.396  -2.561  25.723  0.00  0.00    +0.044 C 
ATOM     15  C2  UNL     1      15.627  -1.706  25.782  0.00  0.00    -0.050 A 
ATOM     16  C3  UNL     1      15.680  -0.599  26.641  0.00  0.00    +0.004 A 
ATOM     17  C4  UNL     1      16.812   0.219  26.669  0.00  0.00    +0.009 A 
ATOM     18  C5  UNL     1      17.908  -0.048  25.829  0.00  0.00    -0.018 A 
ATOM     19  C22 UNL     1      17.843  -1.150  24.956  0.00  0.00    +0.009 A 
ATOM     20  C23 UNL     1      16.710  -1.967  24.930  0.00  0.00    +0.004 A 
ENDBRANCH   7  18
ENDBRANCH   1  12
BRANCH   4  21
ATOM     21  C13 UNL     1      21.344   4.468  31.437  0.00  0.00    +0.141 C 
BRANCH  21  22
ATOM     22  C14 UNL     1      22.195   4.442  32.724  0.00  0.00    +0.162 C 
BRANCH  22  23
ATOM     23  C15 UNL     1      23.076   5.670  32.828  0.00  0.00    -0.017 A 
ATOM     24  C16 UNL     1      24.462   5.530  33.028  0.00  0.00    +0.010 A 
ATOM     25  C17 UNL     1      25.281   6.657  33.132  0.00  0.00    +0.046 A 
ATOM     26  C18 UNL     1      24.728   7.941  33.042  0.00  0.00    +0.117 A 
ATOM     27  C19 UNL     1      23.352   8.090  32.847  0.00  0.00    +0.046 A 
ATOM     28  C20 UNL     1      22.529   6.965  32.741  0.00  0.00    +0.010 A 
BRANCH  26  29
ATOM     29  O3  UNL     1      25.535   9.072  33.144  0.00  0.00    -0.507 OA
ATOM     30  H19 UNL     1      25.431   9.728  33.910  0.00  0.00    +0.292 HD
ENDBRANCH  26  29
ENDBRANCH  22  23
BRANCH  22  31
ATOM     31  O2  UNL     1      22.967   3.268  32.812  0.00  0.00    -0.386 OA
ATOM     32  H16 UNL     1      22.915   2.797  31.939  0.00  0.00    +0.210 HD
ENDBRANCH  22  31
ENDBRANCH  21  22
ENDBRANCH   4  21
TORSDOF 7
ENDMDL
MODEL 5
REMARK VINA RESULT:    -7.088      3.525      7.452
REMARK INTER + INTRA:         -10.593
REMARK INTER:                  -9.834
REMARK INTRA:                  -0.759
REMARK UNBOUND:                -1.019
REMARK  Name = /home/qwerty/github/datacon2025hack/step_04_hit_selection/docking/ligands/lig_151.pdb
REMARK  9 active torsions:
REMARK  status: ('A' for Active; 'I' for Inactive)
REMARK    1  A    between atoms: C1_1  and  C2_2
REMARK    2  A    between atoms: C5_5  and  C6_6
REMARK    3  A    between atoms: C9_9  and  C10_10
REMARK    4  A    between atoms: C11_11  and  N1_12
REMARK    5  A    between atoms: N2_15  and  C13_16
REMARK    6  A    between atoms: C13_16  and  C14_17
REMARK    7  A    between atoms: C14_17  and  O2_18
REMARK    8  A    between atoms: C14_17  and  C15_19
REMARK    9  A    between atoms: C18_22  and  O3_23
REMARK                            x       y       z     vdW  Elec       q    Type
REMARK                         _______ _______ _______ _____ _____    ______ ____
ROOT
ATOM      1  N1  UNL     1      19.234   1.590  34.288  0.00  0.00    -0.269 N 
ATOM      2  C12 UNL     1      19.187   1.934  32.897  0.00  0.00    +0.304 C 
ATOM      3  O1  UNL     1      18.267   2.679  32.458  0.00  0.00    -0.253 OA
ATOM      4  N2  UNL     1      20.175   1.412  32.001  0.00  0.00    -0.296 N 
ATOM      5  H11 UNL     1      19.832   0.783  34.578  0.00  0.00    +0.156 HD
ATOM      6  H12 UNL     1      20.923   0.795  32.392  0.00  0.00    +0.150 HD
ENDROOT
BRANCH   1  12
ATOM      7  C6  UNL     1      17.593   4.045  36.583  0.00  0.00    -0.016 A 
ATOM      8  C7  UNL     1      16.582   3.251  37.148  0.00  0.00    +0.009 A 
ATOM      9  C8  UNL     1      16.419   1.922  36.753  0.00  0.00    +0.006 A 
ATOM     10  C9  UNL     1      17.263   1.355  35.787  0.00  0.00    -0.029 A 
ATOM     11  C10 UNL     1      17.027  -0.069  35.359  0.00  0.00    +0.045 C 
ATOM     12  C11 UNL     1      18.315   2.131  35.249  0.00  0.00    +0.038 A 
ATOM     13  C21 UNL     1      18.453   3.473  35.629  0.00  0.00    +0.032 A 
BRANCH   7  18
ATOM     14  C1  UNL     1      18.233   9.581  38.209  0.00  0.00    +0.044 C 
ATOM     15  C2  UNL     1      18.069   8.160  37.757  0.00  0.00    -0.050 A 
ATOM     16  C3  UNL     1      16.789   7.626  37.551  0.00  0.00    +0.004 A 
ATOM     17  C4  UNL     1      16.634   6.292  37.165  0.00  0.00    +0.009 A 
ATOM     18  C5  UNL     1      17.757   5.463  36.992  0.00  0.00    -0.018 A 
ATOM     19  C22 UNL     1      19.039   5.999  37.218  0.00  0.00    +0.009 A 
ATOM     20  C23 UNL     1      19.191   7.333  37.603  0.00  0.00    +0.004 A 
ENDBRANCH   7  18
ENDBRANCH   1  12
BRANCH   4  21
ATOM     21  C13 UNL     1      20.160   1.735  30.575  0.00  0.00    +0.141 C 
BRANCH  21  22
ATOM     22  C14 UNL     1      21.546   2.211  30.097  0.00  0.00    +0.162 C 
BRANCH  22  23
ATOM     23  C15 UNL     1      22.413   1.044  29.667  0.00  0.00    -0.017 A 
ATOM     24  C16 UNL     1      21.822  -0.180  29.305  0.00  0.00    +0.010 A 
ATOM     25  C17 UNL     1      22.614  -1.263  28.915  0.00  0.00    +0.046 A 
ATOM     26  C18 UNL     1      24.009  -1.140  28.884  0.00  0.00    +0.117 A 
ATOM     27  C19 UNL     1      24.606   0.071  29.244  0.00  0.00    +0.046 A 
ATOM     28  C20 UNL     1      23.817   1.157  29.635  0.00  0.00    +0.010 A 
BRANCH  26  29
ATOM     29  O3  UNL     1      24.809  -2.212  28.496  0.00  0.00    -0.507 OA
ATOM     30  H19 UNL     1      25.362  -2.181  27.647  0.00  0.00    +0.292 HD
ENDBRANCH  26  29
ENDBRANCH  22  23
BRANCH  22  31
ATOM     31  O2  UNL     1      22.200   2.979  31.079  0.00  0.00    -0.386 OA
ATOM     32  H16 UNL     1      21.673   2.919  31.919  0.00  0.00    +0.210 HD
ENDBRANCH  22  31
ENDBRANCH  21  22
ENDBRANCH   4  21
TORSDOF 7
ENDMDL
MODEL 6
REMARK VINA RESULT:    -7.066      6.532     10.675
REMARK INTER + INTRA:         -10.564
REMARK INTER:                  -9.780
REMARK INTRA:                  -0.784
REMARK UNBOUND:                -1.019
REMARK  Name = /home/qwerty/github/datacon2025hack/step_04_hit_selection/docking/ligands/lig_151.pdb
REMARK  9 active torsions:
REMARK  status: ('A' for Active; 'I' for Inactive)
REMARK    1  A    between atoms: C1_1  and  C2_2
REMARK    2  A    between atoms: C5_5  and  C6_6
REMARK    3  A    between atoms: C9_9  and  C10_10
REMARK    4  A    between atoms: C11_11  and  N1_12
REMARK    5  A    between atoms: N2_15  and  C13_16
REMARK    6  A    between atoms: C13_16  and  C14_17
REMARK    7  A    between atoms: C14_17  and  O2_18
REMARK    8  A    between atoms: C14_17  and  C15_19
REMARK    9  A    between atoms: C18_22  and  O3_23
REMARK                            x       y       z     vdW  Elec       q    Type
REMARK                         _______ _______ _______ _____ _____    ______ ____
ROOT
ATOM      1  N1  UNL     1      20.365   0.637  25.748  0.00  0.00    -0.269 N 
ATOM      2  C12 UNL     1      19.065   0.574  25.146  0.00  0.00    +0.304 C 
ATOM      3  O1  UNL     1      18.086   1.157  25.688  0.00  0.00    -0.253 OA
ATOM      4  N2  UNL     1      18.875  -0.172  23.938  0.00  0.00    -0.296 N 
ATOM      5  H11 UNL     1      21.088  -0.050  25.435  0.00  0.00    +0.156 HD
ATOM      6  H12 UNL     1      19.704  -0.647  23.512  0.00  0.00    +0.150 HD
ENDROOT
BRANCH   1  12
ATOM      7  C6  UNL     1      20.217   1.819  29.292  0.00  0.00    -0.016 A 
ATOM      8  C7  UNL     1      21.085   2.921  29.245  0.00  0.00    +0.009 A 
ATOM      9  C8  UNL     1      21.742   3.258  28.061  0.00  0.00    +0.006 A 
ATOM     10  C9  UNL     1      21.546   2.501  26.895  0.00  0.00    -0.029 A 
ATOM     11  C10 UNL     1      22.306   2.872  25.650  0.00  0.00    +0.045 C 
ATOM     12  C11 UNL     1      20.636   1.419  26.920  0.00  0.00    +0.038 A 
ATOM     13  C21 UNL     1      20.004   1.071  28.121  0.00  0.00    +0.032 A 
BRANCH   7  18
ATOM     14  C1  UNL     1      17.544   0.405  34.248  0.00  0.00    +0.044 C 
ATOM     15  C2  UNL     1      18.216   0.748  32.952  0.00  0.00    -0.050 A 
ATOM     16  C3  UNL     1      19.374   0.066  32.552  0.00  0.00    +0.004 A 
ATOM     17  C4  UNL     1      20.021   0.409  31.363  0.00  0.00    +0.009 A 
ATOM     18  C5  UNL     1      19.529   1.452  30.557  0.00  0.00    -0.018 A 
ATOM     19  C22 UNL     1      18.377   2.146  30.971  0.00  0.00    +0.009 A 
ATOM     20  C23 UNL     1      17.731   1.800  32.161  0.00  0.00    +0.004 A 
ENDBRANCH   7  18
ENDBRANCH   1  12
BRANCH   4  21
ATOM     21  C13 UNL     1      17.565  -0.264  23.295  0.00  0.00    +0.141 C 
BRANCH  21  22
ATOM     22  C14 UNL     1      16.969  -1.678  23.444  0.00  0.00    +0.162 C 
BRANCH  22  23
ATOM     23  C15 UNL     1      15.881  -1.710  24.499  0.00  0.00    -0.017 A 
ATOM     24  C16 UNL     1      15.355  -2.941  24.934  0.00  0.00    +0.010 A 
ATOM     25  C17 UNL     1      14.347  -2.979  25.901  0.00  0.00    +0.046 A 
ATOM     26  C18 UNL     1      13.846  -1.789  26.444  0.00  0.00    +0.117 A 
ATOM     27  C19 UNL     1      14.360  -0.562  26.016  0.00  0.00    +0.046 A 
ATOM     28  C20 UNL     1      15.369  -0.520  25.049  0.00  0.00    +0.010 A 
BRANCH  26  29
ATOM     29  O3  UNL     1      12.841  -1.815  27.408  0.00  0.00    -0.507 OA
ATOM     30  H19 UNL     1      12.715  -2.613  28.021  0.00  0.00    +0.292 HD
ENDBRANCH  26  29
ENDBRANCH  22  23
BRANCH  22  31
ATOM     31  O2  UNL     1      17.963  -2.634  23.729  0.00  0.00    -0.386 OA
ATOM     32  H16 UNL     1      17.795  -3.433  23.164  0.00  0.00    +0.210 HD
ENDBRANCH  22  31
ENDBRANCH  21  22
ENDBRANCH   4  21
TORSDOF 7
ENDMDL
MODEL 7
REMARK VINA RESULT:    -7.052      8.137     11.573
REMARK INTER + INTRA:         -10.545
REMARK INTER:                  -9.552
REMARK INTRA:                  -0.993
REMARK UNBOUND:                -1.019
REMARK  Name = /home/qwerty/github/datacon2025hack/step_04_hit_selection/docking/ligands/lig_151.pdb
REMARK  9 active torsions:
REMARK  status: ('A' for Active; 'I' for Inactive)
REMARK    1  A    between atoms: C1_1  and  C2_2
REMARK    2  A    between atoms: C5_5  and  C6_6
REMARK    3  A    between atoms: C9_9  and  C10_10
REMARK    4  A    between atoms: C11_11  and  N1_12
REMARK    5  A    between atoms: N2_15  and  C13_16
REMARK    6  A    between atoms: C13_16  and  C14_17
REMARK    7  A    between atoms: C14_17  and  O2_18
REMARK    8  A    between atoms: C14_17  and  C15_19
REMARK    9  A    between atoms: C18_22  and  O3_23
REMARK                            x       y       z     vdW  Elec       q    Type
REMARK                         _______ _______ _______ _____ _____    ______ ____
ROOT
ATOM      1  N1  UNL     1      16.093  11.575  37.017  0.00  0.00    -0.269 N 
ATOM      2  C12 UNL     1      14.977  10.891  36.431  0.00  0.00    +0.304 C 
ATOM      3  O1  UNL     1      15.066  10.417  35.265  0.00  0.00    -0.253 OA
ATOM      4  N2  UNL     1      13.753  10.769  37.164  0.00  0.00    -0.296 N 
ATOM      5  H11 UNL     1      15.920  12.174  37.856  0.00  0.00    +0.156 HD
ATOM      6  H12 UNL     1      13.707  11.175  38.126  0.00  0.00    +0.150 HD
ENDROOT
BRANCH   1  12
ATOM      7  C6  UNL     1      19.549  10.681  35.905  0.00  0.00    -0.016 A 
ATOM      8  C7  UNL     1      19.891  11.815  35.149  0.00  0.00    +0.009 A 
ATOM      9  C8  UNL     1      18.977  12.856  34.979  0.00  0.00    +0.006 A 
ATOM     10  C9  UNL     1      17.702  12.790  35.561  0.00  0.00    -0.029 A 
ATOM     11  C10 UNL     1      16.731  13.916  35.318  0.00  0.00    +0.045 C 
ATOM     12  C11 UNL     1      17.367  11.676  36.364  0.00  0.00    +0.038 A 
ATOM     13  C21 UNL     1      18.279  10.622  36.505  0.00  0.00    +0.032 A 
BRANCH   7  18
ATOM     14  C1  UNL     1      23.313   6.309  36.547  0.00  0.00    +0.044 C 
ATOM     15  C2  UNL     1      22.361   7.458  36.399  0.00  0.00    -0.050 A 
ATOM     16  C3  UNL     1      21.339   7.656  37.339  0.00  0.00    +0.004 A 
ATOM     17  C4  UNL     1      20.430   8.705  37.182  0.00  0.00    +0.009 A 
ATOM     18  C5  UNL     1      20.517   9.567  36.073  0.00  0.00    -0.018 A 
ATOM     19  C22 UNL     1      21.533   9.352  35.123  0.00  0.00    +0.009 A 
ATOM     20  C23 UNL     1      22.442   8.304  35.283  0.00  0.00    +0.004 A 
ENDBRANCH   7  18
ENDBRANCH   1  12
BRANCH   4  21
ATOM     21  C13 UNL     1      12.591  10.083  36.600  0.00  0.00    +0.141 C 
BRANCH  21  22
ATOM     22  C14 UNL     1      11.298  10.888  36.840  0.00  0.00    +0.162 C 
BRANCH  22  23
ATOM     23  C15 UNL     1      11.174  12.040  35.862  0.00  0.00    -0.017 A 
ATOM     24  C16 UNL     1      10.565  13.243  36.262  0.00  0.00    +0.010 A 
ATOM     25  C17 UNL     1      10.441  14.307  35.365  0.00  0.00    +0.046 A 
ATOM     26  C18 UNL     1      10.920  14.184  34.055  0.00  0.00    +0.117 A 
ATOM     27  C19 UNL     1      11.523  12.991  33.648  0.00  0.00    +0.046 A 
ATOM     28  C20 UNL     1      11.650  11.924  34.542  0.00  0.00    +0.010 A 
BRANCH  26  29
ATOM     29  O3  UNL     1      10.801  15.238  33.152  0.00  0.00    -0.507 OA
ATOM     30  H19 UNL     1      10.160  16.006  33.315  0.00  0.00    +0.292 HD
ENDBRANCH  26  29
ENDBRANCH  22  23
BRANCH  22  31
ATOM     31  O2  UNL     1      11.213  11.353  38.166  0.00  0.00    -0.386 OA
ATOM     32  H16 UNL     1      10.931  10.595  38.742  0.00  0.00    +0.210 HD
ENDBRANCH  22  31
ENDBRANCH  21  22
ENDBRANCH   4  21
TORSDOF 7
ENDMDL
MODEL 8
REMARK VINA RESULT:    -7.007     14.493     16.625
REMARK INTER + INTRA:         -10.484
REMARK INTER:                  -9.520
REMARK INTRA:                  -0.964
REMARK UNBOUND:                -1.019
REMARK  Name = /home/qwerty/github/datacon2025hack/step_04_hit_selection/docking/ligands/lig_151.pdb
REMARK  9 active torsions:
REMARK  status: ('A' for Active; 'I' for Inactive)
REMARK    1  A    between atoms: C1_1  and  C2_2
REMARK    2  A    between atoms: C5_5  and  C6_6
REMARK    3  A    between atoms: C9_9  and  C10_10
REMARK    4  A    between atoms: C11_11  and  N1_12
REMARK    5  A    between atoms: N2_15  and  C13_16
REMARK    6  A    between atoms: C13_16  and  C14_17
REMARK    7  A    between atoms: C14_17  and  O2_18
REMARK    8  A    between atoms: C14_17  and  C15_19
REMARK    9  A    between atoms: C18_22  and  O3_23
REMARK                            x       y       z     vdW  Elec       q    Type
REMARK                         _______ _______ _______ _____ _____    ______ ____
ROOT
ATOM      1  N1  UNL     1      11.387   4.965  20.482  0.00  0.00    -0.269 N 
ATOM      2  C12 UNL     1      11.778   6.177  21.143  0.00  0.00    +0.304 C 
ATOM      3  O1  UNL     1      11.985   6.181  22.387  0.00  0.00    -0.253 OA
ATOM      4  N2  UNL     1      11.909   7.387  20.389  0.00  0.00    -0.296 N 
ATOM      5  H11 UNL     1      10.975   5.035  19.524  0.00  0.00    +0.156 HD
ATOM      6  H12 UNL     1      11.728   7.354  19.360  0.00  0.00    +0.150 HD
ENDROOT
BRANCH   1  12
ATOM      7  C6  UNL     1      12.424   1.676  21.928  0.00  0.00    -0.016 A 
ATOM      8  C7  UNL     1      11.205   1.217  22.455  0.00  0.00    +0.009 A 
ATOM      9  C8  UNL     1      10.053   1.999  22.362  0.00  0.00    +0.006 A 
ATOM     10  C9  UNL     1      10.090   3.257  21.741  0.00  0.00    -0.029 A 
ATOM     11  C10 UNL     1       8.835   4.087  21.701  0.00  0.00    +0.045 C 
ATOM     12  C11 UNL     1      11.301   3.706  21.165  0.00  0.00    +0.038 A 
ATOM     13  C21 UNL     1      12.459   2.928  21.289  0.00  0.00    +0.032 A 
BRANCH   7  18
ATOM     14  C1  UNL     1      17.240  -1.533  22.380  0.00  0.00    +0.044 C 
ATOM     15  C2  UNL     1      15.982  -0.728  22.245  0.00  0.00    -0.050 A 
ATOM     16  C3  UNL     1      15.837   0.186  21.191  0.00  0.00    +0.004 A 
ATOM     17  C4  UNL     1      14.680   0.963  21.085  0.00  0.00    +0.009 A 
ATOM     18  C5  UNL     1      13.653   0.850  22.040  0.00  0.00    -0.018 A 
ATOM     19  C22 UNL     1      13.812  -0.055  23.105  0.00  0.00    +0.009 A 
ATOM     20  C23 UNL     1      14.969  -0.832  23.209  0.00  0.00    +0.004 A 
ENDBRANCH   7  18
ENDBRANCH   1  12
BRANCH   4  21
ATOM     21  C13 UNL     1      12.301   8.644  21.026  0.00  0.00    +0.141 C 
BRANCH  21  22
ATOM     22  C14 UNL     1      11.476   9.827  20.479  0.00  0.00    +0.162 C 
BRANCH  22  23
ATOM     23  C15 UNL     1      10.217  10.046  21.294  0.00  0.00    -0.017 A 
ATOM     24  C16 UNL     1      10.178   9.668  22.648  0.00  0.00    +0.010 A 
ATOM     25  C17 UNL     1       9.019   9.860  23.405  0.00  0.00    +0.046 A 
ATOM     26  C18 UNL     1       7.882  10.430  22.819  0.00  0.00    +0.117 A 
ATOM     27  C19 UNL     1       7.910  10.806  21.474  0.00  0.00    +0.046 A 
ATOM     28  C20 UNL     1       9.068  10.616  20.713  0.00  0.00    +0.010 A 
BRANCH  26  29
ATOM     29  O3  UNL     1       6.720  10.626  23.563  0.00  0.00    -0.507 OA
ATOM     30  H19 UNL     1       6.325   9.886  24.132  0.00  0.00    +0.292 HD
ENDBRANCH  26  29
ENDBRANCH  22  23
BRANCH  22  31
ATOM     31  O2  UNL     1      11.162   9.656  19.117  0.00  0.00    -0.386 OA
ATOM     32  H16 UNL     1      10.175   9.586  19.035  0.00  0.00    +0.210 HD
ENDBRANCH  22  31
ENDBRANCH  21  22
ENDBRANCH   4  21
TORSDOF 7
ENDMDL
MODEL 9
REMARK VINA RESULT:    -6.992     12.828     14.385
REMARK INTER + INTRA:         -10.463
REMARK INTER:                  -9.479
REMARK INTRA:                  -0.984
REMARK UNBOUND:                -1.019
REMARK  Name = /home/qwerty/github/datacon2025hack/step_04_hit_selection/docking/ligands/lig_151.pdb
REMARK  9 active torsions:
REMARK  status: ('A' for Active; 'I' for Inactive)
REMARK    1  A    between atoms: C1_1  and  C2_2
REMARK    2  A    between atoms: C5_5  and  C6_6
REMARK    3  A    between atoms: C9_9  and  C10_10
REMARK    4  A    between atoms: C11_11  and  N1_12
REMARK    5  A    between atoms: N2_15  and  C13_16
REMARK    6  A    between atoms: C13_16  and  C14_17
REMARK    7  A    between atoms: C14_17  and  O2_18
REMARK    8  A    between atoms: C14_17  and  C15_19
REMARK    9  A    between atoms: C18_22  and  O3_23
REMARK                            x       y       z     vdW  Elec       q    Type
REMARK                         _______ _______ _______ _____ _____    ______ ____
ROOT
ATOM      1  N1  UNL     1      12.326  14.925  31.079  0.00  0.00    -0.269 N 
ATOM      2  C12 UNL     1      12.645  14.255  32.306  0.00  0.00    +0.304 C 
ATOM      3  O1  UNL     1      13.079  13.070  32.287  0.00  0.00    -0.253 OA
ATOM      4  N2  UNL     1      12.448  14.926  33.555  0.00  0.00    -0.296 N 
ATOM      5  H11 UNL     1      11.736  15.787  31.125  0.00  0.00    +0.156 HD
ATOM      6  H12 UNL     1      12.084  15.907  33.541  0.00  0.00    +0.150 HD
ENDROOT
BRANCH   1  12
ATOM      7  C6  UNL     1      11.743  12.920  27.976  0.00  0.00    -0.016 A 
ATOM      8  C7  UNL     1      12.958  13.114  27.298  0.00  0.00    +0.009 A 
ATOM      9  C8  UNL     1      13.954  13.925  27.844  0.00  0.00    +0.006 A 
ATOM     10  C9  UNL     1      13.760  14.562  29.080  0.00  0.00    -0.029 A 
ATOM     11  C10 UNL     1      14.842  15.463  29.612  0.00  0.00    +0.045 C 
ATOM     12  C11 UNL     1      12.561  14.334  29.792  0.00  0.00    +0.038 A 
ATOM     13  C21 UNL     1      11.555  13.541  29.224  0.00  0.00    +0.032 A 
BRANCH   7  18
ATOM     14  C1  UNL     1       7.576   9.608  25.660  0.00  0.00    +0.044 C 
ATOM     15  C2  UNL     1       8.657  10.441  26.282  0.00  0.00    -0.050 A 
ATOM     16  C3  UNL     1       8.338  11.410  27.245  0.00  0.00    +0.004 A 
ATOM     17  C4  UNL     1       9.340  12.211  27.799  0.00  0.00    +0.009 A 
ATOM     18  C5  UNL     1      10.678  12.068  27.389  0.00  0.00    -0.018 A 
ATOM     19  C22 UNL     1      10.990  11.107  26.409  0.00  0.00    +0.009 A 
ATOM     20  C23 UNL     1       9.987  10.306  25.857  0.00  0.00    +0.004 A 
ENDBRANCH   7  18
ENDBRANCH   1  12
BRANCH   4  21
ATOM     21  C13 UNL     1      12.757  14.277  34.828  0.00  0.00    +0.141 C 
BRANCH  21  22
ATOM     22  C14 UNL     1      11.476  14.016  35.647  0.00  0.00    +0.162 C 
BRANCH  22  23
ATOM     23  C15 UNL     1      11.306  12.542  35.953  0.00  0.00    -0.017 A 
ATOM     24  C16 UNL     1      11.099  12.114  37.277  0.00  0.00    +0.010 A 
ATOM     25  C17 UNL     1      10.948  10.756  37.568  0.00  0.00    +0.046 A 
ATOM     26  C18 UNL     1      11.005   9.805  36.542  0.00  0.00    +0.117 A 
ATOM     27  C19 UNL     1      11.213  10.219  35.224  0.00  0.00    +0.046 A 
ATOM     28  C20 UNL     1      11.364  11.577  34.928  0.00  0.00    +0.010 A 
BRANCH  26  29
ATOM     29  O3  UNL     1      10.856   8.448  36.820  0.00  0.00    -0.507 OA
ATOM     30  H19 UNL     1      11.118   7.737  36.147  0.00  0.00    +0.292 HD
ENDBRANCH  26  29
ENDBRANCH  22  23
BRANCH  22  31
ATOM     31  O2  UNL     1      10.334  14.523  34.999  0.00  0.00    -0.386 OA
ATOM     32  H16 UNL     1      10.631  15.022  34.193  0.00  0.00    +0.210 HD
ENDBRANCH  22  31
ENDBRANCH  21  22
ENDBRANCH   4  21
TORSDOF 7
ENDMDL
