REMARK  Name = /home/qwerty/github/datacon2025hack/step_04_hit_selection/docking/ligands/lig_595.pdb
REMARK  4 active torsions:
REMARK  status: ('A' for Active; 'I' for Inactive)
REMARK    1  A    between atoms: C1_2  and  C15_21
REMARK    2  A    between atoms: N1_3  and  C2_4
REMARK    3  A    between atoms: C4_7  and  C5_9
REMARK    4  A    between atoms: C8_12  and  C9_13
REMARK                            x       y       z     vdW  Elec       q    Type
REMARK                         _______ _______ _______ _____ _____    ______ ____
ROOT
ATOM      1  C2  UNL     1       1.718  -0.387   1.553  0.00  0.00    +0.108 C 
ATOM      2  C3  UNL     1       0.312  -0.398   1.036  0.00  0.00    +0.132 C 
ATOM      3  N2  UNL     1       0.319  -1.808   0.603  0.00  0.00    -0.291 N 
ATOM      4  C4  UNL     1      -0.578  -2.736  -0.006  0.00  0.00    +0.282 C 
ATOM      5  O2  UNL     1      -0.197  -3.917  -0.222  0.00  0.00    -0.267 OA
ATOM      6  C14 UNL     1       1.706  -1.815   1.104  0.00  0.00    +0.132 C 
ENDROOT
BRANCH   4   7
ATOM      7  C5  UNL     1      -1.936  -2.320  -0.380  0.00  0.00    +0.190 A 
ATOM      8  C6  UNL     1      -2.897  -3.118  -0.969  0.00  0.00    +0.055 A 
ATOM      9  C7  UNL     1      -4.003  -2.311  -1.137  0.00  0.00    +0.050 A 
ATOM     10  C8  UNL     1      -3.646  -1.067  -0.638  0.00  0.00    +0.136 A 
ATOM     11  O3  UNL     1      -2.409  -1.110  -0.196  0.00  0.00    -0.450 OA
BRANCH  10  12
ATOM     12  C9  UNL     1      -4.486   0.151  -0.588  0.00  0.00    +0.020 A 
ATOM     13  C10 UNL     1      -3.964   1.333  -0.038  0.00  0.00    +0.031 A 
ATOM     14  C11 UNL     1      -4.754   2.484   0.009  0.00  0.00    +0.111 A 
ATOM     15  N3  UNL     1      -6.023   2.461  -0.475  0.00  0.00    -0.263 NA
ATOM     16  C12 UNL     1      -6.558   1.334  -1.014  0.00  0.00    +0.111 A 
ATOM     17  C13 UNL     1      -5.803   0.160  -1.081  0.00  0.00    +0.031 A 
ENDBRANCH  10  12
ENDBRANCH   4   7
BRANCH   1  20
ATOM     18  O1  UNL     1       4.523  -0.357   1.871  0.00  0.00    -0.269 OA
ATOM     19  C1  UNL     1       4.051   0.394   0.974  0.00  0.00    +0.261 C 
ATOM     20  N1  UNL     1       2.631   0.446   0.765  0.00  0.00    -0.304 N 
ATOM     21  H1  UNL     1       2.238   1.138   0.090  0.00  0.00    +0.149 HD
BRANCH  19  22
ATOM     22  C15 UNL     1       4.977   1.206   0.159  0.00  0.00    +0.102 A 
ATOM     23  C16 UNL     1       4.642   2.014  -0.914  0.00  0.00    +0.032 A 
ATOM     24  C17 UNL     1       5.824   2.566  -1.368  0.00  0.00    +0.020 A 
ATOM     25  C18 UNL     1       6.827   2.073  -0.559  0.00  0.00    +0.083 A 
ATOM     26  N4  UNL     1       6.309   1.247   0.366  0.00  0.00    -0.357 N 
ATOM     27  H16 UNL     1       6.845   0.737   1.103  0.00  0.00    +0.165 HD
ENDBRANCH  19  22
ENDBRANCH   1  20
TORSDOF 4
