REMARK  Name = /home/qwerty/github/datacon2025hack/step_04_hit_selection/docking/ligands/lig_141.pdb
REMARK  5 active torsions:
REMARK  status: ('A' for Active; 'I' for Inactive)
REMARK    1  A    between atoms: C1_1  and  C2_2
REMARK    2  A    between atoms: C5_5  and  C6_6
REMARK    3  A    between atoms: N1_8  and  C7_9
REMARK    4  A    between atoms: C11_13  and  N2_14
REMARK    5  A    between atoms: C12_15  and  C13_17
REMARK                            x       y       z     vdW  Elec       q    Type
REMARK                         _______ _______ _______ _____ _____    ______ ____
ROOT
ATOM      1  C7  UNL     1      -0.428  -0.049   0.200  0.00  0.00    +0.075 C 
ATOM      2  C8  UNL     1      -0.640  -1.353   1.017  0.00  0.00    +0.022 C 
ATOM      3  C9  UNL     1      -1.048  -1.075   2.467  0.00  0.00    +0.004 C 
ATOM      4  C10 UNL     1      -2.358  -0.267   2.552  0.00  0.00    +0.022 C 
ATOM      5  C11 UNL     1      -2.543   0.753   1.396  0.00  0.00    +0.075 C 
ATOM      6  C16 UNL     1      -1.183   1.163   0.803  0.00  0.00    +0.044 C 
ENDROOT
BRANCH   1   9
ATOM      7  C6  UNL     1       1.878  -0.528  -0.757  0.00  0.00    +0.247 C 
ATOM      8  O1  UNL     1       1.391  -1.370  -1.559  0.00  0.00    -0.270 OA
ATOM      9  N1  UNL     1       1.004   0.252   0.077  0.00  0.00    -0.308 N 
ATOM     10  H6  UNL     1       1.392   1.106   0.537  0.00  0.00    +0.149 HD
BRANCH   7  15
ATOM     11  C1  UNL     1       7.633   0.178  -0.635  0.00  0.00    +0.044 C 
ATOM     12  C2  UNL     1       6.141   0.027  -0.667  0.00  0.00    -0.048 A 
ATOM     13  C3  UNL     1       5.491  -0.324  -1.858  0.00  0.00    +0.004 A 
ATOM     14  C4  UNL     1       4.105  -0.503  -1.879  0.00  0.00    +0.016 A 
ATOM     15  C5  UNL     1       3.345  -0.336  -0.709  0.00  0.00    +0.072 A 
ATOM     16  C17 UNL     1       4.005  -0.017   0.495  0.00  0.00    +0.136 A 
ATOM     17  F1  UNL     1       3.322   0.071   1.664  0.00  0.00    -0.205 F 
ATOM     18  C18 UNL     1       5.392   0.160   0.512  0.00  0.00    +0.042 A 
ENDBRANCH   7  15
ENDBRANCH   1   9
BRANCH   5  19
ATOM     19  N2  UNL     1      -3.414   0.209   0.345  0.00  0.00    -0.312 N 
ATOM     20  C12 UNL     1      -4.060   1.044  -0.626  0.00  0.00    +0.216 C 
ATOM     21  O2  UNL     1      -3.899   2.294  -0.602  0.00  0.00    -0.276 OA
ATOM     22  H15 UNL     1      -3.588  -0.821   0.298  0.00  0.00    +0.149 HD
BRANCH  20  23
ATOM     23  C13 UNL     1      -4.894   0.427  -1.708  0.00  0.00    +0.075 C 
ATOM     24  C14 UNL     1      -6.300   0.995  -1.834  0.00  0.00    +0.013 C 
ATOM     25  C15 UNL     1      -6.088  -0.371  -1.207  0.00  0.00    +0.013 C 
ENDBRANCH  20  23
ENDBRANCH   5  19
TORSDOF 4
