REMARK  Name = /home/qwerty/github/datacon2025hack/step_04_hit_selection/docking/ligands/lig_497.pdb
REMARK  6 active torsions:
REMARK  status: ('A' for Active; 'I' for Inactive)
REMARK    1  A    between atoms: C1_1  and  C2_2
REMARK    2  A    between atoms: C4_5  and  C5_6
REMARK    3  A    between atoms: C8_11  and  N3_12
REMARK    4  A    between atoms: C9_13  and  C10_15
REMARK    5  A    between atoms: C11_19  and  C12_20
REMARK    6  A    between atoms: C13_21  and  C14_22
REMARK                            x       y       z     vdW  Elec       q    Type
REMARK                         _______ _______ _______ _____ _____    ______ ____
ROOT
ATOM      1  C5  UNL     1       2.400   0.510  -0.463  0.00  0.00    +0.265 C 
ATOM      2  O1  UNL     1       2.223   1.343  -1.393  0.00  0.00    -0.268 OA
ATOM      3  N2  UNL     1       1.259  -0.098   0.173  0.00  0.00    -0.292 N 
ATOM      4  C6  UNL     1       1.249  -1.484   0.621  0.00  0.00    +0.110 C 
ATOM      5  C7  UNL     1      -0.208  -1.921   0.570  0.00  0.00    +0.043 C 
ATOM      6  C8  UNL     1      -1.016  -0.624   0.639  0.00  0.00    +0.095 C 
ATOM      7  C13 UNL     1      -0.087   0.456   0.067  0.00  0.00    +0.094 C 
ATOM      8  C14 UNL     1      -0.195   1.771   0.847  0.00  0.00    +0.030 C 
ENDROOT
BRANCH   1  13
ATOM      9  C1  UNL     1       7.317   0.023  -0.586  0.00  0.00    +0.086 C 
ATOM     10  C2  UNL     1       5.906  -0.018  -0.104  0.00  0.00    +0.104 A 
ATOM     11  N1  UNL     1       5.556  -0.409   1.140  0.00  0.00    -0.240 NA
ATOM     12  C3  UNL     1       4.214  -0.281   1.161  0.00  0.00    +0.143 A 
ATOM     13  C4  UNL     1       3.782   0.179  -0.066  0.00  0.00    +0.122 A 
ATOM     14  N7  UNL     1       4.853   0.355  -0.856  0.00  0.00    -0.338 N 
ATOM     15  H19 UNL     1       4.871   0.707  -1.840  0.00  0.00    +0.167 HD
ENDBRANCH   1  13
BRANCH   6  16
ATOM     16  N3  UNL     1      -2.256  -0.726  -0.137  0.00  0.00    -0.305 N 
ATOM     17  C9  UNL     1      -3.477  -0.094   0.280  0.00  0.00    +0.264 C 
ATOM     18  O2  UNL     1      -3.501   0.589   1.339  0.00  0.00    -0.268 OA
ATOM     19  H10 UNL     1      -2.200  -1.121  -1.102  0.00  0.00    +0.149 HD
BRANCH  17  20
ATOM     20  C10 UNL     1      -4.710  -0.233  -0.522  0.00  0.00    +0.143 A 
ATOM     21  N4  UNL     1      -4.892  -1.108  -1.528  0.00  0.00    -0.252 N 
ATOM     22  N5  UNL     1      -6.123  -0.951  -1.988  0.00  0.00    -0.067 NA
ATOM     23  N6  UNL     1      -6.758   0.001  -1.319  0.00  0.00    -0.134 NA
ATOM     24  C11 UNL     1      -5.896   0.467  -0.394  0.00  0.00    +0.092 A 
ATOM     25  C12 UNL     1      -6.219   1.556   0.578  0.00  0.00    +0.070 C 
ATOM     26  H11 UNL     1      -4.217  -1.815  -1.892  0.00  0.00    +0.191 HD
ENDBRANCH  17  20
ENDBRANCH   6  16
TORSDOF 3
