REMARK  Name = /home/qwerty/github/datacon2025hack/step_04_hit_selection/docking/ligands/lig_767.pdb
REMARK  6 active torsions:
REMARK  status: ('A' for Active; 'I' for Inactive)
REMARK    1  A    between atoms: C1_1  and  C2_2
REMARK    2  A    between atoms: C2_2  and  C3_3
REMARK    3  A    between atoms: C2_2  and  N1_4
REMARK    4  A    between atoms: N2_7  and  C6_8
REMARK    5  A    between atoms: C19_23  and  C20_24
REMARK    6  A    between atoms: N5_26  and  C21_27
REMARK                            x       y       z     vdW  Elec       q    Type
REMARK                         _______ _______ _______ _____ _____    ______ ____
ROOT
ATOM      1  N1  UNL     1      -2.077  -1.983  -0.152  0.00  0.00    -0.286 NA
ATOM      2  C4  UNL     1      -1.312  -2.663   0.924  0.00  0.00    +0.104 C 
ATOM      3  C5  UNL     1       0.189  -2.775   0.617  0.00  0.00    +0.122 C 
ATOM      4  N2  UNL     1       0.758  -1.467   0.262  0.00  0.00    -0.312 N 
ATOM      5  C18 UNL     1      -0.150  -0.369  -0.090  0.00  0.00    +0.135 C 
ATOM      6  C19 UNL     1      -1.344  -0.920  -0.888  0.00  0.00    +0.161 C 
ENDROOT
BRANCH   4   7
ATOM      7  C6  UNL     1       2.178  -1.223   0.366  0.00  0.00    +0.122 A 
ATOM      8  C7  UNL     1       3.107  -2.279   0.323  0.00  0.00    +0.044 A 
ATOM      9  C8  UNL     1       4.473  -2.006   0.426  0.00  0.00    +0.013 A 
ATOM     10  C9  UNL     1       4.914  -0.686   0.567  0.00  0.00    +0.003 A 
ATOM     11  C10 UNL     1       6.280  -0.386   0.670  0.00  0.00    +0.011 A 
ATOM     12  C11 UNL     1       6.700   0.940   0.808  0.00  0.00    +0.011 A 
ATOM     13  C12 UNL     1       5.758   1.979   0.843  0.00  0.00    +0.003 A 
ATOM     14  C13 UNL     1       6.158   3.315   0.980  0.00  0.00    +0.011 A 
ATOM     15  C14 UNL     1       5.198   4.328   1.012  0.00  0.00    +0.020 A 
ATOM     16  C15 UNL     1       3.846   3.997   0.906  0.00  0.00    +0.111 A 
ATOM     17  N3  UNL     1       3.468   2.697   0.774  0.00  0.00    -0.253 NA
ATOM     18  C16 UNL     1       4.379   1.685   0.740  0.00  0.00    +0.097 A 
ATOM     19  C17 UNL     1       3.958   0.353   0.602  0.00  0.00    +0.099 A 
ATOM     20  N4  UNL     1       2.634   0.054   0.501  0.00  0.00    -0.230 NA
ENDBRANCH   4   7
BRANCH   6  21
ATOM     21  C20 UNL     1      -2.286   0.209  -1.216  0.00  0.00    +0.236 C 
ATOM     22  O1  UNL     1      -2.392   0.594  -2.411  0.00  0.00    -0.274 OA
ATOM     23  N5  UNL     1      -3.074   0.817  -0.179  0.00  0.00    -0.284 N 
ATOM     24  H22 UNL     1      -3.152   0.316   0.734  0.00  0.00    +0.155 HD
BRANCH  23  25
ATOM     25  C21 UNL     1      -3.856   2.010  -0.358  0.00  0.00    +0.036 A 
ATOM     26  C22 UNL     1      -3.407   3.066  -1.173  0.00  0.00    +0.023 A 
ATOM     27  C23 UNL     1      -4.176   4.226  -1.310  0.00  0.00    +0.005 A 
ATOM     28  C24 UNL     1      -5.389   4.348  -0.627  0.00  0.00    +0.038 A 
ATOM     29  C25 UNL     1      -5.831   3.314   0.202  0.00  0.00    +0.125 A 
ATOM     30  F1  UNL     1      -7.003   3.437   0.873  0.00  0.00    -0.205 F 
ATOM     31  C26 UNL     1      -5.064   2.153   0.343  0.00  0.00    +0.061 A 
ENDBRANCH  23  25
ENDBRANCH   6  21
BRANCH   1  33
ATOM     32  C1  UNL     1      -4.117  -3.390  -0.310  0.00  0.00    +0.024 C 
ATOM     33  C2  UNL     1      -2.874  -2.869  -1.042  0.00  0.00    +0.051 C 
ATOM     34  C3  UNL     1      -2.060  -4.026  -1.651  0.00  0.00    +0.024 C 
ENDBRANCH   1  33
TORSDOF 4
