MODEL 1
REMARK VINA RESULT:    -5.980      0.000      0.000
REMARK INTER + INTRA:          -9.538
REMARK INTER:                  -7.728
REMARK INTRA:                  -1.810
REMARK UNBOUND:                -1.810
REMARK  Name = /home/qwerty/github/datacon2025hack/step_04_hit_selection/docking/ligands/lig_547.pdb
REMARK  7 active torsions:
REMARK  status: ('A' for Active; 'I' for Inactive)
REMARK    1  A    between atoms: C1_1  and  C2_2
REMARK    2  A    between atoms: C4_4  and  C5_5
REMARK    3  A    between atoms: C7_7  and  C8_8
REMARK    4  A    between atoms: C8_8  and  N1_9
REMARK    5  A    between atoms: C11_12  and  C12_13
REMARK    6  A    between atoms: C12_13  and  N2_14
REMARK    7  A    between atoms: C13_15  and  C14_17
REMARK                            x       y       z     vdW  Elec       q    Type
REMARK                         _______ _______ _______ _____ _____    ______ ____
ROOT
ATOM      1  C12 UNL     1      16.342   0.912  26.980  0.00  0.00    +0.123 C 
ENDROOT
BRANCH   1   5
ATOM      2  N1  UNL     1      18.334  -0.021  25.798  0.00  0.00    -0.294 NA
ATOM      3  C9  UNL     1      17.821  -1.235  25.145  0.00  0.00    +0.086 C 
ATOM      4  C10 UNL     1      16.445  -0.631  24.922  0.00  0.00    +0.036 C 
ATOM      5  C11 UNL     1      17.010   0.597  25.628  0.00  0.00    +0.075 C 
BRANCH   2   6
ATOM      6  C8  UNL     1      19.450   0.658  25.091  0.00  0.00    +0.120 C 
BRANCH   6  13
ATOM      7  C1  UNL     1      22.559   0.527  29.077  0.00  0.00    +0.044 C 
ATOM      8  C2  UNL     1      22.015   1.252  27.882  0.00  0.00    -0.050 A 
ATOM      9  C3  UNL     1      22.558   2.486  27.499  0.00  0.00    +0.006 A 
ATOM     10  C4  UNL     1      22.090   3.142  26.352  0.00  0.00    -0.050 A 
ATOM     11  C5  UNL     1      22.713   4.434  25.914  0.00  0.00    +0.044 C 
ATOM     12  C6  UNL     1      21.090   2.542  25.572  0.00  0.00    +0.008 A 
ATOM     13  C7  UNL     1      20.514   1.319  25.959  0.00  0.00    -0.033 A 
ATOM     14  C21 UNL     1      21.017   0.661  27.095  0.00  0.00    +0.008 A 
ENDBRANCH   6  13
ENDBRANCH   2   6
ENDBRANCH   1   5
BRANCH   1  15
ATOM     15  N2  UNL     1      17.296   0.885  28.092  0.00  0.00    -0.309 N 
ATOM     16  C13 UNL     1      17.672   2.066  28.821  0.00  0.00    +0.262 C 
ATOM     17  O1  UNL     1      17.075   3.155  28.598  0.00  0.00    -0.269 OA
ATOM     18  H18 UNL     1      17.682  -0.041  28.380  0.00  0.00    +0.149 HD
BRANCH  16  19
ATOM     19  C14 UNL     1      18.756   2.013  29.824  0.00  0.00    +0.126 A 
ATOM     20  C15 UNL     1      18.900   0.886  30.681  0.00  0.00    +0.035 A 
ATOM     21  C16 UNL     1      19.933   0.854  31.635  0.00  0.00    +0.030 A 
ATOM     22  C17 UNL     1      20.781   1.952  31.696  0.00  0.00    +0.065 A 
ATOM     23  N3  UNL     1      21.826   2.153  32.514  0.00  0.00    -0.359 N 
ATOM     24  C18 UNL     1      22.322   3.371  32.182  0.00  0.00    +0.085 A 
ATOM     25  C19 UNL     1      21.586   3.945  31.146  0.00  0.00    +0.047 A 
ATOM     26  C20 UNL     1      20.614   3.015  30.861  0.00  0.00    +0.089 A 
ATOM     27  N4  UNL     1      19.626   3.065  29.936  0.00  0.00    -0.241 NA
ATOM     28  H21 UNL     1      22.185   1.509  33.253  0.00  0.00    +0.165 HD
ENDBRANCH  16  19
ENDBRANCH   1  15
TORSDOF 5
ENDMDL
MODEL 2
REMARK VINA RESULT:    -5.954      3.130      5.358
REMARK INTER + INTRA:          -9.504
REMARK INTER:                  -8.738
REMARK INTRA:                  -0.766
REMARK UNBOUND:                -1.810
REMARK  Name = /home/qwerty/github/datacon2025hack/step_04_hit_selection/docking/ligands/lig_547.pdb
REMARK  7 active torsions:
REMARK  status: ('A' for Active; 'I' for Inactive)
REMARK    1  A    between atoms: C1_1  and  C2_2
REMARK    2  A    between atoms: C4_4  and  C5_5
REMARK    3  A    between atoms: C7_7  and  C8_8
REMARK    4  A    between atoms: C8_8  and  N1_9
REMARK    5  A    between atoms: C11_12  and  C12_13
REMARK    6  A    between atoms: C12_13  and  N2_14
REMARK    7  A    between atoms: C13_15  and  C14_17
REMARK                            x       y       z     vdW  Elec       q    Type
REMARK                         _______ _______ _______ _____ _____    ______ ____
ROOT
ATOM      1  C12 UNL     1      19.440   3.591  30.401  0.00  0.00    +0.123 C 
ENDROOT
BRANCH   1   5
ATOM      2  N1  UNL     1      21.303   1.930  30.482  0.00  0.00    -0.294 NA
ATOM      3  C9  UNL     1      20.940   1.045  31.599  0.00  0.00    +0.086 C 
ATOM      4  C10 UNL     1      19.450   1.193  31.336  0.00  0.00    +0.036 C 
ATOM      5  C11 UNL     1      19.872   2.124  30.206  0.00  0.00    +0.075 C 
BRANCH   2   6
ATOM      6  C8  UNL     1      22.082   1.290  29.391  0.00  0.00    +0.120 C 
BRANCH   6  13
ATOM      7  C1  UNL     1      22.948   4.448  25.538  0.00  0.00    +0.044 C 
ATOM      8  C2  UNL     1      22.206   3.277  26.111  0.00  0.00    -0.050 A 
ATOM      9  C3  UNL     1      21.322   2.541  25.310  0.00  0.00    +0.006 A 
ATOM     10  C4  UNL     1      20.668   1.414  25.825  0.00  0.00    -0.050 A 
ATOM     11  C5  UNL     1      19.768   0.597  24.947  0.00  0.00    +0.044 C 
ATOM     12  C6  UNL     1      20.924   1.008  27.143  0.00  0.00    +0.008 A 
ATOM     13  C7  UNL     1      21.785   1.752  27.970  0.00  0.00    -0.033 A 
ATOM     14  C21 UNL     1      22.455   2.863  27.427  0.00  0.00    +0.008 A 
ENDBRANCH   6  13
ENDBRANCH   2   6
ENDBRANCH   1   5
BRANCH   1  15
ATOM     15  N2  UNL     1      20.427   4.366  31.157  0.00  0.00    -0.309 N 
ATOM     16  C13 UNL     1      21.195   5.429  30.569  0.00  0.00    +0.262 C 
ATOM     17  O1  UNL     1      20.935   5.814  29.396  0.00  0.00    -0.269 OA
ATOM     18  H18 UNL     1      20.540   4.150  32.173  0.00  0.00    +0.149 HD
BRANCH  16  19
ATOM     19  C14 UNL     1      22.289   6.070  31.328  0.00  0.00    +0.126 A 
ATOM     20  C15 UNL     1      22.973   5.362  32.356  0.00  0.00    +0.035 A 
ATOM     21  C16 UNL     1      24.008   5.989  33.074  0.00  0.00    +0.030 A 
ATOM     22  C17 UNL     1      24.318   7.300  32.736  0.00  0.00    +0.065 A 
ATOM     23  N3  UNL     1      25.252   8.100  33.271  0.00  0.00    -0.359 N 
ATOM     24  C18 UNL     1      25.157   9.275  32.602  0.00  0.00    +0.085 A 
ATOM     25  C19 UNL     1      24.155   9.219  31.634  0.00  0.00    +0.047 A 
ATOM     26  C20 UNL     1      23.642   7.948  31.747  0.00  0.00    +0.089 A 
ATOM     27  N4  UNL     1      22.643   7.363  31.044  0.00  0.00    -0.241 NA
ATOM     28  H21 UNL     1      25.916   7.870  34.045  0.00  0.00    +0.165 HD
ENDBRANCH  16  19
ENDBRANCH   1  15
TORSDOF 5
ENDMDL
MODEL 3
REMARK VINA RESULT:    -5.938      8.488     11.602
REMARK INTER + INTRA:          -9.484
REMARK INTER:                  -8.827
REMARK INTRA:                  -0.657
REMARK UNBOUND:                -1.810
REMARK  Name = /home/qwerty/github/datacon2025hack/step_04_hit_selection/docking/ligands/lig_547.pdb
REMARK  7 active torsions:
REMARK  status: ('A' for Active; 'I' for Inactive)
REMARK    1  A    between atoms: C1_1  and  C2_2
REMARK    2  A    between atoms: C4_4  and  C5_5
REMARK    3  A    between atoms: C7_7  and  C8_8
REMARK    4  A    between atoms: C8_8  and  N1_9
REMARK    5  A    between atoms: C11_12  and  C12_13
REMARK    6  A    between atoms: C12_13  and  N2_14
REMARK    7  A    between atoms: C13_15  and  C14_17
REMARK                            x       y       z     vdW  Elec       q    Type
REMARK                         _______ _______ _______ _____ _____    ______ ____
ROOT
ATOM      1  C12 UNL     1      21.503   9.146  36.372  0.00  0.00    +0.123 C 
ENDROOT
BRANCH   1   5
ATOM      2  N1  UNL     1      23.068   7.204  36.246  0.00  0.00    -0.294 NA
ATOM      3  C9  UNL     1      23.066   6.658  37.611  0.00  0.00    +0.086 C 
ATOM      4  C10 UNL     1      21.614   7.040  37.847  0.00  0.00    +0.036 C 
ATOM      5  C11 UNL     1      21.669   7.615  36.436  0.00  0.00    +0.075 C 
BRANCH   2   6
ATOM      6  C8  UNL     1      23.299   6.211  35.165  0.00  0.00    +0.120 C 
BRANCH   6  13
ATOM      7  C1  UNL     1      21.736   5.919  30.364  0.00  0.00    +0.044 C 
ATOM      8  C2  UNL     1      22.558   6.598  31.420  0.00  0.00    -0.050 A 
ATOM      9  C3  UNL     1      23.255   7.777  31.122  0.00  0.00    +0.006 A 
ATOM     10  C4  UNL     1      23.980   8.444  32.119  0.00  0.00    -0.050 A 
ATOM     11  C5  UNL     1      24.676   9.736  31.809  0.00  0.00    +0.044 C 
ATOM     12  C6  UNL     1      23.984   7.938  33.427  0.00  0.00    +0.008 A 
ATOM     13  C7  UNL     1      23.316   6.740  33.736  0.00  0.00    -0.033 A 
ATOM     14  C21 UNL     1      22.568   6.100  32.731  0.00  0.00    +0.008 A 
ENDBRANCH   6  13
ENDBRANCH   2   6
ENDBRANCH   1   5
BRANCH   1  15
ATOM     15  N2  UNL     1      20.119   9.566  36.607  0.00  0.00    -0.309 N 
ATOM     16  C13 UNL     1      19.557  10.751  36.018  0.00  0.00    +0.262 C 
ATOM     17  O1  UNL     1      20.219  11.399  35.162  0.00  0.00    -0.269 OA
ATOM     18  H18 UNL     1      19.518   8.951  37.199  0.00  0.00    +0.149 HD
BRANCH  16  19
ATOM     19  C14 UNL     1      18.212  11.218  36.415  0.00  0.00    +0.126 A 
ATOM     20  C15 UNL     1      17.329  10.365  37.136  0.00  0.00    +0.035 A 
ATOM     21  C16 UNL     1      16.050  10.822  37.499  0.00  0.00    +0.030 A 
ATOM     22  C17 UNL     1      15.702  12.114  37.126  0.00  0.00    +0.065 A 
ATOM     23  N3  UNL     1      14.551  12.766  37.353  0.00  0.00    -0.359 N 
ATOM     24  C18 UNL     1      14.705  13.989  36.790  0.00  0.00    +0.085 A 
ATOM     25  C19 UNL     1      15.963  14.114  36.203  0.00  0.00    +0.047 A 
ATOM     26  C20 UNL     1      16.571  12.902  36.435  0.00  0.00    +0.089 A 
ATOM     27  N4  UNL     1      17.807  12.482  36.076  0.00  0.00    -0.241 NA
ATOM     28  H21 UNL     1      13.709  12.407  37.857  0.00  0.00    +0.165 HD
ENDBRANCH  16  19
ENDBRANCH   1  15
TORSDOF 5
ENDMDL
MODEL 4
REMARK VINA RESULT:    -5.896      2.085      6.751
REMARK INTER + INTRA:          -9.429
REMARK INTER:                  -7.288
REMARK INTRA:                  -2.140
REMARK UNBOUND:                -1.810
REMARK  Name = /home/qwerty/github/datacon2025hack/step_04_hit_selection/docking/ligands/lig_547.pdb
REMARK  7 active torsions:
REMARK  status: ('A' for Active; 'I' for Inactive)
REMARK    1  A    between atoms: C1_1  and  C2_2
REMARK    2  A    between atoms: C4_4  and  C5_5
REMARK    3  A    between atoms: C7_7  and  C8_8
REMARK    4  A    between atoms: C8_8  and  N1_9
REMARK    5  A    between atoms: C11_12  and  C12_13
REMARK    6  A    between atoms: C12_13  and  N2_14
REMARK    7  A    between atoms: C13_15  and  C14_17
REMARK                            x       y       z     vdW  Elec       q    Type
REMARK                         _______ _______ _______ _____ _____    ______ ____
ROOT
ATOM      1  C12 UNL     1      21.336   6.862  30.824  0.00  0.00    +0.123 C 
ENDROOT
BRANCH   1   5
ATOM      2  N1  UNL     1      22.651   5.080  31.977  0.00  0.00    -0.294 NA
ATOM      3  C9  UNL     1      23.740   5.814  32.637  0.00  0.00    +0.086 C 
ATOM      4  C10 UNL     1      22.874   7.039  32.880  0.00  0.00    +0.036 C 
ATOM      5  C11 UNL     1      21.782   6.251  32.167  0.00  0.00    +0.075 C 
BRANCH   2   6
ATOM      6  C8  UNL     1      22.209   3.840  32.668  0.00  0.00    +0.120 C 
BRANCH   6  13
ATOM      7  C1  UNL     1      22.983   0.471  28.977  0.00  0.00    +0.044 C 
ATOM      8  C2  UNL     1      22.078   1.079  30.008  0.00  0.00    -0.050 A 
ATOM      9  C3  UNL     1      20.807   0.535  30.238  0.00  0.00    +0.006 A 
ATOM     10  C4  UNL     1      19.979   1.065  31.237  0.00  0.00    -0.050 A 
ATOM     11  C5  UNL     1      18.643   0.444  31.518  0.00  0.00    +0.044 C 
ATOM     12  C6  UNL     1      20.440   2.129  32.026  0.00  0.00    +0.008 A 
ATOM     13  C7  UNL     1      21.701   2.705  31.788  0.00  0.00    -0.033 A 
ATOM     14  C21 UNL     1      22.530   2.141  30.802  0.00  0.00    +0.008 A 
ENDBRANCH   6  13
ENDBRANCH   2   6
ENDBRANCH   1   5
BRANCH   1  15
ATOM     15  N2  UNL     1      21.468   5.918  29.712  0.00  0.00    -0.309 N 
ATOM     16  C13 UNL     1      20.381   5.090  29.263  0.00  0.00    +0.262 C 
ATOM     17  O1  UNL     1      19.227   5.258  29.745  0.00  0.00    -0.269 OA
ATOM     18  H18 UNL     1      22.382   5.882  29.210  0.00  0.00    +0.149 HD
BRANCH  16  19
ATOM     19  C14 UNL     1      20.609   4.042  28.247  0.00  0.00    +0.126 A 
ATOM     20  C15 UNL     1      21.818   4.006  27.497  0.00  0.00    +0.035 A 
ATOM     21  C16 UNL     1      22.016   3.005  26.529  0.00  0.00    +0.030 A 
ATOM     22  C17 UNL     1      20.997   2.080  26.347  0.00  0.00    +0.065 A 
ATOM     23  N3  UNL     1      20.952   1.046  25.492  0.00  0.00    -0.359 N 
ATOM     24  C18 UNL     1      19.751   0.452  25.698  0.00  0.00    +0.085 A 
ATOM     25  C19 UNL     1      19.029   1.114  26.690  0.00  0.00    +0.047 A 
ATOM     26  C20 UNL     1      19.852   2.144  27.082  0.00  0.00    +0.089 A 
ATOM     27  N4  UNL     1      19.641   3.100  28.018  0.00  0.00    -0.241 NA
ATOM     28  H21 UNL     1      21.687   0.757  24.809  0.00  0.00    +0.165 HD
ENDBRANCH  16  19
ENDBRANCH   1  15
TORSDOF 5
ENDMDL
MODEL 5
REMARK VINA RESULT:    -5.799     12.263     14.178
REMARK INTER + INTRA:          -9.304
REMARK INTER:                  -7.502
REMARK INTRA:                  -1.802
REMARK UNBOUND:                -1.810
REMARK  Name = /home/qwerty/github/datacon2025hack/step_04_hit_selection/docking/ligands/lig_547.pdb
REMARK  7 active torsions:
REMARK  status: ('A' for Active; 'I' for Inactive)
REMARK    1  A    between atoms: C1_1  and  C2_2
REMARK    2  A    between atoms: C4_4  and  C5_5
REMARK    3  A    between atoms: C7_7  and  C8_8
REMARK    4  A    between atoms: C8_8  and  N1_9
REMARK    5  A    between atoms: C11_12  and  C12_13
REMARK    6  A    between atoms: C12_13  and  N2_14
REMARK    7  A    between atoms: C13_15  and  C14_17
REMARK                            x       y       z     vdW  Elec       q    Type
REMARK                         _______ _______ _______ _____ _____    ______ ____
ROOT
ATOM      1  C12 UNL     1      11.341   8.519  25.630  0.00  0.00    +0.123 C 
ENDROOT
BRANCH   1   5
ATOM      2  N1  UNL     1       9.398   9.897  24.881  0.00  0.00    -0.294 NA
ATOM      3  C9  UNL     1       9.464   9.834  23.413  0.00  0.00    +0.086 C 
ATOM      4  C10 UNL     1      10.026   8.422  23.420  0.00  0.00    +0.036 C 
ATOM      5  C11 UNL     1       9.964   8.541  24.938  0.00  0.00    +0.075 C 
BRANCH   2   6
ATOM      6  C8  UNL     1       8.033  10.043  25.450  0.00  0.00    +0.120 C 
BRANCH   6  13
ATOM      7  C1  UNL     1       7.161   8.880  30.293  0.00  0.00    +0.044 C 
ATOM      8  C2  UNL     1       7.518   9.896  29.249  0.00  0.00    -0.050 A 
ATOM      9  C3  UNL     1       7.869  11.200  29.625  0.00  0.00    +0.006 A 
ATOM     10  C4  UNL     1       8.255  12.137  28.657  0.00  0.00    -0.050 A 
ATOM     11  C5  UNL     1       8.685  13.514  29.070  0.00  0.00    +0.044 C 
ATOM     12  C6  UNL     1       8.315  11.756  27.309  0.00  0.00    +0.008 A 
ATOM     13  C7  UNL     1       7.937  10.461  26.912  0.00  0.00    -0.033 A 
ATOM     14  C21 UNL     1       7.581   9.524  27.899  0.00  0.00    +0.008 A 
ENDBRANCH   6  13
ENDBRANCH   2   6
ENDBRANCH   1   5
BRANCH   1  15
ATOM     15  N2  UNL     1      11.732   9.839  26.132  0.00  0.00    -0.309 N 
ATOM     16  C13 UNL     1      11.591  10.219  27.511  0.00  0.00    +0.262 C 
ATOM     17  O1  UNL     1      11.240   9.358  28.364  0.00  0.00    -0.269 OA
ATOM     18  H18 UNL     1      12.164  10.508  25.456  0.00  0.00    +0.149 HD
BRANCH  16  19
ATOM     19  C14 UNL     1      11.848  11.611  27.935  0.00  0.00    +0.126 A 
ATOM     20  C15 UNL     1      11.823  12.675  26.990  0.00  0.00    +0.035 A 
ATOM     21  C16 UNL     1      12.077  13.994  27.407  0.00  0.00    +0.030 A 
ATOM     22  C17 UNL     1      12.348  14.197  28.754  0.00  0.00    +0.065 A 
ATOM     23  N3  UNL     1      12.619  15.350  29.385  0.00  0.00    -0.359 N 
ATOM     24  C18 UNL     1      12.812  15.020  30.686  0.00  0.00    +0.085 A 
ATOM     25  C19 UNL     1      12.660  13.648  30.881  0.00  0.00    +0.047 A 
ATOM     26  C20 UNL     1      12.365  13.156  29.631  0.00  0.00    +0.089 A 
ATOM     27  N4  UNL     1      12.123  11.879  29.249  0.00  0.00    -0.241 NA
ATOM     28  H21 UNL     1      12.674  16.305  28.964  0.00  0.00    +0.165 HD
ENDBRANCH  16  19
ENDBRANCH   1  15
TORSDOF 5
ENDMDL
MODEL 6
REMARK VINA RESULT:    -5.663     12.618     14.230
REMARK INTER + INTRA:          -9.128
REMARK INTER:                  -7.594
REMARK INTRA:                  -1.535
REMARK UNBOUND:                -1.810
REMARK  Name = /home/qwerty/github/datacon2025hack/step_04_hit_selection/docking/ligands/lig_547.pdb
REMARK  7 active torsions:
REMARK  status: ('A' for Active; 'I' for Inactive)
REMARK    1  A    between atoms: C1_1  and  C2_2
REMARK    2  A    between atoms: C4_4  and  C5_5
REMARK    3  A    between atoms: C7_7  and  C8_8
REMARK    4  A    between atoms: C8_8  and  N1_9
REMARK    5  A    between atoms: C11_12  and  C12_13
REMARK    6  A    between atoms: C12_13  and  N2_14
REMARK    7  A    between atoms: C13_15  and  C14_17
REMARK                            x       y       z     vdW  Elec       q    Type
REMARK                         _______ _______ _______ _____ _____    ______ ____
ROOT
ATOM      1  C12 UNL     1      10.466   8.463  30.026  0.00  0.00    +0.123 C 
ENDROOT
BRANCH   1   5
ATOM      2  N1  UNL     1       9.696   8.674  27.659  0.00  0.00    -0.294 NA
ATOM      3  C9  UNL     1       9.282   7.310  27.299  0.00  0.00    +0.086 C 
ATOM      4  C10 UNL     1       8.813   6.994  28.709  0.00  0.00    +0.036 C 
ATOM      5  C11 UNL     1       9.279   8.406  29.044  0.00  0.00    +0.075 C 
BRANCH   2   6
ATOM      6  C8  UNL     1       8.958   9.765  26.972  0.00  0.00    +0.120 C 
BRANCH   6  13
ATOM      7  C1  UNL     1       7.526  13.771  29.706  0.00  0.00    +0.044 C 
ATOM      8  C2  UNL     1       8.516  13.115  28.788  0.00  0.00    -0.050 A 
ATOM      9  C3  UNL     1       9.718  13.761  28.472  0.00  0.00    +0.006 A 
ATOM     10  C4  UNL     1      10.670  13.130  27.658  0.00  0.00    -0.050 A 
ATOM     11  C5  UNL     1      11.979  13.801  27.369  0.00  0.00    +0.044 C 
ATOM     12  C6  UNL     1      10.423  11.834  27.183  0.00  0.00    +0.008 A 
ATOM     13  C7  UNL     1       9.208  11.184  27.466  0.00  0.00    -0.033 A 
ATOM     14  C21 UNL     1       8.278  11.820  28.308  0.00  0.00    +0.008 A 
ENDBRANCH   6  13
ENDBRANCH   2   6
ENDBRANCH   1   5
BRANCH   1  15
ATOM     15  N2  UNL     1      10.395   9.624  30.917  0.00  0.00    -0.309 N 
ATOM     16  C13 UNL     1      11.332  10.712  30.851  0.00  0.00    +0.262 C 
ATOM     17  O1  UNL     1      12.178  10.753  29.916  0.00  0.00    -0.269 OA
ATOM     18  H18 UNL     1       9.604   9.667  31.598  0.00  0.00    +0.149 HD
BRANCH  16  19
ATOM     19  C14 UNL     1      11.315  11.778  31.875  0.00  0.00    +0.126 A 
ATOM     20  C15 UNL     1      11.328  13.150  31.497  0.00  0.00    +0.035 A 
ATOM     21  C16 UNL     1      11.319  14.152  32.484  0.00  0.00    +0.030 A 
ATOM     22  C17 UNL     1      11.299  13.743  33.811  0.00  0.00    +0.065 A 
ATOM     23  N3  UNL     1      11.289  14.502  34.917  0.00  0.00    -0.359 N 
ATOM     24  C18 UNL     1      11.272  13.634  35.958  0.00  0.00    +0.085 A 
ATOM     25  C19 UNL     1      11.271  12.314  35.508  0.00  0.00    +0.047 A 
ATOM     26  C20 UNL     1      11.288  12.421  34.137  0.00  0.00    +0.089 A 
ATOM     27  N4  UNL     1      11.297  11.441  33.202  0.00  0.00    -0.241 NA
ATOM     28  H21 UNL     1      11.294  15.545  34.969  0.00  0.00    +0.165 HD
ENDBRANCH  16  19
ENDBRANCH   1  15
TORSDOF 5
ENDMDL
MODEL 7
REMARK VINA RESULT:    -5.621      9.955     13.327
REMARK INTER + INTRA:          -9.073
REMARK INTER:                  -6.802
REMARK INTRA:                  -2.272
REMARK UNBOUND:                -1.810
REMARK  Name = /home/qwerty/github/datacon2025hack/step_04_hit_selection/docking/ligands/lig_547.pdb
REMARK  7 active torsions:
REMARK  status: ('A' for Active; 'I' for Inactive)
REMARK    1  A    between atoms: C1_1  and  C2_2
REMARK    2  A    between atoms: C4_4  and  C5_5
REMARK    3  A    between atoms: C7_7  and  C8_8
REMARK    4  A    between atoms: C8_8  and  N1_9
REMARK    5  A    between atoms: C11_12  and  C12_13
REMARK    6  A    between atoms: C12_13  and  N2_14
REMARK    7  A    between atoms: C13_15  and  C14_17
REMARK                            x       y       z     vdW  Elec       q    Type
REMARK                         _______ _______ _______ _____ _____    ______ ____
ROOT
ATOM      1  C12 UNL     1      13.616   4.941  22.647  0.00  0.00    +0.123 C 
ENDROOT
BRANCH   1   5
ATOM      2  N1  UNL     1      12.109   3.964  20.911  0.00  0.00    -0.294 NA
ATOM      3  C9  UNL     1      13.014   3.643  19.798  0.00  0.00    +0.086 C 
ATOM      4  C10 UNL     1      14.173   3.320  20.727  0.00  0.00    +0.036 C 
ATOM      5  C11 UNL     1      13.208   3.687  21.849  0.00  0.00    +0.075 C 
BRANCH   2   6
ATOM      6  C8  UNL     1      10.922   3.080  21.041  0.00  0.00    +0.120 C 
BRANCH   6  13
ATOM      7  C1  UNL     1       6.900   6.137  20.831  0.00  0.00    +0.044 C 
ATOM      8  C2  UNL     1       7.743   5.155  21.591  0.00  0.00    -0.050 A 
ATOM      9  C3  UNL     1       7.337   4.707  22.855  0.00  0.00    +0.006 A 
ATOM     10  C4  UNL     1       8.092   3.749  23.544  0.00  0.00    -0.050 A 
ATOM     11  C5  UNL     1       7.623   3.230  24.871  0.00  0.00    +0.044 C 
ATOM     12  C6  UNL     1       9.247   3.219  22.950  0.00  0.00    +0.008 A 
ATOM     13  C7  UNL     1       9.685   3.680  21.696  0.00  0.00    -0.033 A 
ATOM     14  C21 UNL     1       8.898   4.619  21.005  0.00  0.00    +0.008 A 
ENDBRANCH   6  13
ENDBRANCH   2   6
ENDBRANCH   1   5
BRANCH   1  15
ATOM     15  N2  UNL     1      12.599   5.994  22.586  0.00  0.00    -0.309 N 
ATOM     16  C13 UNL     1      11.537   6.104  23.550  0.00  0.00    +0.262 C 
ATOM     17  O1  UNL     1      11.535   5.358  24.567  0.00  0.00    -0.269 OA
ATOM     18  H18 UNL     1      12.682   6.708  21.829  0.00  0.00    +0.149 HD
BRANCH  16  19
ATOM     19  C14 UNL     1      10.447   7.082  23.353  0.00  0.00    +0.126 A 
ATOM     20  C15 UNL     1       9.428   7.243  24.334  0.00  0.00    +0.035 A 
ATOM     21  C16 UNL     1       8.393   8.173  24.128  0.00  0.00    +0.030 A 
ATOM     22  C17 UNL     1       8.417   8.906  22.949  0.00  0.00    +0.065 A 
ATOM     23  N3  UNL     1       7.549   9.840  22.530  0.00  0.00    -0.359 N 
ATOM     24  C18 UNL     1       8.007  10.252  21.323  0.00  0.00    +0.085 A 
ATOM     25  C19 UNL     1       9.175   9.574  20.974  0.00  0.00    +0.047 A 
ATOM     26  C20 UNL     1       9.407   8.726  22.031  0.00  0.00    +0.089 A 
ATOM     27  N4  UNL     1      10.412   7.836  22.210  0.00  0.00    -0.241 NA
ATOM     28  H21 UNL     1       6.696  10.180  23.028  0.00  0.00    +0.165 HD
ENDBRANCH  16  19
ENDBRANCH   1  15
TORSDOF 5
ENDMDL
MODEL 8
REMARK VINA RESULT:    -5.593     12.415     15.373
REMARK INTER + INTRA:          -9.038
REMARK INTER:                  -7.640
REMARK INTRA:                  -1.398
REMARK UNBOUND:                -1.810
REMARK  Name = /home/qwerty/github/datacon2025hack/step_04_hit_selection/docking/ligands/lig_547.pdb
REMARK  7 active torsions:
REMARK  status: ('A' for Active; 'I' for Inactive)
REMARK    1  A    between atoms: C1_1  and  C2_2
REMARK    2  A    between atoms: C4_4  and  C5_5
REMARK    3  A    between atoms: C7_7  and  C8_8
REMARK    4  A    between atoms: C8_8  and  N1_9
REMARK    5  A    between atoms: C11_12  and  C12_13
REMARK    6  A    between atoms: C12_13  and  N2_14
REMARK    7  A    between atoms: C13_15  and  C14_17
REMARK                            x       y       z     vdW  Elec       q    Type
REMARK                         _______ _______ _______ _____ _____    ______ ____
ROOT
ATOM      1  C12 UNL     1      13.121  11.204  27.350  0.00  0.00    +0.123 C 
ENDROOT
BRANCH   1   5
ATOM      2  N1  UNL     1      12.947  12.085  29.681  0.00  0.00    -0.294 NA
ATOM      3  C9  UNL     1      14.258  12.707  29.922  0.00  0.00    +0.086 C 
ATOM      4  C10 UNL     1      14.416  13.126  28.470  0.00  0.00    +0.036 C 
ATOM      5  C11 UNL     1      13.067  12.447  28.260  0.00  0.00    +0.075 C 
BRANCH   2   6
ATOM      6  C8  UNL     1      11.806  12.705  30.402  0.00  0.00    +0.120 C 
BRANCH   6  13
ATOM      7  C1  UNL     1       7.922  14.013  27.440  0.00  0.00    +0.044 C 
ATOM      8  C2  UNL     1       8.540  13.061  28.421  0.00  0.00    -0.050 A 
ATOM      9  C3  UNL     1       7.886  11.866  28.751  0.00  0.00    +0.006 A 
ATOM     10  C4  UNL     1       8.484  10.948  29.626  0.00  0.00    -0.050 A 
ATOM     11  C5  UNL     1       7.807   9.645  29.931  0.00  0.00    +0.044 C 
ATOM     12  C6  UNL     1       9.756  11.220  30.150  0.00  0.00    +0.008 A 
ATOM     13  C7  UNL     1      10.412  12.428  29.854  0.00  0.00    -0.033 A 
ATOM     14  C21 UNL     1       9.811  13.323  28.951  0.00  0.00    +0.008 A 
ENDBRANCH   6  13
ENDBRANCH   2   6
ENDBRANCH   1   5
BRANCH   1  15
ATOM     15  N2  UNL     1      12.034  11.186  26.368  0.00  0.00    -0.309 N 
ATOM     16  C13 UNL     1      10.935  10.262  26.443  0.00  0.00    +0.262 C 
ATOM     17  O1  UNL     1      10.814   9.515  27.452  0.00  0.00    -0.269 OA
ATOM     18  H18 UNL     1      12.051  11.904  25.610  0.00  0.00    +0.149 HD
BRANCH  16  19
ATOM     19  C14 UNL     1       9.952  10.177  25.342  0.00  0.00    +0.126 A 
ATOM     20  C15 UNL     1       8.557  10.115  25.616  0.00  0.00    +0.035 A 
ATOM     21  C16 UNL     1       7.635  10.027  24.558  0.00  0.00    +0.030 A 
ATOM     22  C17 UNL     1       8.145  10.003  23.266  0.00  0.00    +0.065 A 
ATOM     23  N3  UNL     1       7.474   9.922  22.106  0.00  0.00    -0.359 N 
ATOM     24  C18 UNL     1       8.419   9.931  21.135  0.00  0.00    +0.085 A 
ATOM     25  C19 UNL     1       9.698  10.018  21.682  0.00  0.00    +0.047 A 
ATOM     26  C20 UNL     1       9.486  10.063  23.040  0.00  0.00    +0.089 A 
ATOM     27  N4  UNL     1      10.390  10.147  24.045  0.00  0.00    -0.241 NA
ATOM     28  H21 UNL     1       6.439   9.864  21.977  0.00  0.00    +0.165 HD
ENDBRANCH  16  19
ENDBRANCH   1  15
TORSDOF 5
ENDMDL
MODEL 9
REMARK VINA RESULT:    -5.479     11.024     14.048
REMARK INTER + INTRA:          -8.890
REMARK INTER:                  -6.897
REMARK INTRA:                  -1.992
REMARK UNBOUND:                -1.810
REMARK  Name = /home/qwerty/github/datacon2025hack/step_04_hit_selection/docking/ligands/lig_547.pdb
REMARK  7 active torsions:
REMARK  status: ('A' for Active; 'I' for Inactive)
REMARK    1  A    between atoms: C1_1  and  C2_2
REMARK    2  A    between atoms: C4_4  and  C5_5
REMARK    3  A    between atoms: C7_7  and  C8_8
REMARK    4  A    between atoms: C8_8  and  N1_9
REMARK    5  A    between atoms: C11_12  and  C12_13
REMARK    6  A    between atoms: C12_13  and  N2_14
REMARK    7  A    between atoms: C13_15  and  C14_17
REMARK                            x       y       z     vdW  Elec       q    Type
REMARK                         _______ _______ _______ _____ _____    ______ ____
ROOT
ATOM      1  C12 UNL     1      21.467  13.530  24.982  0.00  0.00    +0.123 C 
ENDROOT
BRANCH   1   5
ATOM      2  N1  UNL     1      23.322  14.840  23.943  0.00  0.00    -0.294 NA
ATOM      3  C9  UNL     1      23.882  15.611  25.063  0.00  0.00    +0.086 C 
ATOM      4  C10 UNL     1      23.581  14.515  26.072  0.00  0.00    +0.036 C 
ATOM      5  C11 UNL     1      22.988  13.763  24.887  0.00  0.00    +0.075 C 
BRANCH   2   6
ATOM      6  C8  UNL     1      24.289  14.475  22.876  0.00  0.00    +0.120 C 
BRANCH   6  13
ATOM      7  C1  UNL     1      23.034  10.321  20.280  0.00  0.00    +0.044 C 
ATOM      8  C2  UNL     1      23.112  11.817  20.373  0.00  0.00    -0.050 A 
ATOM      9  C3  UNL     1      22.565  12.616  19.360  0.00  0.00    +0.006 A 
ATOM     10  C4  UNL     1      22.587  14.013  19.468  0.00  0.00    -0.050 A 
ATOM     11  C5  UNL     1      21.949  14.862  18.409  0.00  0.00    +0.044 C 
ATOM     12  C6  UNL     1      23.138  14.610  20.612  0.00  0.00    +0.008 A 
ATOM     13  C7  UNL     1      23.719  13.823  21.623  0.00  0.00    -0.033 A 
ATOM     14  C21 UNL     1      23.661  12.422  21.512  0.00  0.00    +0.008 A 
ENDBRANCH   6  13
ENDBRANCH   2   6
ENDBRANCH   1   5
BRANCH   1  15
ATOM     15  N2  UNL     1      20.962  12.697  23.888  0.00  0.00    -0.309 N 
ATOM     16  C13 UNL     1      20.319  13.248  22.726  0.00  0.00    +0.262 C 
ATOM     17  O1  UNL     1      20.292  14.498  22.560  0.00  0.00    -0.269 OA
ATOM     18  H18 UNL     1      21.115  11.666  23.951  0.00  0.00    +0.149 HD
BRANCH  16  19
ATOM     19  C14 UNL     1      19.684  12.360  21.730  0.00  0.00    +0.126 A 
ATOM     20  C15 UNL     1      19.160  12.885  20.516  0.00  0.00    +0.035 A 
ATOM     21  C16 UNL     1      18.552  12.027  19.582  0.00  0.00    +0.030 A 
ATOM     22  C17 UNL     1      18.491  10.677  19.899  0.00  0.00    +0.065 A 
ATOM     23  N3  UNL     1      17.964   9.674  19.179  0.00  0.00    -0.359 N 
ATOM     24  C18 UNL     1      18.149   8.554  19.919  0.00  0.00    +0.085 A 
ATOM     25  C19 UNL     1      18.799   8.848  21.117  0.00  0.00    +0.047 A 
ATOM     26  C20 UNL     1      19.001  10.208  21.071  0.00  0.00    +0.089 A 
ATOM     27  N4  UNL     1      19.590  11.017  21.984  0.00  0.00    -0.241 NA
ATOM     28  H21 UNL     1      17.505   9.741  18.243  0.00  0.00    +0.165 HD
ENDBRANCH  16  19
ENDBRANCH   1  15
TORSDOF 5
ENDMDL
