REMARK  Name = /home/qwerty/github/datacon2025hack/step_04_hit_selection/docking/ligands/lig_769.pdb
REMARK  3 active torsions:
REMARK  status: ('A' for Active; 'I' for Inactive)
REMARK    1  A    between atoms: C1_2  and  C13_18
REMARK    2  A    between atoms: N1_3  and  C2_4
REMARK    3  A    between atoms: C5_7  and  C6_8
REMARK                            x       y       z     vdW  Elec       q    Type
REMARK                         _______ _______ _______ _____ _____    ______ ____
ROOT
ATOM      1  O1  UNL     1      -1.124  -1.538  -0.545  0.00  0.00    -0.270 OA
ATOM      2  C1  UNL     1      -1.475  -0.328  -0.609  0.00  0.00    +0.248 C 
ATOM      3  N1  UNL     1      -0.476   0.696  -0.757  0.00  0.00    -0.282 N 
ATOM      4  H1  UNL     1      -0.742   1.572  -1.262  0.00  0.00    +0.155 HD
ENDROOT
BRANCH   2   5
ATOM      5  C13 UNL     1      -2.917   0.016  -0.581  0.00  0.00    +0.041 A 
ATOM      6  C14 UNL     1      -3.344   1.324  -0.271  0.00  0.00    +0.017 A 
ATOM      7  C15 UNL     1      -4.707   1.636  -0.233  0.00  0.00    +0.050 A 
ATOM      8  C16 UNL     1      -5.656   0.647  -0.496  0.00  0.00    +0.162 A 
ATOM      9  C17 UNL     1      -5.245  -0.650  -0.825  0.00  0.00    +0.163 A 
ATOM     10  C18 UNL     1      -3.885  -0.971  -0.849  0.00  0.00    +0.062 A 
ATOM     11  O2  UNL     1      -6.213  -1.613  -1.127  0.00  0.00    -0.485 OA
ATOM     12  C19 UNL     1      -7.572  -1.242  -1.376  0.00  0.00    +0.270 C 
ATOM     13  C20 UNL     1      -7.997  -0.115  -0.426  0.00  0.00    +0.270 C 
ATOM     14  O3  UNL     1      -7.024   0.933  -0.434  0.00  0.00    -0.485 OA
ENDBRANCH   2   5
BRANCH   3  15
ATOM     15  C2  UNL     1       0.905   0.523  -0.393  0.00  0.00    +0.034 A 
ATOM     16  C3  UNL     1       1.894   1.237  -1.083  0.00  0.00    +0.024 A 
ATOM     17  C4  UNL     1       3.241   1.102  -0.735  0.00  0.00    +0.012 A 
ATOM     18  C5  UNL     1       3.626   0.259   0.322  0.00  0.00    +0.002 A 
ATOM     19  C11 UNL     1       2.629  -0.440   1.028  0.00  0.00    +0.012 A 
ATOM     20  C12 UNL     1       1.283  -0.305   0.677  0.00  0.00    +0.024 A 
BRANCH  18  21
ATOM     21  C6  UNL     1       5.061   0.127   0.678  0.00  0.00    +0.090 A 
ATOM     22  C7  UNL     1       5.595  -0.680   1.693  0.00  0.00    +0.121 A 
ATOM     23  N2  UNL     1       6.915  -0.484   1.649  0.00  0.00    -0.300 N 
ATOM     24  C8  UNL     1       8.009  -0.919   2.308  0.00  0.00    +0.100 A 
ATOM     25  C9  UNL     1       9.180  -0.340   1.796  0.00  0.00    +0.067 A 
ATOM     26  S1  UNL     1       8.780   0.720   0.506  0.00  0.00    -0.058 S 
ATOM     27  C10 UNL     1       7.150   0.375   0.682  0.00  0.00    +0.178 A 
ATOM     28  N3  UNL     1       6.056   0.803   0.030  0.00  0.00    -0.221 NA
ENDBRANCH  18  21
ENDBRANCH   3  15
TORSDOF 3
