MODEL 1
REMARK VINA RESULT:    -6.618      0.000      0.000
REMARK INTER + INTRA:          -8.540
REMARK INTER:                  -8.165
REMARK INTRA:                  -0.375
REMARK UNBOUND:                -0.375
REMARK  Name = /home/qwerty/github/datacon2025hack/step_04_hit_selection/docking/ligands/lig_595.pdb
REMARK  4 active torsions:
REMARK  status: ('A' for Active; 'I' for Inactive)
REMARK    1  A    between atoms: C1_2  and  C15_21
REMARK    2  A    between atoms: N1_3  and  C2_4
REMARK    3  A    between atoms: C4_7  and  C5_9
REMARK    4  A    between atoms: C8_12  and  C9_13
REMARK                            x       y       z     vdW  Elec       q    Type
REMARK                         _______ _______ _______ _____ _____    ______ ____
ROOT
ATOM      1  C2  UNL     1      21.159   4.761  23.717  0.00  0.00    +0.108 C 
ATOM      2  C3  UNL     1      21.556   4.066  24.984  0.00  0.00    +0.132 C 
ATOM      3  N2  UNL     1      20.799   4.953  25.888  0.00  0.00    -0.291 N 
ATOM      4  C4  UNL     1      20.556   5.084  27.288  0.00  0.00    +0.282 C 
ATOM      5  O2  UNL     1      19.808   6.009  27.704  0.00  0.00    -0.267 OA
ATOM      6  C14 UNL     1      20.401   5.651  24.651  0.00  0.00    +0.132 C 
ENDROOT
BRANCH   4   7
ATOM      7  C5  UNL     1      21.171   4.150  28.239  0.00  0.00    +0.190 A 
ATOM      8  C6  UNL     1      21.267   4.327  29.605  0.00  0.00    +0.055 A 
ATOM      9  C7  UNL     1      21.916   3.208  30.084  0.00  0.00    +0.050 A 
ATOM     10  C8  UNL     1      22.175   2.415  28.976  0.00  0.00    +0.136 A 
ATOM     11  O3  UNL     1      21.717   3.007  27.896  0.00  0.00    -0.450 OA
BRANCH  10  12
ATOM     12  C9  UNL     1      22.857   1.101  28.956  0.00  0.00    +0.020 A 
ATOM     13  C10 UNL     1      22.103  -0.070  28.778  0.00  0.00    +0.031 A 
ATOM     14  C11 UNL     1      22.744  -1.311  28.758  0.00  0.00    +0.111 A 
ATOM     15  N3  UNL     1      24.092  -1.386  28.910  0.00  0.00    -0.263 NA
ATOM     16  C12 UNL     1      24.850  -0.271  29.084  0.00  0.00    +0.111 A 
ATOM     17  C13 UNL     1      24.250   0.990  29.111  0.00  0.00    +0.031 A 
ENDBRANCH  10  12
ENDBRANCH   4   7
BRANCH   1  20
ATOM     18  O1  UNL     1      21.133   5.576  21.014  0.00  0.00    -0.269 OA
ATOM     19  C1  UNL     1      22.172   5.851  21.674  0.00  0.00    +0.261 C 
ATOM     20  N1  UNL     1      22.267   5.452  23.050  0.00  0.00    -0.304 N 
ATOM     21  H1  UNL     1      23.164   5.594  23.564  0.00  0.00    +0.149 HD
BRANCH  19  22
ATOM     22  C15 UNL     1      23.272   6.578  21.008  0.00  0.00    +0.102 A 
ATOM     23  C16 UNL     1      23.984   7.648  21.521  0.00  0.00    +0.032 A 
ATOM     24  C17 UNL     1      24.901   8.005  20.551  0.00  0.00    +0.020 A 
ATOM     25  C18 UNL     1      24.710   7.143  19.491  0.00  0.00    +0.083 A 
ATOM     26  N4  UNL     1      23.720   6.279  19.772  0.00  0.00    -0.357 N 
ATOM     27  H16 UNL     1      23.369   5.521  19.144  0.00  0.00    +0.165 HD
ENDBRANCH  19  22
ENDBRANCH   1  20
TORSDOF 4
ENDMDL
MODEL 2
REMARK VINA RESULT:    -6.578      5.190      9.309
REMARK INTER + INTRA:          -8.491
REMARK INTER:                  -7.910
REMARK INTRA:                  -0.581
REMARK UNBOUND:                -0.375
REMARK  Name = /home/qwerty/github/datacon2025hack/step_04_hit_selection/docking/ligands/lig_595.pdb
REMARK  4 active torsions:
REMARK  status: ('A' for Active; 'I' for Inactive)
REMARK    1  A    between atoms: C1_2  and  C15_21
REMARK    2  A    between atoms: N1_3  and  C2_4
REMARK    3  A    between atoms: C4_7  and  C5_9
REMARK    4  A    between atoms: C8_12  and  C9_13
REMARK                            x       y       z     vdW  Elec       q    Type
REMARK                         _______ _______ _______ _____ _____    ______ ____
ROOT
ATOM      1  C2  UNL     1      22.133   7.278  32.318  0.00  0.00    +0.108 C 
ATOM      2  C3  UNL     1      22.470   6.214  31.319  0.00  0.00    +0.132 C 
ATOM      3  N2  UNL     1      21.078   5.929  30.923  0.00  0.00    -0.291 N 
ATOM      4  C4  UNL     1      20.386   5.066  30.022  0.00  0.00    +0.282 C 
ATOM      5  O2  UNL     1      19.129   5.119  29.953  0.00  0.00    -0.267 OA
ATOM      6  C14 UNL     1      20.727   6.972  31.905  0.00  0.00    +0.132 C 
ENDROOT
BRANCH   4   7
ATOM      7  C5  UNL     1      21.130   4.119  29.181  0.00  0.00    +0.190 A 
ATOM      8  C6  UNL     1      21.397   4.266  27.834  0.00  0.00    +0.055 A 
ATOM      9  C7  UNL     1      22.113   3.145  27.469  0.00  0.00    +0.050 A 
ATOM     10  C8  UNL     1      22.238   2.382  28.621  0.00  0.00    +0.136 A 
ATOM     11  O3  UNL     1      21.641   2.993  29.619  0.00  0.00    -0.450 OA
BRANCH  10  12
ATOM     12  C9  UNL     1      22.924   1.077  28.759  0.00  0.00    +0.020 A 
ATOM     13  C10 UNL     1      22.195  -0.112  28.595  0.00  0.00    +0.031 A 
ATOM     14  C11 UNL     1      22.841  -1.344  28.724  0.00  0.00    +0.111 A 
ATOM     15  N3  UNL     1      24.168  -1.393  29.007  0.00  0.00    -0.263 NA
ATOM     16  C12 UNL     1      24.903  -0.261  29.171  0.00  0.00    +0.111 A 
ATOM     17  C13 UNL     1      24.297   0.993  29.051  0.00  0.00    +0.031 A 
ENDBRANCH  10  12
ENDBRANCH   4   7
BRANCH   1  20
ATOM     18  O1  UNL     1      21.806   8.990  34.539  0.00  0.00    -0.269 OA
ATOM     19  C1  UNL     1      22.204   7.819  34.786  0.00  0.00    +0.261 C 
ATOM     20  N1  UNL     1      22.411   6.895  33.705  0.00  0.00    -0.304 N 
ATOM     21  H1  UNL     1      22.831   5.961  33.904  0.00  0.00    +0.149 HD
BRANCH  19  22
ATOM     22  C15 UNL     1      22.450   7.427  36.188  0.00  0.00    +0.102 A 
ATOM     23  C16 UNL     1      23.471   6.616  36.653  0.00  0.00    +0.032 A 
ATOM     24  C17 UNL     1      23.299   6.520  38.020  0.00  0.00    +0.020 A 
ATOM     25  C18 UNL     1      22.184   7.270  38.332  0.00  0.00    +0.083 A 
ATOM     26  N4  UNL     1      21.671   7.818  37.217  0.00  0.00    -0.357 N 
ATOM     27  H16 UNL     1      20.827   8.431  37.167  0.00  0.00    +0.165 HD
ENDBRANCH  19  22
ENDBRANCH   1  20
TORSDOF 4
ENDMDL
MODEL 3
REMARK VINA RESULT:    -6.576      1.758      9.121
REMARK INTER + INTRA:          -8.488
REMARK INTER:                  -7.931
REMARK INTRA:                  -0.557
REMARK UNBOUND:                -0.375
REMARK  Name = /home/qwerty/github/datacon2025hack/step_04_hit_selection/docking/ligands/lig_595.pdb
REMARK  4 active torsions:
REMARK  status: ('A' for Active; 'I' for Inactive)
REMARK    1  A    between atoms: C1_2  and  C15_21
REMARK    2  A    between atoms: N1_3  and  C2_4
REMARK    3  A    between atoms: C4_7  and  C5_9
REMARK    4  A    between atoms: C8_12  and  C9_13
REMARK                            x       y       z     vdW  Elec       q    Type
REMARK                         _______ _______ _______ _____ _____    ______ ____
ROOT
ATOM      1  C2  UNL     1      22.028   4.126  26.768  0.00  0.00    +0.108 C 
ATOM      2  C3  UNL     1      22.375   4.649  25.407  0.00  0.00    +0.132 C 
ATOM      3  N2  UNL     1      21.016   4.530  24.846  0.00  0.00    -0.291 N 
ATOM      4  C4  UNL     1      20.351   4.792  23.611  0.00  0.00    +0.282 C 
ATOM      5  O2  UNL     1      19.117   4.559  23.509  0.00  0.00    -0.267 OA
ATOM      6  C14 UNL     1      20.657   4.010  26.179  0.00  0.00    +0.132 C 
ENDROOT
BRANCH   4   7
ATOM      7  C5  UNL     1      21.097   5.327  22.465  0.00  0.00    +0.190 A 
ATOM      8  C6  UNL     1      21.116   4.798  21.189  0.00  0.00    +0.055 A 
ATOM      9  C7  UNL     1      21.943   5.622  20.454  0.00  0.00    +0.050 A 
ATOM     10  C8  UNL     1      22.378   6.605  21.331  0.00  0.00    +0.136 A 
ATOM     11  O3  UNL     1      21.854   6.397  22.518  0.00  0.00    -0.450 OA
BRANCH  10  12
ATOM     12  C9  UNL     1      23.290   7.732  21.029  0.00  0.00    +0.020 A 
ATOM     13  C10 UNL     1      24.672   7.500  20.930  0.00  0.00    +0.031 A 
ATOM     14  C11 UNL     1      25.534   8.561  20.644  0.00  0.00    +0.111 A 
ATOM     15  N3  UNL     1      25.039   9.813  20.464  0.00  0.00    -0.263 NA
ATOM     16  C12 UNL     1      23.707  10.071  20.552  0.00  0.00    +0.111 A 
ATOM     17  C13 UNL     1      22.809   9.039  20.836  0.00  0.00    +0.031 A 
ENDBRANCH  10  12
ENDBRANCH   4   7
BRANCH   1  20
ATOM     18  O1  UNL     1      21.922   2.872  29.295  0.00  0.00    -0.269 OA
ATOM     19  C1  UNL     1      22.516   2.240  28.378  0.00  0.00    +0.261 C 
ATOM     20  N1  UNL     1      22.626   2.822  27.070  0.00  0.00    -0.304 N 
ATOM     21  H1  UNL     1      23.199   2.342  26.342  0.00  0.00    +0.149 HD
BRANCH  19  22
ATOM     22  C15 UNL     1      23.087   0.911  28.678  0.00  0.00    +0.102 A 
ATOM     23  C16 UNL     1      24.361   0.647  29.150  0.00  0.00    +0.032 A 
ATOM     24  C17 UNL     1      24.453  -0.726  29.272  0.00  0.00    +0.020 A 
ATOM     25  C18 UNL     1      23.237  -1.240  28.870  0.00  0.00    +0.083 A 
ATOM     26  N4  UNL     1      22.411  -0.243  28.509  0.00  0.00    -0.357 N 
ATOM     27  H16 UNL     1      21.432  -0.352  28.164  0.00  0.00    +0.165 HD
ENDBRANCH  19  22
ENDBRANCH   1  20
TORSDOF 4
ENDMDL
MODEL 4
REMARK VINA RESULT:    -6.489      2.455      8.790
REMARK INTER + INTRA:          -8.381
REMARK INTER:                  -7.866
REMARK INTRA:                  -0.515
REMARK UNBOUND:                -0.375
REMARK  Name = /home/qwerty/github/datacon2025hack/step_04_hit_selection/docking/ligands/lig_595.pdb
REMARK  4 active torsions:
REMARK  status: ('A' for Active; 'I' for Inactive)
REMARK    1  A    between atoms: C1_2  and  C15_21
REMARK    2  A    between atoms: N1_3  and  C2_4
REMARK    3  A    between atoms: C4_7  and  C5_9
REMARK    4  A    between atoms: C8_12  and  C9_13
REMARK                            x       y       z     vdW  Elec       q    Type
REMARK                         _______ _______ _______ _____ _____    ______ ____
ROOT
ATOM      1  C2  UNL     1      20.347   2.263  27.167  0.00  0.00    +0.108 C 
ATOM      2  C3  UNL     1      20.385   3.139  25.953  0.00  0.00    +0.132 C 
ATOM      3  N2  UNL     1      19.394   2.370  25.177  0.00  0.00    -0.291 N 
ATOM      4  C4  UNL     1      18.769   2.431  23.896  0.00  0.00    +0.282 C 
ATOM      5  O2  UNL     1      17.922   1.556  23.576  0.00  0.00    -0.267 OA
ATOM      6  C14 UNL     1      19.345   1.494  26.363  0.00  0.00    +0.132 C 
ENDROOT
BRANCH   4   7
ATOM      7  C5  UNL     1      19.110   3.506  22.954  0.00  0.00    +0.190 A 
ATOM      8  C6  UNL     1      18.218   4.215  22.173  0.00  0.00    +0.055 A 
ATOM      9  C7  UNL     1      18.980   5.111  21.453  0.00  0.00    +0.050 A 
ATOM     10  C8  UNL     1      20.294   4.892  21.842  0.00  0.00    +0.136 A 
ATOM     11  O3  UNL     1      20.332   3.929  22.736  0.00  0.00    -0.450 OA
BRANCH  10  12
ATOM     12  C9  UNL     1      21.500   5.600  21.356  0.00  0.00    +0.020 A 
ATOM     13  C10 UNL     1      22.316   6.287  22.269  0.00  0.00    +0.031 A 
ATOM     14  C11 UNL     1      23.455   6.955  21.814  0.00  0.00    +0.111 A 
ATOM     15  N3  UNL     1      23.773   6.941  20.493  0.00  0.00    -0.263 NA
ATOM     16  C12 UNL     1      23.004   6.285  19.584  0.00  0.00    +0.111 A 
ATOM     17  C13 UNL     1      21.856   5.604  19.996  0.00  0.00    +0.031 A 
ENDBRANCH  10  12
ENDBRANCH   4   7
BRANCH   1  20
ATOM     18  O1  UNL     1      20.870   0.712  29.467  0.00  0.00    -0.269 OA
ATOM     19  C1  UNL     1      21.772   0.732  28.586  0.00  0.00    +0.261 C 
ATOM     20  N1  UNL     1      21.585   1.513  27.395  0.00  0.00    -0.304 N 
ATOM     21  H1  UNL     1      22.371   1.605  26.714  0.00  0.00    +0.149 HD
BRANCH  19  22
ATOM     22  C15 UNL     1      23.004  -0.053  28.803  0.00  0.00    +0.102 A 
ATOM     23  C16 UNL     1      24.243   0.441  29.175  0.00  0.00    +0.032 A 
ATOM     24  C17 UNL     1      25.088  -0.649  29.249  0.00  0.00    +0.020 A 
ATOM     25  C18 UNL     1      24.335  -1.757  28.918  0.00  0.00    +0.083 A 
ATOM     26  N4  UNL     1      23.071  -1.391  28.648  0.00  0.00    -0.357 N 
ATOM     27  H16 UNL     1      22.292  -2.029  28.370  0.00  0.00    +0.165 HD
ENDBRANCH  19  22
ENDBRANCH   1  20
TORSDOF 4
ENDMDL
MODEL 5
REMARK VINA RESULT:    -6.311      7.661      9.329
REMARK INTER + INTRA:          -8.162
REMARK INTER:                  -7.577
REMARK INTRA:                  -0.585
REMARK UNBOUND:                -0.375
REMARK  Name = /home/qwerty/github/datacon2025hack/step_04_hit_selection/docking/ligands/lig_595.pdb
REMARK  4 active torsions:
REMARK  status: ('A' for Active; 'I' for Inactive)
REMARK    1  A    between atoms: C1_2  and  C15_21
REMARK    2  A    between atoms: N1_3  and  C2_4
REMARK    3  A    between atoms: C4_7  and  C5_9
REMARK    4  A    between atoms: C8_12  and  C9_13
REMARK                            x       y       z     vdW  Elec       q    Type
REMARK                         _______ _______ _______ _____ _____    ______ ____
ROOT
ATOM      1  C2  UNL     1      14.609   2.472  20.604  0.00  0.00    +0.108 C 
ATOM      2  C3  UNL     1      15.463   2.110  21.779  0.00  0.00    +0.132 C 
ATOM      3  N2  UNL     1      15.741   0.727  21.347  0.00  0.00    -0.291 N 
ATOM      4  C4  UNL     1      16.473  -0.405  21.816  0.00  0.00    +0.282 C 
ATOM      5  O2  UNL     1      16.483  -1.464  21.134  0.00  0.00    -0.267 OA
ATOM      6  C14 UNL     1      14.899   1.064  20.184  0.00  0.00    +0.132 C 
ENDROOT
BRANCH   4   7
ATOM      7  C5  UNL     1      17.210  -0.339  23.085  0.00  0.00    +0.190 A 
ATOM      8  C6  UNL     1      16.971  -1.112  24.204  0.00  0.00    +0.055 A 
ATOM      9  C7  UNL     1      17.896  -0.707  25.144  0.00  0.00    +0.050 A 
ATOM     10  C8  UNL     1      18.643   0.292  24.537  0.00  0.00    +0.136 A 
ATOM     11  O3  UNL     1      18.207   0.483  23.312  0.00  0.00    -0.450 OA
BRANCH  10  12
ATOM     12  C9  UNL     1      19.765   1.054  25.129  0.00  0.00    +0.020 A 
ATOM     13  C10 UNL     1      20.255   0.698  26.396  0.00  0.00    +0.031 A 
ATOM     14  C11 UNL     1      21.314   1.415  26.957  0.00  0.00    +0.111 A 
ATOM     15  N3  UNL     1      21.870   2.454  26.280  0.00  0.00    -0.263 NA
ATOM     16  C12 UNL     1      21.420   2.823  25.052  0.00  0.00    +0.111 A 
ATOM     17  C13 UNL     1      20.362   2.133  24.453  0.00  0.00    +0.031 A 
ENDBRANCH  10  12
ENDBRANCH   4   7
BRANCH   1  20
ATOM     18  O1  UNL     1      13.104   4.732  19.829  0.00  0.00    -0.269 OA
ATOM     19  C1  UNL     1      12.494   3.851  20.496  0.00  0.00    +0.261 C 
ATOM     20  N1  UNL     1      13.198   2.681  20.941  0.00  0.00    -0.304 N 
ATOM     21  H1  UNL     1      12.717   2.004  21.572  0.00  0.00    +0.149 HD
BRANCH  19  22
ATOM     22  C15 UNL     1      11.063   4.050  20.804  0.00  0.00    +0.102 A 
ATOM     23  C16 UNL     1      10.386   3.585  21.918  0.00  0.00    +0.032 A 
ATOM     24  C17 UNL     1       9.076   4.001  21.777  0.00  0.00    +0.020 A 
ATOM     25  C18 UNL     1       9.008   4.696  20.587  0.00  0.00    +0.083 A 
ATOM     26  N4  UNL     1      10.216   4.723  19.999  0.00  0.00    -0.357 N 
ATOM     27  H16 UNL     1      10.446   5.182  19.090  0.00  0.00    +0.165 HD
ENDBRANCH  19  22
ENDBRANCH   1  20
TORSDOF 4
ENDMDL
MODEL 6
REMARK VINA RESULT:    -6.279      8.186     12.026
REMARK INTER + INTRA:          -8.122
REMARK INTER:                  -7.529
REMARK INTRA:                  -0.593
REMARK UNBOUND:                -0.375
REMARK  Name = /home/qwerty/github/datacon2025hack/step_04_hit_selection/docking/ligands/lig_595.pdb
REMARK  4 active torsions:
REMARK  status: ('A' for Active; 'I' for Inactive)
REMARK    1  A    between atoms: C1_2  and  C15_21
REMARK    2  A    between atoms: N1_3  and  C2_4
REMARK    3  A    between atoms: C4_7  and  C5_9
REMARK    4  A    between atoms: C8_12  and  C9_13
REMARK                            x       y       z     vdW  Elec       q    Type
REMARK                         _______ _______ _______ _____ _____    ______ ____
ROOT
ATOM      1  C2  UNL     1      19.531   7.558  37.332  0.00  0.00    +0.108 C 
ATOM      2  C3  UNL     1      19.900   6.833  36.074  0.00  0.00    +0.132 C 
ATOM      3  N2  UNL     1      21.358   6.879  36.293  0.00  0.00    -0.291 N 
ATOM      4  C4  UNL     1      22.545   6.440  35.633  0.00  0.00    +0.282 C 
ATOM      5  O2  UNL     1      23.667   6.666  36.160  0.00  0.00    -0.267 OA
ATOM      6  C14 UNL     1      21.013   7.596  37.535  0.00  0.00    +0.132 C 
ENDROOT
BRANCH   4   7
ATOM      7  C5  UNL     1      22.463   5.732  34.349  0.00  0.00    +0.190 A 
ATOM      8  C6  UNL     1      22.888   6.214  33.127  0.00  0.00    +0.055 A 
ATOM      9  C7  UNL     1      22.612   5.217  32.214  0.00  0.00    +0.050 A 
ATOM     10  C8  UNL     1      22.033   4.186  32.940  0.00  0.00    +0.136 A 
ATOM     11  O3  UNL     1      21.961   4.528  34.207  0.00  0.00    -0.450 OA
BRANCH  10  12
ATOM     12  C9  UNL     1      21.554   2.885  32.420  0.00  0.00    +0.020 A 
ATOM     13  C10 UNL     1      21.973   2.447  31.153  0.00  0.00    +0.031 A 
ATOM     14  C11 UNL     1      21.524   1.219  30.661  0.00  0.00    +0.111 A 
ATOM     15  N3  UNL     1      20.684   0.452  31.403  0.00  0.00    -0.263 NA
ATOM     16  C12 UNL     1      20.260   0.847  32.633  0.00  0.00    +0.111 A 
ATOM     17  C13 UNL     1      20.685   2.068  33.164  0.00  0.00    +0.031 A 
ENDBRANCH  10  12
ENDBRANCH   4   7
BRANCH   1  20
ATOM     18  O1  UNL     1      16.853   8.255  37.892  0.00  0.00    -0.269 OA
ATOM     19  C1  UNL     1      17.587   9.170  37.428  0.00  0.00    +0.261 C 
ATOM     20  N1  UNL     1      18.956   8.887  37.102  0.00  0.00    -0.304 N 
ATOM     21  H1  UNL     1      19.532   9.617  36.629  0.00  0.00    +0.149 HD
BRANCH  19  22
ATOM     22  C15 UNL     1      17.014  10.517  37.230  0.00  0.00    +0.102 A 
ATOM     23  C16 UNL     1      15.671  10.837  37.129  0.00  0.00    +0.032 A 
ATOM     24  C17 UNL     1      15.611  12.204  36.942  0.00  0.00    +0.020 A 
ATOM     25  C18 UNL     1      16.913  12.660  36.934  0.00  0.00    +0.083 A 
ATOM     26  N4  UNL     1      17.762  11.633  37.108  0.00  0.00    -0.357 N 
ATOM     27  H16 UNL     1      18.804  11.696  37.141  0.00  0.00    +0.165 HD
ENDBRANCH  19  22
ENDBRANCH   1  20
TORSDOF 4
ENDMDL
MODEL 7
REMARK VINA RESULT:    -6.260      4.093      6.877
REMARK INTER + INTRA:          -8.098
REMARK INTER:                  -7.709
REMARK INTRA:                  -0.389
REMARK UNBOUND:                -0.375
REMARK  Name = /home/qwerty/github/datacon2025hack/step_04_hit_selection/docking/ligands/lig_595.pdb
REMARK  4 active torsions:
REMARK  status: ('A' for Active; 'I' for Inactive)
REMARK    1  A    between atoms: C1_2  and  C15_21
REMARK    2  A    between atoms: N1_3  and  C2_4
REMARK    3  A    between atoms: C4_7  and  C5_9
REMARK    4  A    between atoms: C8_12  and  C9_13
REMARK                            x       y       z     vdW  Elec       q    Type
REMARK                         _______ _______ _______ _____ _____    ______ ____
ROOT
ATOM      1  C2  UNL     1      22.167   0.841  28.708  0.00  0.00    +0.108 C 
ATOM      2  C3  UNL     1      22.046   1.860  29.800  0.00  0.00    +0.132 C 
ATOM      3  N2  UNL     1      21.312   0.991  30.739  0.00  0.00    -0.291 N 
ATOM      4  C4  UNL     1      20.759   1.076  32.052  0.00  0.00    +0.282 C 
ATOM      5  O2  UNL     1      20.184   0.071  32.549  0.00  0.00    -0.267 OA
ATOM      6  C14 UNL     1      21.419  -0.023  29.674  0.00  0.00    +0.132 C 
ENDROOT
BRANCH   4   7
ATOM      7  C5  UNL     1      20.858   2.323  32.821  0.00  0.00    +0.190 A 
ATOM      8  C6  UNL     1      19.905   2.821  33.688  0.00  0.00    +0.055 A 
ATOM      9  C7  UNL     1      20.423   4.004  34.174  0.00  0.00    +0.050 A 
ATOM     10  C8  UNL     1      21.664   4.153  33.572  0.00  0.00    +0.136 A 
ATOM     11  O3  UNL     1      21.889   3.134  32.774  0.00  0.00    -0.450 OA
BRANCH  10  12
ATOM     12  C9  UNL     1      22.622   5.265  33.763  0.00  0.00    +0.020 A 
ATOM     13  C10 UNL     1      22.479   6.125  34.864  0.00  0.00    +0.031 A 
ATOM     14  C11 UNL     1      23.383   7.174  35.046  0.00  0.00    +0.111 A 
ATOM     15  N3  UNL     1      24.397   7.363  34.163  0.00  0.00    -0.263 NA
ATOM     16  C12 UNL     1      24.564   6.548  33.088  0.00  0.00    +0.111 A 
ATOM     17  C13 UNL     1      23.683   5.486  32.867  0.00  0.00    +0.031 A 
ENDBRANCH  10  12
ENDBRANCH   4   7
BRANCH   1  20
ATOM     18  O1  UNL     1      22.819   2.889  26.878  0.00  0.00    -0.269 OA
ATOM     19  C1  UNL     1      21.789   2.209  26.617  0.00  0.00    +0.261 C 
ATOM     20  N1  UNL     1      21.384   1.161  27.511  0.00  0.00    -0.304 N 
ATOM     21  H1  UNL     1      20.481   0.666  27.344  0.00  0.00    +0.149 HD
BRANCH  19  22
ATOM     22  C15 UNL     1      21.022   2.512  25.392  0.00  0.00    +0.102 A 
ATOM     23  C16 UNL     1      19.644   2.523  25.261  0.00  0.00    +0.032 A 
ATOM     24  C17 UNL     1      19.381   2.848  23.945  0.00  0.00    +0.020 A 
ATOM     25  C18 UNL     1      20.604   3.020  23.329  0.00  0.00    +0.083 A 
ATOM     26  N4  UNL     1      21.597   2.814  24.210  0.00  0.00    -0.357 N 
ATOM     27  H16 UNL     1      22.620   2.879  24.009  0.00  0.00    +0.165 HD
ENDBRANCH  19  22
ENDBRANCH   1  20
TORSDOF 4
ENDMDL
MODEL 8
REMARK VINA RESULT:    -6.185      9.277     13.158
REMARK INTER + INTRA:          -8.006
REMARK INTER:                  -7.817
REMARK INTRA:                  -0.190
REMARK UNBOUND:                -0.375
REMARK  Name = /home/qwerty/github/datacon2025hack/step_04_hit_selection/docking/ligands/lig_595.pdb
REMARK  4 active torsions:
REMARK  status: ('A' for Active; 'I' for Inactive)
REMARK    1  A    between atoms: C1_2  and  C15_21
REMARK    2  A    between atoms: N1_3  and  C2_4
REMARK    3  A    between atoms: C4_7  and  C5_9
REMARK    4  A    between atoms: C8_12  and  C9_13
REMARK                            x       y       z     vdW  Elec       q    Type
REMARK                         _______ _______ _______ _____ _____    ______ ____
ROOT
ATOM      1  C2  UNL     1      14.761   0.879  20.484  0.00  0.00    +0.108 C 
ATOM      2  C3  UNL     1      13.591   1.806  20.605  0.00  0.00    +0.132 C 
ATOM      3  N2  UNL     1      14.293   3.004  20.106  0.00  0.00    -0.291 N 
ATOM      4  C4  UNL     1      14.000   4.378  19.854  0.00  0.00    +0.282 C 
ATOM      5  O2  UNL     1      14.900   5.131  19.396  0.00  0.00    -0.267 OA
ATOM      6  C14 UNL     1      15.456   2.107  19.983  0.00  0.00    +0.132 C 
ENDROOT
BRANCH   4   7
ATOM      7  C5  UNL     1      12.660   4.914  20.127  0.00  0.00    +0.190 A 
ATOM      8  C6  UNL     1      11.519   4.171  20.359  0.00  0.00    +0.055 A 
ATOM      9  C7  UNL     1      10.509   5.088  20.562  0.00  0.00    +0.050 A 
ATOM     10  C8  UNL     1      11.099   6.337  20.441  0.00  0.00    +0.136 A 
ATOM     11  O3  UNL     1      12.379   6.195  20.182  0.00  0.00    -0.450 OA
BRANCH  10  12
ATOM     12  C9  UNL     1      10.437   7.655  20.571  0.00  0.00    +0.020 A 
ATOM     13  C10 UNL     1       9.208   7.752  21.244  0.00  0.00    +0.031 A 
ATOM     14  C11 UNL     1       8.582   8.994  21.370  0.00  0.00    +0.111 A 
ATOM     15  N3  UNL     1       9.159  10.105  20.844  0.00  0.00    -0.263 NA
ATOM     16  C12 UNL     1      10.348  10.046  20.188  0.00  0.00    +0.111 A 
ATOM     17  C13 UNL     1      11.009   8.824  20.039  0.00  0.00    +0.031 A 
ENDBRANCH  10  12
ENDBRANCH   4   7
BRANCH   1  20
ATOM     18  O1  UNL     1      16.777  -1.075  20.776  0.00  0.00    -0.269 OA
ATOM     19  C1  UNL     1      16.326  -0.570  21.840  0.00  0.00    +0.261 C 
ATOM     20  N1  UNL     1      15.286   0.418  21.772  0.00  0.00    -0.304 N 
ATOM     21  H1  UNL     1      14.848   0.762  22.655  0.00  0.00    +0.149 HD
BRANCH  19  22
ATOM     22  C15 UNL     1      16.881  -1.013  23.135  0.00  0.00    +0.102 A 
ATOM     23  C16 UNL     1      16.994  -0.255  24.288  0.00  0.00    +0.032 A 
ATOM     24  C17 UNL     1      17.575  -1.074  25.236  0.00  0.00    +0.020 A 
ATOM     25  C18 UNL     1      17.794  -2.292  24.625  0.00  0.00    +0.083 A 
ATOM     26  N4  UNL     1      17.372  -2.250  23.350  0.00  0.00    -0.357 N 
ATOM     27  H16 UNL     1      17.420  -3.034  22.661  0.00  0.00    +0.165 HD
ENDBRANCH  19  22
ENDBRANCH   1  20
TORSDOF 4
ENDMDL
MODEL 9
REMARK VINA RESULT:    -6.148      5.534      7.785
REMARK INTER + INTRA:          -7.960
REMARK INTER:                  -7.422
REMARK INTRA:                  -0.538
REMARK UNBOUND:                -0.375
REMARK  Name = /home/qwerty/github/datacon2025hack/step_04_hit_selection/docking/ligands/lig_595.pdb
REMARK  4 active torsions:
REMARK  status: ('A' for Active; 'I' for Inactive)
REMARK    1  A    between atoms: C1_2  and  C15_21
REMARK    2  A    between atoms: N1_3  and  C2_4
REMARK    3  A    between atoms: C4_7  and  C5_9
REMARK    4  A    between atoms: C8_12  and  C9_13
REMARK                            x       y       z     vdW  Elec       q    Type
REMARK                         _______ _______ _______ _____ _____    ______ ____
ROOT
ATOM      1  C2  UNL     1      20.107   1.769  26.906  0.00  0.00    +0.108 C 
ATOM      2  C3  UNL     1      20.165   2.264  28.319  0.00  0.00    +0.132 C 
ATOM      3  N2  UNL     1      21.459   1.635  28.648  0.00  0.00    -0.291 N 
ATOM      4  C4  UNL     1      22.342   1.546  29.766  0.00  0.00    +0.282 C 
ATOM      5  O2  UNL     1      23.414   0.894  29.659  0.00  0.00    -0.267 OA
ATOM      6  C14 UNL     1      21.417   1.137  27.261  0.00  0.00    +0.132 C 
ENDROOT
BRANCH   4   7
ATOM      7  C5  UNL     1      22.006   2.209  31.033  0.00  0.00    +0.190 A 
ATOM      8  C6  UNL     1      21.053   1.790  31.941  0.00  0.00    +0.055 A 
ATOM      9  C7  UNL     1      21.083   2.711  32.967  0.00  0.00    +0.050 A 
ATOM     10  C8  UNL     1      22.056   3.637  32.620  0.00  0.00    +0.136 A 
ATOM     11  O3  UNL     1      22.583   3.306  31.462  0.00  0.00    -0.450 OA
BRANCH  10  12
ATOM     12  C9  UNL     1      22.473   4.829  33.393  0.00  0.00    +0.020 A 
ATOM     13  C10 UNL     1      21.686   5.269  34.470  0.00  0.00    +0.031 A 
ATOM     14  C11 UNL     1      22.078   6.392  35.201  0.00  0.00    +0.111 A 
ATOM     15  N3  UNL     1      23.216   7.058  34.873  0.00  0.00    -0.263 NA
ATOM     16  C12 UNL     1      23.999   6.658  33.837  0.00  0.00    +0.111 A 
ATOM     17  C13 UNL     1      23.645   5.539  33.078  0.00  0.00    +0.031 A 
ENDBRANCH  10  12
ENDBRANCH   4   7
BRANCH   1  20
ATOM     18  O1  UNL     1      19.639   0.499  24.428  0.00  0.00    -0.269 OA
ATOM     19  C1  UNL     1      18.883   0.167  25.382  0.00  0.00    +0.261 C 
ATOM     20  N1  UNL     1      19.049   0.783  26.669  0.00  0.00    -0.304 N 
ATOM     21  H1  UNL     1      18.362   0.577  27.427  0.00  0.00    +0.149 HD
BRANCH  19  22
ATOM     22  C15 UNL     1      17.840  -0.853  25.147  0.00  0.00    +0.102 A 
ATOM     23  C16 UNL     1      16.546  -0.839  25.639  0.00  0.00    +0.032 A 
ATOM     24  C17 UNL     1      15.942  -1.990  25.172  0.00  0.00    +0.020 A 
ATOM     25  C18 UNL     1      16.888  -2.656  24.420  0.00  0.00    +0.083 A 
ATOM     26  N4  UNL     1      18.039  -1.963  24.409  0.00  0.00    -0.357 N 
ATOM     27  H16 UNL     1      18.918  -2.240  23.917  0.00  0.00    +0.165 HD
ENDBRANCH  19  22
ENDBRANCH   1  20
TORSDOF 4
ENDMDL
