REMARK  Name = /home/qwerty/github/datacon2025hack/step_04_hit_selection/docking/ligands/lig_710.pdb
REMARK  5 active torsions:
REMARK  status: ('A' for Active; 'I' for Inactive)
REMARK    1  A    between atoms: C2_2  and  C3_3
REMARK    2  A    between atoms: C3_3  and  C4_4
REMARK    3  A    between atoms: C4_4  and  C5_5
REMARK    4  A    between atoms: C8_10  and  N2_11
REMARK    5  A    between atoms: C9_12  and  C10_14
REMARK                            x       y       z     vdW  Elec       q    Type
REMARK                         _______ _______ _______ _____ _____    ______ ____
ROOT
ATOM      1  N2  UNL     1      -1.162  -0.633  -1.141  0.00  0.00    -0.307 N 
ATOM      2  C9  UNL     1      -2.139   0.351  -0.764  0.00  0.00    +0.246 C 
ATOM      3  O2  UNL     1      -1.918   1.571  -1.000  0.00  0.00    -0.270 OA
ATOM      4  H13 UNL     1      -1.217  -1.583  -0.710  0.00  0.00    +0.149 HD
ENDROOT
BRANCH   2   5
ATOM      5  C10 UNL     1      -3.395  -0.041  -0.082  0.00  0.00    +0.057 A 
ATOM      6  C11 UNL     1      -3.924  -1.358  -0.207  0.00  0.00    +0.126 A 
ATOM      7  N3  UNL     1      -5.087  -1.708   0.420  0.00  0.00    -0.235 NA
ATOM      8  C12 UNL     1      -5.731  -0.778   1.165  0.00  0.00    +0.158 A 
ATOM      9  N4  UNL     1      -6.872  -0.933   1.841  0.00  0.00    -0.329 N 
ATOM     10  C13 UNL     1      -7.081   0.289   2.391  0.00  0.00    +0.198 A 
ATOM     11  N5  UNL     1      -6.116   1.199   2.084  0.00  0.00    -0.234 NA
ATOM     12  C14 UNL     1      -5.278   0.490   1.307  0.00  0.00    +0.108 A 
ATOM     13  C15 UNL     1      -4.104   0.908   0.692  0.00  0.00    +0.046 A 
ATOM     14  H15 UNL     1      -7.465  -1.789   1.924  0.00  0.00    +0.168 HD
ENDBRANCH   2   5
BRANCH   1  20
ATOM     15  C5  UNL     1       3.711  -0.109  -1.010  0.00  0.00    +0.216 C 
ATOM     16  O1  UNL     1       4.710  -0.581  -1.619  0.00  0.00    -0.276 OA
ATOM     17  N1  UNL     1       2.388  -0.406  -1.489  0.00  0.00    -0.300 N 
ATOM     18  C6  UNL     1       2.132  -1.295  -2.611  0.00  0.00    +0.109 C 
ATOM     19  C7  UNL     1       0.618  -1.455  -2.669  0.00  0.00    +0.043 C 
ATOM     20  C8  UNL     1       0.054  -0.271  -1.876  0.00  0.00    +0.092 C 
ATOM     21  C16 UNL     1       1.170   0.153  -0.926  0.00  0.00    +0.130 C 
BRANCH  15  22
ATOM     22  C4  UNL     1       3.909   0.788   0.188  0.00  0.00    +0.100 C 
BRANCH  22  23
ATOM     23  C3  UNL     1       5.357   0.792   0.699  0.00  0.00    +0.036 C 
BRANCH  23  25
ATOM     24  C1  UNL     1       5.000   1.403   3.079  0.00  0.00    +0.004 C 
ATOM     25  C2  UNL     1       5.515   1.706   1.884  0.00  0.00    -0.034 C 
ENDBRANCH  23  25
ENDBRANCH  22  23
ENDBRANCH  15  22
ENDBRANCH   1  20
TORSDOF 5
