MODEL 1
REMARK VINA RESULT:    -5.960      0.000      0.000
REMARK INTER + INTRA:          -8.211
REMARK INTER:                  -7.353
REMARK INTRA:                  -0.858
REMARK UNBOUND:                -0.858
REMARK  Name = /home/qwerty/github/datacon2025hack/step_04_hit_selection/docking/ligands/lig_227.pdb
REMARK  4 active torsions:
REMARK  status: ('A' for Active; 'I' for Inactive)
REMARK    1  A    between atoms: C1_2  and  C9_16
REMARK    2  A    between atoms: N1_3  and  C2_4
REMARK    3  A    between atoms: C2_4  and  C3_5
REMARK    4  A    between atoms: C6_9  and  C7_11
REMARK                            x       y       z     vdW  Elec       q    Type
REMARK                         _______ _______ _______ _____ _____    ______ ____
ROOT
ATOM      1  O1  UNL     1      20.842   5.179  29.252  0.00  0.00    -0.270 OA
ATOM      2  C1  UNL     1      20.607   4.362  28.320  0.00  0.00    +0.247 C 
ATOM      3  N1  UNL     1      19.785   3.211  28.573  0.00  0.00    -0.309 N 
ATOM      4  H1  UNL     1      19.460   2.633  27.766  0.00  0.00    +0.149 HD
ENDROOT
BRANCH   2   5
ATOM      5  C9  UNL     1      21.148   4.632  26.968  0.00  0.00    +0.075 A 
ATOM      6  C10 UNL     1      20.519   5.588  26.149  0.00  0.00    +0.054 A 
ATOM      7  C11 UNL     1      21.011   5.857  24.868  0.00  0.00    +0.124 A 
ATOM      8  F1  UNL     1      20.390   6.773  24.084  0.00  0.00    -0.205 F 
ATOM      9  C12 UNL     1      22.139   5.185  24.395  0.00  0.00    +0.041 A 
ATOM     10  C13 UNL     1      22.782   4.247  25.206  0.00  0.00    +0.042 A 
ATOM     11  C14 UNL     1      22.298   3.971  26.489  0.00  0.00    +0.136 A 
ATOM     12  F2  UNL     1      22.982   3.102  27.272  0.00  0.00    -0.205 F 
ENDBRANCH   2   5
BRANCH   3  13
ATOM     13  C2  UNL     1      19.281   2.928  29.917  0.00  0.00    +0.127 C 
BRANCH  13  14
ATOM     14  C3  UNL     1      19.310   1.419  30.230  0.00  0.00    +0.095 C 
ATOM     15  C4  UNL     1      19.306   1.134  31.702  0.00  0.00    +0.043 C 
ATOM     16  C5  UNL     1      20.649   0.553  31.414  0.00  0.00    +0.110 C 
ATOM     17  N2  UNL     1      20.638   0.823  29.963  0.00  0.00    -0.291 N 
ATOM     18  C6  UNL     1      21.442   0.536  28.814  0.00  0.00    +0.270 C 
ATOM     19  O2  UNL     1      20.991   0.796  27.669  0.00  0.00    -0.268 OA
BRANCH  18  20
ATOM     20  C7  UNL     1      22.781  -0.072  28.926  0.00  0.00    +0.188 A 
ATOM     21  C8  UNL     1      23.989   0.546  29.160  0.00  0.00    +0.192 A 
ATOM     22  N3  UNL     1      24.929  -0.415  29.173  0.00  0.00    -0.057 NA
ATOM     23  O3  UNL     1      24.300  -1.535  28.959  0.00  0.00    -0.242 OA
ATOM     24  N4  UNL     1      23.014  -1.390  28.804  0.00  0.00    -0.044 NA
ENDBRANCH  18  20
ENDBRANCH  13  14
ENDBRANCH   3  13
TORSDOF 4
ENDMDL
MODEL 2
REMARK VINA RESULT:    -5.755      3.067      4.540
REMARK INTER + INTRA:          -7.959
REMARK INTER:                  -7.402
REMARK INTRA:                  -0.556
REMARK UNBOUND:                -0.858
REMARK  Name = /home/qwerty/github/datacon2025hack/step_04_hit_selection/docking/ligands/lig_227.pdb
REMARK  4 active torsions:
REMARK  status: ('A' for Active; 'I' for Inactive)
REMARK    1  A    between atoms: C1_2  and  C9_16
REMARK    2  A    between atoms: N1_3  and  C2_4
REMARK    3  A    between atoms: C2_4  and  C3_5
REMARK    4  A    between atoms: C6_9  and  C7_11
REMARK                            x       y       z     vdW  Elec       q    Type
REMARK                         _______ _______ _______ _____ _____    ______ ____
ROOT
ATOM      1  O1  UNL     1      21.220   5.917  24.919  0.00  0.00    -0.270 OA
ATOM      2  C1  UNL     1      21.950   5.252  24.133  0.00  0.00    +0.247 C 
ATOM      3  N1  UNL     1      22.612   4.068  24.605  0.00  0.00    -0.309 N 
ATOM      4  H1  UNL     1      23.076   3.437  23.915  0.00  0.00    +0.149 HD
ENDROOT
BRANCH   2   5
ATOM      5  C9  UNL     1      22.073   5.685  22.722  0.00  0.00    +0.075 A 
ATOM      6  C10 UNL     1      22.973   6.715  22.390  0.00  0.00    +0.054 A 
ATOM      7  C11 UNL     1      23.104   7.142  21.065  0.00  0.00    +0.124 A 
ATOM      8  F1  UNL     1      23.966   8.143  20.759  0.00  0.00    -0.205 F 
ATOM      9  C12 UNL     1      22.347   6.541  20.058  0.00  0.00    +0.041 A 
ATOM     10  C13 UNL     1      21.464   5.506  20.372  0.00  0.00    +0.042 A 
ATOM     11  C14 UNL     1      21.326   5.072  21.695  0.00  0.00    +0.136 A 
ATOM     12  F2  UNL     1      20.508   4.024  21.955  0.00  0.00    -0.205 F 
ENDBRANCH   2   5
BRANCH   3  13
ATOM     13  C2  UNL     1      22.517   3.663  26.008  0.00  0.00    +0.127 C 
BRANCH  13  14
ATOM     14  C3  UNL     1      21.754   2.332  26.165  0.00  0.00    +0.095 C 
ATOM     15  C4  UNL     1      20.306   2.448  25.793  0.00  0.00    +0.043 C 
ATOM     16  C5  UNL     1      20.092   2.120  27.231  0.00  0.00    +0.110 C 
ATOM     17  N2  UNL     1      21.519   1.993  27.586  0.00  0.00    -0.291 N 
ATOM     18  C6  UNL     1      22.312   1.597  28.710  0.00  0.00    +0.270 C 
ATOM     19  O2  UNL     1      23.552   1.444  28.563  0.00  0.00    -0.268 OA
BRANCH  18  20
ATOM     20  C7  UNL     1      21.720   1.348  30.037  0.00  0.00    +0.188 A 
ATOM     21  C8  UNL     1      20.941   0.288  30.447  0.00  0.00    +0.192 A 
ATOM     22  N3  UNL     1      20.635   0.498  31.739  0.00  0.00    -0.057 NA
ATOM     23  O3  UNL     1      21.208   1.622  32.065  0.00  0.00    -0.242 OA
ATOM     24  N4  UNL     1      21.869   2.173  31.088  0.00  0.00    -0.044 NA
ENDBRANCH  18  20
ENDBRANCH  13  14
ENDBRANCH   3  13
TORSDOF 4
ENDMDL
MODEL 3
REMARK VINA RESULT:    -5.681      4.493      5.477
REMARK INTER + INTRA:          -7.867
REMARK INTER:                  -7.220
REMARK INTRA:                  -0.647
REMARK UNBOUND:                -0.858
REMARK  Name = /home/qwerty/github/datacon2025hack/step_04_hit_selection/docking/ligands/lig_227.pdb
REMARK  4 active torsions:
REMARK  status: ('A' for Active; 'I' for Inactive)
REMARK    1  A    between atoms: C1_2  and  C9_16
REMARK    2  A    between atoms: N1_3  and  C2_4
REMARK    3  A    between atoms: C2_4  and  C3_5
REMARK    4  A    between atoms: C6_9  and  C7_11
REMARK                            x       y       z     vdW  Elec       q    Type
REMARK                         _______ _______ _______ _____ _____    ______ ____
ROOT
ATOM      1  O1  UNL     1      20.400   5.242  34.226  0.00  0.00    -0.270 OA
ATOM      2  C1  UNL     1      21.537   4.828  33.867  0.00  0.00    +0.247 C 
ATOM      3  N1  UNL     1      21.780   3.417  33.760  0.00  0.00    -0.309 N 
ATOM      4  H1  UNL     1      22.661   3.087  33.307  0.00  0.00    +0.149 HD
ENDROOT
BRANCH   2   5
ATOM      5  C9  UNL     1      22.587   5.813  33.519  0.00  0.00    +0.075 A 
ATOM      6  C10 UNL     1      22.594   6.392  32.236  0.00  0.00    +0.054 A 
ATOM      7  C11 UNL     1      23.578   7.322  31.884  0.00  0.00    +0.124 A 
ATOM      8  F1  UNL     1      23.582   7.865  30.641  0.00  0.00    -0.205 F 
ATOM      9  C12 UNL     1      24.556   7.691  32.810  0.00  0.00    +0.041 A 
ATOM     10  C13 UNL     1      24.548   7.137  34.091  0.00  0.00    +0.042 A 
ATOM     11  C14 UNL     1      23.568   6.206  34.452  0.00  0.00    +0.136 A 
ATOM     12  F2  UNL     1      23.552   5.736  35.724  0.00  0.00    -0.205 F 
ENDBRANCH   2   5
BRANCH   3  13
ATOM     13  C2  UNL     1      20.752   2.446  34.138  0.00  0.00    +0.127 C 
BRANCH  13  14
ATOM     14  C3  UNL     1      19.928   1.987  32.919  0.00  0.00    +0.095 C 
ATOM     15  C4  UNL     1      19.118   0.756  33.199  0.00  0.00    +0.043 C 
ATOM     16  C5  UNL     1      19.996   0.156  32.154  0.00  0.00    +0.110 C 
ATOM     17  N2  UNL     1      20.778   1.375  31.874  0.00  0.00    -0.291 N 
ATOM     18  C6  UNL     1      21.778   1.817  30.950  0.00  0.00    +0.270 C 
ATOM     19  O2  UNL     1      22.082   3.037  30.912  0.00  0.00    -0.268 OA
BRANCH  18  20
ATOM     20  C7  UNL     1      22.457   0.890  30.027  0.00  0.00    +0.188 A 
ATOM     21  C8  UNL     1      21.933  -0.190  29.351  0.00  0.00    +0.192 A 
ATOM     22  N3  UNL     1      22.932  -0.732  28.634  0.00  0.00    -0.057 NA
ATOM     23  O3  UNL     1      23.985  -0.005  28.880  0.00  0.00    -0.242 OA
ATOM     24  N4  UNL     1      23.760   0.977  29.706  0.00  0.00    -0.044 NA
ENDBRANCH  18  20
ENDBRANCH  13  14
ENDBRANCH   3  13
TORSDOF 4
ENDMDL
MODEL 4
REMARK VINA RESULT:    -5.530     14.493     15.451
REMARK INTER + INTRA:          -7.682
REMARK INTER:                  -7.140
REMARK INTRA:                  -0.541
REMARK UNBOUND:                -0.858
REMARK  Name = /home/qwerty/github/datacon2025hack/step_04_hit_selection/docking/ligands/lig_227.pdb
REMARK  4 active torsions:
REMARK  status: ('A' for Active; 'I' for Inactive)
REMARK    1  A    between atoms: C1_2  and  C9_16
REMARK    2  A    between atoms: N1_3  and  C2_4
REMARK    3  A    between atoms: C2_4  and  C3_5
REMARK    4  A    between atoms: C6_9  and  C7_11
REMARK                            x       y       z     vdW  Elec       q    Type
REMARK                         _______ _______ _______ _____ _____    ______ ____
ROOT
ATOM      1  O1  UNL     1      12.224  12.690  30.777  0.00  0.00    -0.270 OA
ATOM      2  C1  UNL     1      11.099  13.263  30.792  0.00  0.00    +0.247 C 
ATOM      3  N1  UNL     1      10.775  14.167  31.860  0.00  0.00    -0.309 N 
ATOM      4  H1  UNL     1       9.919  14.759  31.782  0.00  0.00    +0.149 HD
ENDROOT
BRANCH   2   5
ATOM      5  C9  UNL     1      10.151  13.023  29.680  0.00  0.00    +0.075 A 
ATOM      6  C10 UNL     1       9.178  12.014  29.806  0.00  0.00    +0.054 A 
ATOM      7  C11 UNL     1       8.275  11.767  28.768  0.00  0.00    +0.124 A 
ATOM      8  F1  UNL     1       7.349  10.784  28.896  0.00  0.00    -0.205 F 
ATOM      9  C12 UNL     1       8.325  12.530  27.599  0.00  0.00    +0.041 A 
ATOM     10  C13 UNL     1       9.274  13.546  27.471  0.00  0.00    +0.042 A 
ATOM     11  C14 UNL     1      10.182  13.800  28.504  0.00  0.00    +0.136 A 
ATOM     12  F2  UNL     1      11.048  14.834  28.372  0.00  0.00    -0.205 F 
ENDBRANCH   2   5
BRANCH   3  13
ATOM     13  C2  UNL     1      11.700  14.375  32.976  0.00  0.00    +0.127 C 
BRANCH  13  14
ATOM     14  C3  UNL     1      11.458  13.362  34.112  0.00  0.00    +0.095 C 
ATOM     15  C4  UNL     1      10.624  13.928  35.223  0.00  0.00    +0.043 C 
ATOM     16  C5  UNL     1      11.864  13.715  36.024  0.00  0.00    +0.110 C 
ATOM     17  N2  UNL     1      12.672  13.144  34.929  0.00  0.00    -0.291 N 
ATOM     18  C6  UNL     1      13.957  12.539  34.749  0.00  0.00    +0.270 C 
ATOM     19  O2  UNL     1      14.229  11.993  33.649  0.00  0.00    -0.268 OA
BRANCH  18  20
ATOM     20  C7  UNL     1      14.970  12.518  35.819  0.00  0.00    +0.188 A 
ATOM     21  C8  UNL     1      15.041  11.696  36.922  0.00  0.00    +0.192 A 
ATOM     22  N3  UNL     1      16.137  12.054  37.613  0.00  0.00    -0.057 NA
ATOM     23  O3  UNL     1      16.678  13.034  36.946  0.00  0.00    -0.242 OA
ATOM     24  N4  UNL     1      16.023  13.354  35.866  0.00  0.00    -0.044 NA
ENDBRANCH  18  20
ENDBRANCH  13  14
ENDBRANCH   3  13
TORSDOF 4
ENDMDL
MODEL 5
REMARK VINA RESULT:    -5.528     14.355     15.358
REMARK INTER + INTRA:          -7.679
REMARK INTER:                  -6.922
REMARK INTRA:                  -0.758
REMARK UNBOUND:                -0.858
REMARK  Name = /home/qwerty/github/datacon2025hack/step_04_hit_selection/docking/ligands/lig_227.pdb
REMARK  4 active torsions:
REMARK  status: ('A' for Active; 'I' for Inactive)
REMARK    1  A    between atoms: C1_2  and  C9_16
REMARK    2  A    between atoms: N1_3  and  C2_4
REMARK    3  A    between atoms: C2_4  and  C3_5
REMARK    4  A    between atoms: C6_9  and  C7_11
REMARK                            x       y       z     vdW  Elec       q    Type
REMARK                         _______ _______ _______ _____ _____    ______ ____
ROOT
ATOM      1  O1  UNL     1       7.142  10.464  23.655  0.00  0.00    -0.270 OA
ATOM      2  C1  UNL     1       8.323  10.061  23.842  0.00  0.00    +0.247 C 
ATOM      3  N1  UNL     1       8.806   9.868  25.181  0.00  0.00    -0.309 N 
ATOM      4  H1  UNL     1       9.717   9.381  25.327  0.00  0.00    +0.149 HD
ENDROOT
BRANCH   2   5
ATOM      5  C9  UNL     1       9.175   9.752  22.671  0.00  0.00    +0.075 A 
ATOM      6  C10 UNL     1      10.432  10.372  22.547  0.00  0.00    +0.054 A 
ATOM      7  C11 UNL     1      11.252  10.098  21.448  0.00  0.00    +0.124 A 
ATOM      8  F1  UNL     1      12.457  10.711  21.333  0.00  0.00    -0.205 F 
ATOM      9  C12 UNL     1      10.832   9.195  20.469  0.00  0.00    +0.041 A 
ATOM     10  C13 UNL     1       9.596   8.559  20.591  0.00  0.00    +0.042 A 
ATOM     11  C14 UNL     1       8.768   8.828  21.686  0.00  0.00    +0.136 A 
ATOM     12  F2  UNL     1       7.603   8.147  21.806  0.00  0.00    -0.205 F 
ENDBRANCH   2   5
BRANCH   3  13
ATOM     13  C2  UNL     1       7.974  10.208  26.336  0.00  0.00    +0.127 C 
BRANCH  13  14
ATOM     14  C3  UNL     1       8.777  10.157  27.651  0.00  0.00    +0.095 C 
ATOM     15  C4  UNL     1       7.930  10.432  28.857  0.00  0.00    +0.043 C 
ATOM     16  C5  UNL     1       8.817  11.623  28.989  0.00  0.00    +0.110 C 
ATOM     17  N2  UNL     1       9.656  11.337  27.809  0.00  0.00    -0.291 N 
ATOM     18  C6  UNL     1      10.835  11.853  27.183  0.00  0.00    +0.270 C 
ATOM     19  O2  UNL     1      11.369  11.200  26.250  0.00  0.00    -0.268 OA
BRANCH  18  20
ATOM     20  C7  UNL     1      11.457  13.121  27.606  0.00  0.00    +0.188 A 
ATOM     21  C8  UNL     1      12.760  13.355  27.986  0.00  0.00    +0.192 A 
ATOM     22  N3  UNL     1      12.854  14.662  28.288  0.00  0.00    -0.057 NA
ATOM     23  O3  UNL     1      11.667  15.162  28.094  0.00  0.00    -0.242 OA
ATOM     24  N4  UNL     1      10.793  14.287  27.687  0.00  0.00    -0.044 NA
ENDBRANCH  18  20
ENDBRANCH  13  14
ENDBRANCH   3  13
TORSDOF 4
ENDMDL
MODEL 6
REMARK VINA RESULT:    -5.526      9.169     11.316
REMARK INTER + INTRA:          -7.677
REMARK INTER:                  -7.090
REMARK INTRA:                  -0.586
REMARK UNBOUND:                -0.858
REMARK  Name = /home/qwerty/github/datacon2025hack/step_04_hit_selection/docking/ligands/lig_227.pdb
REMARK  4 active torsions:
REMARK  status: ('A' for Active; 'I' for Inactive)
REMARK    1  A    between atoms: C1_2  and  C9_16
REMARK    2  A    between atoms: N1_3  and  C2_4
REMARK    3  A    between atoms: C2_4  and  C3_5
REMARK    4  A    between atoms: C6_9  and  C7_11
REMARK                            x       y       z     vdW  Elec       q    Type
REMARK                         _______ _______ _______ _____ _____    ______ ____
ROOT
ATOM      1  O1  UNL     1      14.581   1.514  23.601  0.00  0.00    -0.270 OA
ATOM      2  C1  UNL     1      14.346   0.360  23.147  0.00  0.00    +0.247 C 
ATOM      3  N1  UNL     1      13.896   0.205  21.792  0.00  0.00    -0.309 N 
ATOM      4  H1  UNL     1      13.863  -0.752  21.375  0.00  0.00    +0.149 HD
ENDROOT
BRANCH   2   5
ATOM      5  C9  UNL     1      14.583  -0.819  24.013  0.00  0.00    +0.075 A 
ATOM      6  C10 UNL     1      13.779  -1.013  25.152  0.00  0.00    +0.054 A 
ATOM      7  C11 UNL     1      13.987  -2.116  25.986  0.00  0.00    +0.124 A 
ATOM      8  F1  UNL     1      13.214  -2.287  27.087  0.00  0.00    -0.205 F 
ATOM      9  C12 UNL     1      14.990  -3.041  25.687  0.00  0.00    +0.041 A 
ATOM     10  C13 UNL     1      15.781  -2.868  24.550  0.00  0.00    +0.042 A 
ATOM     11  C14 UNL     1      15.581  -1.767  23.710  0.00  0.00    +0.136 A 
ATOM     12  F2  UNL     1      16.325  -1.664  22.582  0.00  0.00    -0.205 F 
ENDBRANCH   2   5
BRANCH   3  13
ATOM     13  C2  UNL     1      13.629   1.372  20.950  0.00  0.00    +0.127 C 
BRANCH  13  14
ATOM     14  C3  UNL     1      14.763   1.612  19.934  0.00  0.00    +0.095 C 
ATOM     15  C4  UNL     1      16.040   0.927  20.321  0.00  0.00    +0.043 C 
ATOM     16  C5  UNL     1      16.555   2.324  20.411  0.00  0.00    +0.110 C 
ATOM     17  N2  UNL     1      15.298   2.989  20.015  0.00  0.00    -0.291 N 
ATOM     18  C6  UNL     1      14.834   4.309  19.712  0.00  0.00    +0.270 C 
ATOM     19  O2  UNL     1      13.687   4.458  19.219  0.00  0.00    -0.268 OA
BRANCH  18  20
ATOM     20  C7  UNL     1      15.665   5.504  19.945  0.00  0.00    +0.188 A 
ATOM     21  C8  UNL     1      16.762   5.941  19.236  0.00  0.00    +0.192 A 
ATOM     22  N3  UNL     1      17.188   7.073  19.824  0.00  0.00    -0.057 NA
ATOM     23  O3  UNL     1      16.380   7.283  20.825  0.00  0.00    -0.242 OA
ATOM     24  N4  UNL     1      15.451   6.378  20.944  0.00  0.00    -0.044 NA
ENDBRANCH  18  20
ENDBRANCH  13  14
ENDBRANCH   3  13
TORSDOF 4
ENDMDL
MODEL 7
REMARK VINA RESULT:    -5.503      5.284      6.836
REMARK INTER + INTRA:          -7.648
REMARK INTER:                  -6.855
REMARK INTRA:                  -0.793
REMARK UNBOUND:                -0.858
REMARK  Name = /home/qwerty/github/datacon2025hack/step_04_hit_selection/docking/ligands/lig_227.pdb
REMARK  4 active torsions:
REMARK  status: ('A' for Active; 'I' for Inactive)
REMARK    1  A    between atoms: C1_2  and  C9_16
REMARK    2  A    between atoms: N1_3  and  C2_4
REMARK    3  A    between atoms: C2_4  and  C3_5
REMARK    4  A    between atoms: C6_9  and  C7_11
REMARK                            x       y       z     vdW  Elec       q    Type
REMARK                         _______ _______ _______ _____ _____    ______ ____
ROOT
ATOM      1  O1  UNL     1      17.334   0.484  23.416  0.00  0.00    -0.270 OA
ATOM      2  C1  UNL     1      17.506  -0.150  24.494  0.00  0.00    +0.247 C 
ATOM      3  N1  UNL     1      18.774  -0.081  25.165  0.00  0.00    -0.309 N 
ATOM      4  H1  UNL     1      18.858  -0.468  26.132  0.00  0.00    +0.149 HD
ENDROOT
BRANCH   2   5
ATOM      5  C9  UNL     1      16.378  -0.919  25.068  0.00  0.00    +0.075 A 
ATOM      6  C10 UNL     1      15.556  -0.319  26.040  0.00  0.00    +0.054 A 
ATOM      7  C11 UNL     1      14.487  -1.026  26.598  0.00  0.00    +0.124 A 
ATOM      8  F1  UNL     1      13.708  -0.442  27.542  0.00  0.00    -0.205 F 
ATOM      9  C12 UNL     1      14.222  -2.334  26.187  0.00  0.00    +0.041 A 
ATOM     10  C13 UNL     1      15.019  -2.933  25.210  0.00  0.00    +0.042 A 
ATOM     11  C14 UNL     1      16.091  -2.233  24.646  0.00  0.00    +0.136 A 
ATOM     12  F2  UNL     1      16.806  -2.821  23.656  0.00  0.00    -0.205 F 
ENDBRANCH   2   5
BRANCH   3  13
ATOM     13  C2  UNL     1      19.898   0.651  24.578  0.00  0.00    +0.127 C 
BRANCH  13  14
ATOM     14  C3  UNL     1      20.066   2.043  25.217  0.00  0.00    +0.095 C 
ATOM     15  C4  UNL     1      21.093   2.881  24.516  0.00  0.00    +0.043 C 
ATOM     16  C5  UNL     1      21.804   2.788  25.823  0.00  0.00    +0.110 C 
ATOM     17  N2  UNL     1      20.781   1.977  26.511  0.00  0.00    -0.291 N 
ATOM     18  C6  UNL     1      20.518   1.476  27.825  0.00  0.00    +0.270 C 
ATOM     19  O2  UNL     1      19.401   0.950  28.069  0.00  0.00    -0.268 OA
BRANCH  18  20
ATOM     20  C7  UNL     1      21.508   1.569  28.913  0.00  0.00    +0.188 A 
ATOM     21  C8  UNL     1      21.414   2.249  30.107  0.00  0.00    +0.192 A 
ATOM     22  N3  UNL     1      22.565   2.044  30.771  0.00  0.00    -0.057 NA
ATOM     23  O3  UNL     1      23.292   1.283  30.003  0.00  0.00    -0.242 OA
ATOM     24  N4  UNL     1      22.711   0.968  28.880  0.00  0.00    -0.044 NA
ENDBRANCH  18  20
ENDBRANCH  13  14
ENDBRANCH   3  13
TORSDOF 4
ENDMDL
MODEL 8
REMARK VINA RESULT:    -5.489      5.780      7.940
REMARK INTER + INTRA:          -7.631
REMARK INTER:                  -7.140
REMARK INTRA:                  -0.491
REMARK UNBOUND:                -0.858
REMARK  Name = /home/qwerty/github/datacon2025hack/step_04_hit_selection/docking/ligands/lig_227.pdb
REMARK  4 active torsions:
REMARK  status: ('A' for Active; 'I' for Inactive)
REMARK    1  A    between atoms: C1_2  and  C9_16
REMARK    2  A    between atoms: N1_3  and  C2_4
REMARK    3  A    between atoms: C2_4  and  C3_5
REMARK    4  A    between atoms: C6_9  and  C7_11
REMARK                            x       y       z     vdW  Elec       q    Type
REMARK                         _______ _______ _______ _____ _____    ______ ____
ROOT
ATOM      1  O1  UNL     1      19.595   2.417  26.339  0.00  0.00    -0.270 OA
ATOM      2  C1  UNL     1      20.171   1.343  26.665  0.00  0.00    +0.247 C 
ATOM      3  N1  UNL     1      20.124   0.213  25.779  0.00  0.00    -0.309 N 
ATOM      4  H1  UNL     1      20.735  -0.611  25.975  0.00  0.00    +0.149 HD
ENDROOT
BRANCH   2   5
ATOM      5  C9  UNL     1      20.925   1.285  27.938  0.00  0.00    +0.075 A 
ATOM      6  C10 UNL     1      22.332   1.260  27.909  0.00  0.00    +0.054 A 
ATOM      7  C11 UNL     1      23.065   1.201  29.098  0.00  0.00    +0.124 A 
ATOM      8  F1  UNL     1      24.420   1.166  29.057  0.00  0.00    -0.205 F 
ATOM      9  C12 UNL     1      22.403   1.178  30.328  0.00  0.00    +0.041 A 
ATOM     10  C13 UNL     1      21.009   1.221  30.370  0.00  0.00    +0.042 A 
ATOM     11  C14 UNL     1      20.267   1.279  29.185  0.00  0.00    +0.136 A 
ATOM     12  F2  UNL     1      18.918   1.383  29.264  0.00  0.00    -0.205 F 
ENDBRANCH   2   5
BRANCH   3  13
ATOM     13  C2  UNL     1      19.349   0.262  24.539  0.00  0.00    +0.127 C 
BRANCH  13  14
ATOM     14  C3  UNL     1      17.902  -0.224  24.752  0.00  0.00    +0.095 C 
ATOM     15  C4  UNL     1      17.783  -1.718  24.720  0.00  0.00    +0.043 C 
ATOM     16  C5  UNL     1      16.945  -1.450  23.516  0.00  0.00    +0.110 C 
ATOM     17  N2  UNL     1      17.054   0.021  23.564  0.00  0.00    -0.291 N 
ATOM     18  C6  UNL     1      16.506   1.158  22.889  0.00  0.00    +0.270 C 
ATOM     19  O2  UNL     1      16.717   2.308  23.354  0.00  0.00    -0.268 OA
BRANCH  18  20
ATOM     20  C7  UNL     1      15.686   1.027  21.671  0.00  0.00    +0.188 A 
ATOM     21  C8  UNL     1      16.084   0.682  20.398  0.00  0.00    +0.192 A 
ATOM     22  N3  UNL     1      14.987   0.697  19.622  0.00  0.00    -0.057 NA
ATOM     23  O3  UNL     1      14.000   1.035  20.403  0.00  0.00    -0.242 OA
ATOM     24  N4  UNL     1      14.360   1.244  21.638  0.00  0.00    -0.044 NA
ENDBRANCH  18  20
ENDBRANCH  13  14
ENDBRANCH   3  13
TORSDOF 4
ENDMDL
MODEL 9
REMARK VINA RESULT:    -5.363     14.095     15.503
REMARK INTER + INTRA:          -7.475
REMARK INTER:                  -7.019
REMARK INTRA:                  -0.456
REMARK UNBOUND:                -0.858
REMARK  Name = /home/qwerty/github/datacon2025hack/step_04_hit_selection/docking/ligands/lig_227.pdb
REMARK  4 active torsions:
REMARK  status: ('A' for Active; 'I' for Inactive)
REMARK    1  A    between atoms: C1_2  and  C9_16
REMARK    2  A    between atoms: N1_3  and  C2_4
REMARK    3  A    between atoms: C2_4  and  C3_5
REMARK    4  A    between atoms: C6_9  and  C7_11
REMARK                            x       y       z     vdW  Elec       q    Type
REMARK                         _______ _______ _______ _____ _____    ______ ____
ROOT
ATOM      1  O1  UNL     1       9.768   9.578  26.377  0.00  0.00    -0.270 OA
ATOM      2  C1  UNL     1       8.879  10.471  26.436  0.00  0.00    +0.247 C 
ATOM      3  N1  UNL     1       7.806  10.473  25.480  0.00  0.00    -0.309 N 
ATOM      4  H1  UNL     1       6.992  11.108  25.632  0.00  0.00    +0.149 HD
ENDROOT
BRANCH   2   5
ATOM      5  C9  UNL     1       8.936  11.477  27.521  0.00  0.00    +0.075 A 
ATOM      6  C10 UNL     1       9.838  12.553  27.420  0.00  0.00    +0.054 A 
ATOM      7  C11 UNL     1       9.913  13.513  28.434  0.00  0.00    +0.124 A 
ATOM      8  F1  UNL     1      10.795  14.538  28.331  0.00  0.00    -0.205 F 
ATOM      9  C12 UNL     1       9.082  13.416  29.552  0.00  0.00    +0.041 A 
ATOM     10  C13 UNL     1       8.170  12.364  29.654  0.00  0.00    +0.042 A 
ATOM     11  C14 UNL     1       8.089  11.399  28.645  0.00  0.00    +0.136 A 
ATOM     12  F2  UNL     1       7.150  10.427  28.746  0.00  0.00    -0.205 F 
ENDBRANCH   2   5
BRANCH   3  13
ATOM     13  C2  UNL     1       7.771   9.499  24.388  0.00  0.00    +0.127 C 
BRANCH  13  14
ATOM     14  C3  UNL     1       8.796   9.839  23.288  0.00  0.00    +0.095 C 
ATOM     15  C4  UNL     1       8.183  10.572  22.133  0.00  0.00    +0.043 C 
ATOM     16  C5  UNL     1       8.581   9.351  21.375  0.00  0.00    +0.110 C 
ATOM     17  N2  UNL     1       9.196   8.643  22.514  0.00  0.00    -0.291 N 
ATOM     18  C6  UNL     1       9.945   7.446  22.753  0.00  0.00    +0.270 C 
ATOM     19  O2  UNL     1      10.470   7.266  23.882  0.00  0.00    -0.268 OA
BRANCH  18  20
ATOM     20  C7  UNL     1      10.136   6.420  21.712  0.00  0.00    +0.188 A 
ATOM     21  C8  UNL     1      10.914   6.480  20.577  0.00  0.00    +0.192 A 
ATOM     22  N3  UNL     1      10.766   5.309  19.934  0.00  0.00    -0.057 NA
ATOM     23  O3  UNL     1       9.944   4.603  20.658  0.00  0.00    -0.242 OA
ATOM     24  N4  UNL     1       9.535   5.217  21.731  0.00  0.00    -0.044 NA
ENDBRANCH  18  20
ENDBRANCH  13  14
ENDBRANCH   3  13
TORSDOF 4
ENDMDL
