MODEL 1
REMARK VINA RESULT:    -5.722      0.000      0.000
REMARK INTER + INTRA:          -8.309
REMARK INTER:                  -7.729
REMARK INTRA:                  -0.580
REMARK UNBOUND:                -0.580
REMARK  Name = /home/qwerty/github/datacon2025hack/step_04_hit_selection/docking/ligands/lig_166.pdb
REMARK  8 active torsions:
REMARK  status: ('A' for Active; 'I' for Inactive)
REMARK    1  A    between atoms: C1_1  and  C2_2
REMARK    2  A    between atoms: C2_2  and  C3_3
REMARK    3  A    between atoms: C3_3  and  N1_4
REMARK    4  A    between atoms: C3_3  and  C15_19
REMARK    5  A    between atoms: N2_7  and  C5_8
REMARK    6  A    between atoms: C7_10  and  O2_11
REMARK    7  A    between atoms: O2_11  and  C8_12
REMARK    8  A    between atoms: C11_15  and  C12_16
REMARK                            x       y       z     vdW  Elec       q    Type
REMARK                         _______ _______ _______ _____ _____    ______ ____
ROOT
ATOM      1  N1  UNL     1      14.790  -1.215  22.768  0.00  0.00    -0.288 N 
ATOM      2  C4  UNL     1      14.216   0.086  22.588  0.00  0.00    +0.304 C 
ATOM      3  O1  UNL     1      14.356   0.970  23.478  0.00  0.00    -0.252 OA
ATOM      4  N2  UNL     1      13.470   0.375  21.398  0.00  0.00    -0.269 N 
ATOM      5  H7  UNL     1      14.655  -1.922  22.010  0.00  0.00    +0.151 HD
ATOM      6  H8  UNL     1      13.100  -0.426  20.839  0.00  0.00    +0.156 HD
ENDROOT
BRANCH   4   7
ATOM      7  C5  UNL     1      13.051   1.703  21.046  0.00  0.00    +0.042 A 
ATOM      8  C6  UNL     1      11.749   2.105  21.372  0.00  0.00    +0.069 A 
ATOM      9  C7  UNL     1      11.299   3.396  21.075  0.00  0.00    +0.122 A 
ATOM     10  C9  UNL     1      12.168   4.295  20.433  0.00  0.00    +0.046 A 
ATOM     11  C10 UNL     1      13.457   3.895  20.077  0.00  0.00    +0.009 A 
ATOM     12  C11 UNL     1      13.903   2.591  20.346  0.00  0.00    -0.023 A 
BRANCH  12  13
ATOM     13  C12 UNL     1      15.292   2.189  19.911  0.00  0.00    +0.021 C 
ATOM     14  C13 UNL     1      16.397   2.508  20.913  0.00  0.00    +0.009 C 
ATOM     15  C14 UNL     1      16.259   3.338  19.652  0.00  0.00    +0.009 C 
ENDBRANCH  12  13
BRANCH   9  16
ATOM     16  O2  UNL     1       9.989   3.744  21.438  0.00  0.00    -0.495 OA
ATOM     17  C8  UNL     1       9.197   4.714  20.759  0.00  0.00    +0.277 C 
ENDBRANCH   9  16
ENDBRANCH   4   7
BRANCH   1  18
ATOM     18  C3  UNL     1      15.682  -1.522  23.890  0.00  0.00    +0.160 C 
BRANCH  18  19
ATOM     19  C15 UNL     1      17.058  -1.833  23.365  0.00  0.00    +0.231 C 
ATOM     20  N3  UNL     1      18.022  -2.485  24.193  0.00  0.00    -0.328 N 
ATOM     21  O3  UNL     1      17.362  -1.530  22.180  0.00  0.00    -0.274 OA
ATOM     22  H20 UNL     1      18.974  -2.698  23.823  0.00  0.00    +0.145 HD
ATOM     23  H21 UNL     1      17.790  -2.754  25.175  0.00  0.00    +0.145 HD
ENDBRANCH  18  19
BRANCH  18  25
ATOM     24  C1  UNL     1      14.053  -2.288  25.686  0.00  0.00    +0.006 C 
ATOM     25  C2  UNL     1      15.150  -2.712  24.709  0.00  0.00    +0.028 C 
ENDBRANCH  18  25
ENDBRANCH   1  18
TORSDOF 6
ENDMDL
MODEL 2
REMARK VINA RESULT:    -5.680      4.920      9.584
REMARK INTER + INTRA:          -8.253
REMARK INTER:                  -7.635
REMARK INTRA:                  -0.618
REMARK UNBOUND:                -0.580
REMARK  Name = /home/qwerty/github/datacon2025hack/step_04_hit_selection/docking/ligands/lig_166.pdb
REMARK  8 active torsions:
REMARK  status: ('A' for Active; 'I' for Inactive)
REMARK    1  A    between atoms: C1_1  and  C2_2
REMARK    2  A    between atoms: C2_2  and  C3_3
REMARK    3  A    between atoms: C3_3  and  N1_4
REMARK    4  A    between atoms: C3_3  and  C15_19
REMARK    5  A    between atoms: N2_7  and  C5_8
REMARK    6  A    between atoms: C7_10  and  O2_11
REMARK    7  A    between atoms: O2_11  and  C8_12
REMARK    8  A    between atoms: C11_15  and  C12_16
REMARK                            x       y       z     vdW  Elec       q    Type
REMARK                         _______ _______ _______ _____ _____    ______ ____
ROOT
ATOM      1  N1  UNL     1       9.533   8.034  20.300  0.00  0.00    -0.288 N 
ATOM      2  C4  UNL     1      10.114   6.859  20.881  0.00  0.00    +0.304 C 
ATOM      3  O1  UNL     1      10.817   6.948  21.925  0.00  0.00    -0.252 OA
ATOM      4  N2  UNL     1       9.903   5.582  20.262  0.00  0.00    -0.269 N 
ATOM      5  H7  UNL     1       8.955   7.923  19.436  0.00  0.00    +0.151 HD
ATOM      6  H8  UNL     1       9.603   5.561  19.262  0.00  0.00    +0.156 HD
ENDROOT
BRANCH   4   7
ATOM      7  C5  UNL     1      10.264   4.344  20.893  0.00  0.00    +0.042 A 
ATOM      8  C6  UNL     1      11.500   3.765  20.576  0.00  0.00    +0.069 A 
ATOM      9  C7  UNL     1      11.913   2.573  21.180  0.00  0.00    +0.122 A 
ATOM     10  C9  UNL     1      11.066   1.947  22.112  0.00  0.00    +0.046 A 
ATOM     11  C10 UNL     1       9.820   2.500  22.413  0.00  0.00    +0.009 A 
ATOM     12  C11 UNL     1       9.389   3.680  21.786  0.00  0.00    -0.023 A 
BRANCH  12  13
ATOM     13  C12 UNL     1       8.019   4.224  22.113  0.00  0.00    +0.021 C 
ATOM     14  C13 UNL     1       7.968   5.156  23.319  0.00  0.00    +0.009 C 
ATOM     15  C14 UNL     1       7.419   3.748  23.432  0.00  0.00    +0.009 C 
ENDBRANCH  12  13
BRANCH   9  16
ATOM     16  O2  UNL     1      13.167   2.049  20.832  0.00  0.00    -0.495 OA
ATOM     17  C8  UNL     1      14.181   2.776  20.146  0.00  0.00    +0.277 C 
ENDBRANCH   9  16
ENDBRANCH   4   7
BRANCH   1  18
ATOM     18  C3  UNL     1       9.592   9.339  20.966  0.00  0.00    +0.160 C 
BRANCH  18  19
ATOM     19  C15 UNL     1       8.250   9.652  21.573  0.00  0.00    +0.231 C 
ATOM     20  N3  UNL     1       7.516  10.804  21.157  0.00  0.00    -0.328 N 
ATOM     21  O3  UNL     1       7.762   8.886  22.447  0.00  0.00    -0.274 OA
ATOM     22  H20 UNL     1       6.586  11.015  21.582  0.00  0.00    +0.145 HD
ATOM     23  H21 UNL     1       7.896  11.448  20.429  0.00  0.00    +0.145 HD
ENDBRANCH  18  19
BRANCH  18  25
ATOM     24  C1  UNL     1      11.271  10.097  19.213  0.00  0.00    +0.006 C 
ATOM     25  C2  UNL     1       9.992  10.447  19.975  0.00  0.00    +0.028 C 
ENDBRANCH  18  25
ENDBRANCH   1  18
TORSDOF 6
ENDMDL
MODEL 3
REMARK VINA RESULT:    -5.516      1.514      3.277
REMARK INTER + INTRA:          -8.032
REMARK INTER:                  -7.558
REMARK INTRA:                  -0.473
REMARK UNBOUND:                -0.580
REMARK  Name = /home/qwerty/github/datacon2025hack/step_04_hit_selection/docking/ligands/lig_166.pdb
REMARK  8 active torsions:
REMARK  status: ('A' for Active; 'I' for Inactive)
REMARK    1  A    between atoms: C1_1  and  C2_2
REMARK    2  A    between atoms: C2_2  and  C3_3
REMARK    3  A    between atoms: C3_3  and  N1_4
REMARK    4  A    between atoms: C3_3  and  C15_19
REMARK    5  A    between atoms: N2_7  and  C5_8
REMARK    6  A    between atoms: C7_10  and  O2_11
REMARK    7  A    between atoms: O2_11  and  C8_12
REMARK    8  A    between atoms: C11_15  and  C12_16
REMARK                            x       y       z     vdW  Elec       q    Type
REMARK                         _______ _______ _______ _____ _____    ______ ____
ROOT
ATOM      1  N1  UNL     1      14.804  -1.319  22.787  0.00  0.00    -0.288 N 
ATOM      2  C4  UNL     1      14.136  -0.052  22.742  0.00  0.00    +0.304 C 
ATOM      3  O1  UNL     1      14.292   0.780  23.677  0.00  0.00    -0.252 OA
ATOM      4  N2  UNL     1      13.277   0.259  21.637  0.00  0.00    -0.269 N 
ATOM      5  H7  UNL     1      14.653  -1.985  21.994  0.00  0.00    +0.151 HD
ATOM      6  H8  UNL     1      12.914  -0.529  21.054  0.00  0.00    +0.156 HD
ENDROOT
BRANCH   4   7
ATOM      7  C5  UNL     1      12.748   1.574  21.410  0.00  0.00    +0.042 A 
ATOM      8  C6  UNL     1      13.416   2.424  20.519  0.00  0.00    +0.069 A 
ATOM      9  C7  UNL     1      12.930   3.705  20.243  0.00  0.00    +0.122 A 
ATOM     10  C9  UNL     1      11.756   4.145  20.878  0.00  0.00    +0.046 A 
ATOM     11  C10 UNL     1      11.098   3.319  21.791  0.00  0.00    +0.009 A 
ATOM     12  C11 UNL     1      11.599   2.042  22.094  0.00  0.00    -0.023 A 
BRANCH  12  13
ATOM     13  C12 UNL     1      10.877   1.195  23.114  0.00  0.00    +0.021 C 
ATOM     14  C13 UNL     1       9.760   0.322  22.550  0.00  0.00    +0.009 C 
ATOM     15  C14 UNL     1       9.416   1.560  23.356  0.00  0.00    +0.009 C 
ENDBRANCH  12  13
BRANCH   9  16
ATOM     16  O2  UNL     1      13.636   4.504  19.331  0.00  0.00    -0.495 OA
ATOM     17  C8  UNL     1      14.987   4.920  19.503  0.00  0.00    +0.277 C 
ENDBRANCH   9  16
ENDBRANCH   4   7
BRANCH   1  18
ATOM     18  C3  UNL     1      15.803  -1.635  23.813  0.00  0.00    +0.160 C 
BRANCH  18  19
ATOM     19  C15 UNL     1      17.107  -1.991  23.149  0.00  0.00    +0.231 C 
ATOM     20  N3  UNL     1      18.023  -2.887  23.780  0.00  0.00    -0.328 N 
ATOM     21  O3  UNL     1      17.390  -1.507  22.020  0.00  0.00    -0.274 OA
ATOM     22  H20 UNL     1      18.924  -3.130  23.314  0.00  0.00    +0.145 HD
ATOM     23  H21 UNL     1      17.805  -3.308  24.710  0.00  0.00    +0.145 HD
ENDBRANCH  18  19
BRANCH  18  25
ATOM     24  C1  UNL     1      14.399  -2.323  25.818  0.00  0.00    +0.006 C 
ATOM     25  C2  UNL     1      15.332  -2.798  24.704  0.00  0.00    +0.028 C 
ENDBRANCH  18  25
ENDBRANCH   1  18
TORSDOF 6
ENDMDL
MODEL 4
REMARK VINA RESULT:    -5.491     16.434     17.642
REMARK INTER + INTRA:          -7.997
REMARK INTER:                  -7.381
REMARK INTRA:                  -0.616
REMARK UNBOUND:                -0.580
REMARK  Name = /home/qwerty/github/datacon2025hack/step_04_hit_selection/docking/ligands/lig_166.pdb
REMARK  8 active torsions:
REMARK  status: ('A' for Active; 'I' for Inactive)
REMARK    1  A    between atoms: C1_1  and  C2_2
REMARK    2  A    between atoms: C2_2  and  C3_3
REMARK    3  A    between atoms: C3_3  and  N1_4
REMARK    4  A    between atoms: C3_3  and  C15_19
REMARK    5  A    between atoms: N2_7  and  C5_8
REMARK    6  A    between atoms: C7_10  and  O2_11
REMARK    7  A    between atoms: O2_11  and  C8_12
REMARK    8  A    between atoms: C11_15  and  C12_16
REMARK                            x       y       z     vdW  Elec       q    Type
REMARK                         _______ _______ _______ _____ _____    ______ ____
ROOT
ATOM      1  N1  UNL     1      23.205   8.389  34.938  0.00  0.00    -0.288 N 
ATOM      2  C4  UNL     1      21.862   8.852  35.128  0.00  0.00    +0.304 C 
ATOM      3  O1  UNL     1      21.049   8.854  34.163  0.00  0.00    -0.252 OA
ATOM      4  N2  UNL     1      21.450   9.325  36.418  0.00  0.00    -0.269 N 
ATOM      5  H7  UNL     1      23.851   8.398  35.759  0.00  0.00    +0.151 HD
ATOM      6  H8  UNL     1      22.189   9.611  37.099  0.00  0.00    +0.156 HD
ENDROOT
BRANCH   4   7
ATOM      7  C5  UNL     1      20.079   9.600  36.743  0.00  0.00    +0.042 A 
ATOM      8  C6  UNL     1      19.586  10.895  36.535  0.00  0.00    +0.069 A 
ATOM      9  C7  UNL     1      18.252  11.211  36.812  0.00  0.00    +0.122 A 
ATOM     10  C9  UNL     1      17.400  10.211  37.313  0.00  0.00    +0.046 A 
ATOM     11  C10 UNL     1      17.888   8.925  37.552  0.00  0.00    +0.009 A 
ATOM     12  C11 UNL     1      19.235   8.612  37.305  0.00  0.00    -0.023 A 
BRANCH  12  13
ATOM     13  C12 UNL     1      19.730   7.219  37.612  0.00  0.00    +0.021 C 
ATOM     14  C13 UNL     1      19.557   6.211  36.480  0.00  0.00    +0.009 C 
ATOM     15  C14 UNL     1      18.655   6.142  37.697  0.00  0.00    +0.009 C 
ENDBRANCH  12  13
BRANCH   9  16
ATOM     16  O2  UNL     1      17.813  12.521  36.570  0.00  0.00    -0.495 OA
ATOM     17  C8  UNL     1      16.500  12.995  36.854  0.00  0.00    +0.277 C 
ENDBRANCH   9  16
ENDBRANCH   4   7
BRANCH   1  18
ATOM     18  C3  UNL     1      23.639   7.760  33.686  0.00  0.00    +0.160 C 
BRANCH  18  19
ATOM     19  C15 UNL     1      24.113   6.359  33.969  0.00  0.00    +0.231 C 
ATOM     20  N3  UNL     1      23.436   5.541  34.924  0.00  0.00    -0.328 N 
ATOM     21  O3  UNL     1      25.108   5.895  33.349  0.00  0.00    -0.274 OA
ATOM     22  H20 UNL     1      23.770   4.570  35.114  0.00  0.00    +0.145 HD
ATOM     23  H21 UNL     1      22.604   5.899  35.442  0.00  0.00    +0.145 HD
ENDBRANCH  18  19
BRANCH  18  25
ATOM     24  C1  UNL     1      24.222   9.577  32.006  0.00  0.00    +0.006 C 
ATOM     25  C2  UNL     1      24.765   8.572  33.021  0.00  0.00    +0.028 C 
ENDBRANCH  18  25
ENDBRANCH   1  18
TORSDOF 6
ENDMDL
MODEL 5
REMARK VINA RESULT:    -5.455     12.288     14.693
REMARK INTER + INTRA:          -7.948
REMARK INTER:                  -7.728
REMARK INTRA:                  -0.220
REMARK UNBOUND:                -0.580
REMARK  Name = /home/qwerty/github/datacon2025hack/step_04_hit_selection/docking/ligands/lig_166.pdb
REMARK  8 active torsions:
REMARK  status: ('A' for Active; 'I' for Inactive)
REMARK    1  A    between atoms: C1_1  and  C2_2
REMARK    2  A    between atoms: C2_2  and  C3_3
REMARK    3  A    between atoms: C3_3  and  N1_4
REMARK    4  A    between atoms: C3_3  and  C15_19
REMARK    5  A    between atoms: N2_7  and  C5_8
REMARK    6  A    between atoms: C7_10  and  O2_11
REMARK    7  A    between atoms: O2_11  and  C8_12
REMARK    8  A    between atoms: C11_15  and  C12_16
REMARK                            x       y       z     vdW  Elec       q    Type
REMARK                         _______ _______ _______ _____ _____    ______ ____
ROOT
ATOM      1  N1  UNL     1      23.277   5.269  34.092  0.00  0.00    -0.288 N 
ATOM      2  C4  UNL     1      22.392   4.546  33.227  0.00  0.00    +0.304 C 
ATOM      3  O1  UNL     1      21.606   5.169  32.461  0.00  0.00    -0.252 OA
ATOM      4  N2  UNL     1      22.395   3.113  33.245  0.00  0.00    -0.269 N 
ATOM      5  H7  UNL     1      23.916   4.722  34.712  0.00  0.00    +0.151 HD
ATOM      6  H8  UNL     1      22.800   2.629  34.077  0.00  0.00    +0.156 HD
ENDROOT
BRANCH   4   7
ATOM      7  C5  UNL     1      21.703   2.322  32.267  0.00  0.00    +0.042 A 
ATOM      8  C6  UNL     1      22.287   2.154  31.004  0.00  0.00    +0.069 A 
ATOM      9  C7  UNL     1      21.668   1.373  30.023  0.00  0.00    +0.122 A 
ATOM     10  C9  UNL     1      20.439   0.755  30.312  0.00  0.00    +0.046 A 
ATOM     11  C10 UNL     1      19.834   0.940  31.556  0.00  0.00    +0.009 A 
ATOM     12  C11 UNL     1      20.436   1.748  32.533  0.00  0.00    -0.023 A 
BRANCH  12  13
ATOM     13  C12 UNL     1      19.730   1.950  33.853  0.00  0.00    +0.021 C 
ATOM     14  C13 UNL     1      18.207   1.940  33.775  0.00  0.00    +0.009 C 
ATOM     15  C14 UNL     1      18.943   3.249  33.985  0.00  0.00    +0.009 C 
ENDBRANCH  12  13
BRANCH   9  16
ATOM     16  O2  UNL     1      22.308   1.231  28.782  0.00  0.00    -0.495 OA
ATOM     17  C8  UNL     1      22.378   2.252  27.792  0.00  0.00    +0.277 C 
ENDBRANCH   9  16
ENDBRANCH   4   7
BRANCH   1  18
ATOM     18  C3  UNL     1      23.422   6.726  34.013  0.00  0.00    +0.160 C 
BRANCH  18  19
ATOM     19  C15 UNL     1      24.766   7.064  33.425  0.00  0.00    +0.231 C 
ATOM     20  N3  UNL     1      25.198   8.422  33.331  0.00  0.00    -0.328 N 
ATOM     21  O3  UNL     1      25.525   6.142  33.021  0.00  0.00    -0.274 OA
ATOM     22  H20 UNL     1      26.131   8.649  32.923  0.00  0.00    +0.145 HD
ATOM     23  H21 UNL     1      24.591   9.202  33.668  0.00  0.00    +0.145 HD
ENDBRANCH  18  19
BRANCH  18  25
ATOM     24  C1  UNL     1      23.348   6.335  36.524  0.00  0.00    +0.006 C 
ATOM     25  C2  UNL     1      23.279   7.372  35.403  0.00  0.00    +0.028 C 
ENDBRANCH  18  25
ENDBRANCH   1  18
TORSDOF 6
ENDMDL
MODEL 6
REMARK VINA RESULT:    -5.416      3.578      6.282
REMARK INTER + INTRA:          -7.896
REMARK INTER:                  -7.653
REMARK INTRA:                  -0.243
REMARK UNBOUND:                -0.580
REMARK  Name = /home/qwerty/github/datacon2025hack/step_04_hit_selection/docking/ligands/lig_166.pdb
REMARK  8 active torsions:
REMARK  status: ('A' for Active; 'I' for Inactive)
REMARK    1  A    between atoms: C1_1  and  C2_2
REMARK    2  A    between atoms: C2_2  and  C3_3
REMARK    3  A    between atoms: C3_3  and  N1_4
REMARK    4  A    between atoms: C3_3  and  C15_19
REMARK    5  A    between atoms: N2_7  and  C5_8
REMARK    6  A    between atoms: C7_10  and  O2_11
REMARK    7  A    between atoms: O2_11  and  C8_12
REMARK    8  A    between atoms: C11_15  and  C12_16
REMARK                            x       y       z     vdW  Elec       q    Type
REMARK                         _______ _______ _______ _____ _____    ______ ____
ROOT
ATOM      1  N1  UNL     1      12.339   3.197  20.152  0.00  0.00    -0.288 N 
ATOM      2  C4  UNL     1      11.522   4.191  20.782  0.00  0.00    +0.304 C 
ATOM      3  O1  UNL     1      11.784   4.576  21.955  0.00  0.00    -0.252 OA
ATOM      4  N2  UNL     1      10.398   4.737  20.079  0.00  0.00    -0.269 N 
ATOM      5  H7  UNL     1      12.095   2.902  19.178  0.00  0.00    +0.151 HD
ATOM      6  H8  UNL     1      10.014   4.202  19.268  0.00  0.00    +0.156 HD
ENDROOT
BRANCH   4   7
ATOM      7  C5  UNL     1       9.667   5.879  20.550  0.00  0.00    +0.042 A 
ATOM      8  C6  UNL     1      10.176   7.158  20.288  0.00  0.00    +0.069 A 
ATOM      9  C7  UNL     1       9.491   8.305  20.702  0.00  0.00    +0.122 A 
ATOM     10  C9  UNL     1       8.278   8.165  21.397  0.00  0.00    +0.046 A 
ATOM     11  C10 UNL     1       7.776   6.897  21.689  0.00  0.00    +0.009 A 
ATOM     12  C11 UNL     1       8.475   5.742  21.303  0.00  0.00    -0.023 A 
BRANCH  12  13
ATOM     13  C12 UNL     1       7.915   4.389  21.671  0.00  0.00    +0.021 C 
ATOM     14  C13 UNL     1       7.134   4.351  22.981  0.00  0.00    +0.009 C 
ATOM     15  C14 UNL     1       8.521   3.741  22.911  0.00  0.00    +0.009 C 
ENDBRANCH  12  13
BRANCH   9  16
ATOM     16  O2  UNL     1      10.045   9.558  20.398  0.00  0.00    -0.495 OA
ATOM     17  C8  UNL     1      11.178   9.754  19.558  0.00  0.00    +0.277 C 
ENDBRANCH   9  16
ENDBRANCH   4   7
BRANCH   1  18
ATOM     18  C3  UNL     1      13.581   2.711  20.761  0.00  0.00    +0.160 C 
BRANCH  18  19
ATOM     19  C15 UNL     1      14.737   3.000  19.841  0.00  0.00    +0.231 C 
ATOM     20  N3  UNL     1      15.532   1.936  19.316  0.00  0.00    -0.328 N 
ATOM     21  O3  UNL     1      15.001   4.190  19.517  0.00  0.00    -0.274 OA
ATOM     22  H20 UNL     1      16.332   2.143  18.678  0.00  0.00    +0.145 HD
ATOM     23  H21 UNL     1      15.327   0.943  19.562  0.00  0.00    +0.145 HD
ENDBRANCH  18  19
BRANCH  18  25
ATOM     24  C1  UNL     1      12.589   0.891  22.234  0.00  0.00    +0.006 C 
ATOM     25  C2  UNL     1      13.502   1.201  21.048  0.00  0.00    +0.028 C 
ENDBRANCH  18  25
ENDBRANCH   1  18
TORSDOF 6
ENDMDL
MODEL 7
REMARK VINA RESULT:    -5.403     14.736     16.706
REMARK INTER + INTRA:          -7.879
REMARK INTER:                  -7.433
REMARK INTRA:                  -0.446
REMARK UNBOUND:                -0.580
REMARK  Name = /home/qwerty/github/datacon2025hack/step_04_hit_selection/docking/ligands/lig_166.pdb
REMARK  8 active torsions:
REMARK  status: ('A' for Active; 'I' for Inactive)
REMARK    1  A    between atoms: C1_1  and  C2_2
REMARK    2  A    between atoms: C2_2  and  C3_3
REMARK    3  A    between atoms: C3_3  and  N1_4
REMARK    4  A    between atoms: C3_3  and  C15_19
REMARK    5  A    between atoms: N2_7  and  C5_8
REMARK    6  A    between atoms: C7_10  and  O2_11
REMARK    7  A    between atoms: O2_11  and  C8_12
REMARK    8  A    between atoms: C11_15  and  C12_16
REMARK                            x       y       z     vdW  Elec       q    Type
REMARK                         _______ _______ _______ _____ _____    ______ ____
ROOT
ATOM      1  N1  UNL     1      11.087  14.798  33.135  0.00  0.00    -0.288 N 
ATOM      2  C4  UNL     1      11.484  14.089  31.955  0.00  0.00    +0.304 C 
ATOM      3  O1  UNL     1      11.754  12.858  32.016  0.00  0.00    -0.252 OA
ATOM      4  N2  UNL     1      11.585  14.787  30.707  0.00  0.00    -0.269 N 
ATOM      5  H7  UNL     1      10.868  15.817  33.048  0.00  0.00    +0.151 HD
ATOM      6  H8  UNL     1      11.670  15.828  30.727  0.00  0.00    +0.156 HD
ENDROOT
BRANCH   4   7
ATOM      7  C5  UNL     1      11.763  14.113  29.452  0.00  0.00    +0.042 A 
ATOM      8  C6  UNL     1      13.051  14.043  28.904  0.00  0.00    +0.069 A 
ATOM      9  C7  UNL     1      13.285  13.377  27.697  0.00  0.00    +0.122 A 
ATOM     10  C9  UNL     1      12.207  12.777  27.024  0.00  0.00    +0.046 A 
ATOM     11  C10 UNL     1      10.915  12.866  27.545  0.00  0.00    +0.009 A 
ATOM     12  C11 UNL     1      10.671  13.560  28.741  0.00  0.00    -0.023 A 
BRANCH  12  13
ATOM     13  C12 UNL     1       9.253  13.663  29.251  0.00  0.00    +0.021 C 
ATOM     14  C13 UNL     1       8.616  12.336  29.653  0.00  0.00    +0.009 C 
ATOM     15  C14 UNL     1       8.188  13.020  28.370  0.00  0.00    +0.009 C 
ENDBRANCH  12  13
BRANCH   9  16
ATOM     16  O2  UNL     1      14.599  13.329  27.206  0.00  0.00    -0.495 OA
ATOM     17  C8  UNL     1      15.679  12.671  27.860  0.00  0.00    +0.277 C 
ENDBRANCH   9  16
ENDBRANCH   4   7
BRANCH   1  18
ATOM     18  C3  UNL     1      10.826  14.111  34.404  0.00  0.00    +0.160 C 
BRANCH  18  19
ATOM     19  C15 UNL     1       9.655  14.761  35.093  0.00  0.00    +0.231 C 
ATOM     20  N3  UNL     1       9.003  15.890  34.511  0.00  0.00    -0.328 N 
ATOM     21  O3  UNL     1       9.236  14.298  36.189  0.00  0.00    -0.274 OA
ATOM     22  H20 UNL     1       8.192  16.335  34.994  0.00  0.00    +0.145 HD
ATOM     23  H21 UNL     1       9.327  16.284  33.600  0.00  0.00    +0.145 HD
ENDBRANCH  18  19
BRANCH  18  25
ATOM     24  C1  UNL     1      12.867  12.853  35.250  0.00  0.00    +0.006 C 
ATOM     25  C2  UNL     1      12.063  14.151  35.319  0.00  0.00    +0.028 C 
ENDBRANCH  18  25
ENDBRANCH   1  18
TORSDOF 6
ENDMDL
MODEL 8
REMARK VINA RESULT:    -5.389     12.852     15.018
REMARK INTER + INTRA:          -7.860
REMARK INTER:                  -7.447
REMARK INTRA:                  -0.412
REMARK UNBOUND:                -0.580
REMARK  Name = /home/qwerty/github/datacon2025hack/step_04_hit_selection/docking/ligands/lig_166.pdb
REMARK  8 active torsions:
REMARK  status: ('A' for Active; 'I' for Inactive)
REMARK    1  A    between atoms: C1_1  and  C2_2
REMARK    2  A    between atoms: C2_2  and  C3_3
REMARK    3  A    between atoms: C3_3  and  N1_4
REMARK    4  A    between atoms: C3_3  and  C15_19
REMARK    5  A    between atoms: N2_7  and  C5_8
REMARK    6  A    between atoms: C7_10  and  O2_11
REMARK    7  A    between atoms: O2_11  and  C8_12
REMARK    8  A    between atoms: C11_15  and  C12_16
REMARK                            x       y       z     vdW  Elec       q    Type
REMARK                         _______ _______ _______ _____ _____    ______ ____
ROOT
ATOM      1  N1  UNL     1       8.144  11.235  29.002  0.00  0.00    -0.288 N 
ATOM      2  C4  UNL     1       9.275  11.781  29.691  0.00  0.00    +0.304 C 
ATOM      3  O1  UNL     1      10.049  11.023  30.338  0.00  0.00    -0.252 OA
ATOM      4  N2  UNL     1       9.516  13.194  29.653  0.00  0.00    -0.269 N 
ATOM      5  H7  UNL     1       7.524  11.891  28.474  0.00  0.00    +0.151 HD
ATOM      6  H8  UNL     1       8.724  13.824  29.396  0.00  0.00    +0.156 HD
ENDROOT
BRANCH   4   7
ATOM      7  C5  UNL     1      10.733  13.788  30.130  0.00  0.00    +0.042 A 
ATOM      8  C6  UNL     1      10.959  13.837  31.513  0.00  0.00    +0.069 A 
ATOM      9  C7  UNL     1      12.139  14.382  32.030  0.00  0.00    +0.122 A 
ATOM     10  C9  UNL     1      13.104  14.892  31.145  0.00  0.00    +0.046 A 
ATOM     11  C10 UNL     1      12.877  14.875  29.769  0.00  0.00    +0.009 A 
ATOM     12  C11 UNL     1      11.681  14.357  29.246  0.00  0.00    -0.023 A 
BRANCH  12  13
ATOM     13  C12 UNL     1      11.459  14.391  27.752  0.00  0.00    +0.021 C 
ATOM     14  C13 UNL     1      12.067  13.221  26.986  0.00  0.00    +0.009 C 
ATOM     15  C14 UNL     1      12.711  14.591  26.906  0.00  0.00    +0.009 C 
ENDBRANCH  12  13
BRANCH   9  16
ATOM     16  O2  UNL     1      12.314  14.391  33.422  0.00  0.00    -0.495 OA
ATOM     17  C8  UNL     1      11.299  14.054  34.363  0.00  0.00    +0.277 C 
ENDBRANCH   9  16
ENDBRANCH   4   7
BRANCH   1  18
ATOM     18  C3  UNL     1       7.930   9.789  28.883  0.00  0.00    +0.160 C 
BRANCH  18  19
ATOM     19  C15 UNL     1       7.609   9.446  27.453  0.00  0.00    +0.231 C 
ATOM     20  N3  UNL     1       6.649   8.434  27.146  0.00  0.00    -0.328 N 
ATOM     21  O3  UNL     1       8.182  10.064  26.515  0.00  0.00    -0.274 OA
ATOM     22  H20 UNL     1       6.431   8.201  26.152  0.00  0.00    +0.145 HD
ATOM     23  H21 UNL     1       6.155   7.916  27.905  0.00  0.00    +0.145 HD
ENDBRANCH  18  19
BRANCH  18  25
ATOM     24  C1  UNL     1       7.235   8.205  30.748  0.00  0.00    +0.006 C 
ATOM     25  C2  UNL     1       6.788   9.322  29.804  0.00  0.00    +0.028 C 
ENDBRANCH  18  25
ENDBRANCH   1  18
TORSDOF 6
ENDMDL
MODEL 9
REMARK VINA RESULT:    -5.306     17.900     19.135
REMARK INTER + INTRA:          -7.747
REMARK INTER:                  -7.139
REMARK INTRA:                  -0.609
REMARK UNBOUND:                -0.580
REMARK  Name = /home/qwerty/github/datacon2025hack/step_04_hit_selection/docking/ligands/lig_166.pdb
REMARK  8 active torsions:
REMARK  status: ('A' for Active; 'I' for Inactive)
REMARK    1  A    between atoms: C1_1  and  C2_2
REMARK    2  A    between atoms: C2_2  and  C3_3
REMARK    3  A    between atoms: C3_3  and  N1_4
REMARK    4  A    between atoms: C3_3  and  C15_19
REMARK    5  A    between atoms: N2_7  and  C5_8
REMARK    6  A    between atoms: C7_10  and  O2_11
REMARK    7  A    between atoms: O2_11  and  C8_12
REMARK    8  A    between atoms: C11_15  and  C12_16
REMARK                            x       y       z     vdW  Elec       q    Type
REMARK                         _______ _______ _______ _____ _____    ______ ____
ROOT
ATOM      1  N1  UNL     1      13.164  12.555  37.187  0.00  0.00    -0.288 N 
ATOM      2  C4  UNL     1      14.373  11.860  36.859  0.00  0.00    +0.304 C 
ATOM      3  O1  UNL     1      14.346  10.881  36.063  0.00  0.00    -0.252 OA
ATOM      4  N2  UNL     1      15.612  12.273  37.450  0.00  0.00    -0.269 N 
ATOM      5  H7  UNL     1      13.223  13.363  37.848  0.00  0.00    +0.151 HD
ATOM      6  H8  UNL     1      15.578  12.852  38.319  0.00  0.00    +0.156 HD
ENDROOT
BRANCH   4   7
ATOM      7  C5  UNL     1      16.886  11.774  37.014  0.00  0.00    +0.042 A 
ATOM      8  C6  UNL     1      17.428  10.657  37.663  0.00  0.00    +0.069 A 
ATOM      9  C7  UNL     1      18.653  10.115  37.262  0.00  0.00    +0.122 A 
ATOM     10  C9  UNL     1      19.350  10.709  36.195  0.00  0.00    +0.046 A 
ATOM     11  C10 UNL     1      18.833  11.839  35.560  0.00  0.00    +0.009 A 
ATOM     12  C11 UNL     1      17.619  12.405  35.980  0.00  0.00    -0.023 A 
BRANCH  12  13
ATOM     13  C12 UNL     1      17.114  13.650  35.289  0.00  0.00    +0.021 C 
ATOM     14  C13 UNL     1      16.313  13.399  34.016  0.00  0.00    +0.009 C 
ATOM     15  C14 UNL     1      17.727  13.939  33.924  0.00  0.00    +0.009 C 
ENDBRANCH  12  13
BRANCH   9  16
ATOM     16  O2  UNL     1      19.138   8.988  37.942  0.00  0.00    -0.495 OA
ATOM     17  C8  UNL     1      19.297   7.700  37.355  0.00  0.00    +0.277 C 
ENDBRANCH   9  16
ENDBRANCH   4   7
BRANCH   1  18
ATOM     18  C3  UNL     1      11.897  12.274  36.505  0.00  0.00    +0.160 C 
BRANCH  18  19
ATOM     19  C15 UNL     1      11.290  13.564  36.023  0.00  0.00    +0.231 C 
ATOM     20  N3  UNL     1      12.089  14.536  35.348  0.00  0.00    -0.328 N 
ATOM     21  O3  UNL     1      10.062  13.787  36.202  0.00  0.00    -0.274 OA
ATOM     22  H20 UNL     1      11.662  15.429  35.016  0.00  0.00    +0.145 HD
ATOM     23  H21 UNL     1      13.106  14.370  35.180  0.00  0.00    +0.145 HD
ENDBRANCH  18  19
BRANCH  18  25
ATOM     24  C1  UNL     1      10.921  10.036  37.219  0.00  0.00    +0.006 C 
ATOM     25  C2  UNL     1      10.914  11.549  37.443  0.00  0.00    +0.028 C 
ENDBRANCH  18  25
ENDBRANCH   1  18
TORSDOF 6
ENDMDL
