REMARK  Name = /home/qwerty/github/datacon2025hack/step_04_hit_selection/docking/ligands/lig_664.pdb
REMARK  8 active torsions:
REMARK  status: ('A' for Active; 'I' for Inactive)
REMARK    1  A    between atoms: C2_2  and  C3_3
REMARK    2  A    between atoms: C3_3  and  C4_4
REMARK    3  A    between atoms: C3_3  and  C6_6
REMARK    4  A    between atoms: C4_4  and  C5_5
REMARK    5  A    between atoms: C6_6  and  C7_7
REMARK    6  A    between atoms: N1_9  and  C8_10
REMARK    7  A    between atoms: C13_15  and  N2_16
REMARK    8  A    between atoms: C14_17  and  C15_19
REMARK                            x       y       z     vdW  Elec       q    Type
REMARK                         _______ _______ _______ _____ _____    ______ ____
ROOT
ATOM      1  C8  UNL     1      -0.643   0.959  -1.360  0.00  0.00    +0.074 C 
ATOM      2  C9  UNL     1       0.691   0.235  -1.579  0.00  0.00    +0.029 C 
ATOM      3  C10 UNL     1       1.348   1.241  -0.643  0.00  0.00    -0.023 C 
ATOM      4  C11 UNL     1       0.032   1.976  -0.427  0.00  0.00    +0.029 C 
ATOM      5  C12 UNL     1       2.108   0.730   0.574  0.00  0.00    +0.029 C 
ATOM      6  C13 UNL     1       3.334   1.514   0.089  0.00  0.00    +0.074 C 
ATOM      7  C18 UNL     1       2.559   2.023  -1.135  0.00  0.00    +0.029 C 
ENDROOT
BRANCH   1  10
ATOM      8  C7  UNL     1      -2.582  -0.671  -1.380  0.00  0.00    +0.214 C 
ATOM      9  O1  UNL     1      -2.688  -0.562  -2.632  0.00  0.00    -0.276 OA
ATOM     10  N1  UNL     1      -1.613   0.109  -0.665  0.00  0.00    -0.312 N 
ATOM     11  H12 UNL     1      -1.535  -0.022   0.370  0.00  0.00    +0.149 HD
BRANCH   8  12
ATOM     12  C6  UNL     1      -3.496  -1.604  -0.639  0.00  0.00    +0.103 C 
BRANCH  12  13
ATOM     13  C3  UNL     1      -4.871  -0.963  -0.354  0.00  0.00    +0.020 C 
BRANCH  13  15
ATOM     14  C1  UNL     1      -5.674  -2.711   1.255  0.00  0.00    +0.004 C 
ATOM     15  C2  UNL     1      -5.849  -2.018   0.124  0.00  0.00    -0.031 C 
ENDBRANCH  13  15
BRANCH  13  16
ATOM     16  C4  UNL     1      -4.763   0.214   0.645  0.00  0.00    +0.004 C 
ATOM     17  C5  UNL     1      -6.101   0.924   0.860  0.00  0.00    +0.004 C 
ENDBRANCH  13  16
ENDBRANCH  12  13
ENDBRANCH   8  12
ENDBRANCH   1  10
BRANCH   6  18
ATOM     18  N2  UNL     1       4.438   0.624  -0.282  0.00  0.00    -0.307 N 
ATOM     19  C14 UNL     1       5.688   0.618   0.425  0.00  0.00    +0.263 C 
ATOM     20  O2  UNL     1       5.905   1.466   1.334  0.00  0.00    -0.269 OA
ATOM     21  H21 UNL     1       4.271  -0.093  -1.025  0.00  0.00    +0.149 HD
BRANCH  19  22
ATOM     22  C15 UNL     1       6.729  -0.375   0.098  0.00  0.00    +0.132 A 
ATOM     23  C16 UNL     1       7.974  -0.411   0.724  0.00  0.00    +0.079 A 
ATOM     24  S1  UNL     1       8.838  -1.692   0.065  0.00  0.00    -0.083 S 
ATOM     25  C17 UNL     1       7.608  -2.144  -0.985  0.00  0.00    +0.156 A 
ATOM     26  N3  UNL     1       6.535  -1.336  -0.847  0.00  0.00    -0.243 NA
ENDBRANCH  19  22
ENDBRANCH   6  18
TORSDOF 7
