REMARK  Name = /home/qwerty/github/datacon2025hack/step_04_hit_selection/docking/ligands/lig_268.pdb
REMARK  5 active torsions:
REMARK  status: ('A' for Active; 'I' for Inactive)
REMARK    1  A    between atoms: C1_1  and  N1_2
REMARK    2  A    between atoms: C2_4  and  C3_5
REMARK    3  A    between atoms: C10_13  and  C11_14
REMARK    4  A    between atoms: C11_14  and  N3_15
REMARK    5  A    between atoms: C14_19  and  C15_21
REMARK                            x       y       z     vdW  Elec       q    Type
REMARK                         _______ _______ _______ _____ _____    ______ ____
ROOT
ATOM      1  N3  UNL     1       0.182  -0.597   1.649  0.00  0.00    -0.294 NA
ATOM      2  C12 UNL     1       0.843  -0.920   0.364  0.00  0.00    +0.104 C 
ATOM      3  C13 UNL     1       1.905   0.131   0.030  0.00  0.00    +0.123 C 
ATOM      4  N4  UNL     1       2.828   0.262   1.161  0.00  0.00    -0.295 N 
ATOM      5  C14 UNL     1       4.236   0.001   1.011  0.00  0.00    +0.247 C 
ATOM      6  O1  UNL     1       4.830  -0.695   1.879  0.00  0.00    -0.270 OA
ATOM      7  C21 UNL     1       2.241   0.478   2.485  0.00  0.00    +0.123 C 
ATOM      8  C22 UNL     1       1.173  -0.586   2.746  0.00  0.00    +0.104 C 
ENDROOT
BRANCH   5   9
ATOM      9  C15 UNL     1       5.004   0.535  -0.139  0.00  0.00    +0.037 A 
ATOM     10  C16 UNL     1       6.174  -0.115  -0.573  0.00  0.00    +0.014 A 
ATOM     11  C17 UNL     1       6.906   0.391  -1.651  0.00  0.00    +0.021 A 
ATOM     12  C18 UNL     1       6.485   1.554  -2.301  0.00  0.00    +0.041 A 
ATOM     13 CL1  UNL     1       7.407   2.187  -3.653  0.00  0.00    -0.084 Cl
ATOM     14  C19 UNL     1       5.332   2.215  -1.869  0.00  0.00    +0.021 A 
ATOM     15  C20 UNL     1       4.596   1.712  -0.792  0.00  0.00    +0.014 A 
ENDBRANCH   5   9
BRANCH   1  16
ATOM     16  C11 UNL     1      -0.887  -1.572   1.946  0.00  0.00    +0.139 C 
BRANCH  16  22
ATOM     17  C1  UNL     1      -1.984  -3.448  -0.282  0.00  0.00    +0.172 C 
ATOM     18  N1  UNL     1      -2.532  -2.150   0.095  0.00  0.00    -0.270 N 
ATOM     19  N2  UNL     1      -3.582  -1.604  -0.494  0.00  0.00    -0.171 NA
ATOM     20  C2  UNL     1      -3.816  -0.412   0.097  0.00  0.00    +0.093 A 
ATOM     21  C9  UNL     1      -2.876  -0.201   1.097  0.00  0.00    +0.054 A 
ATOM     22  C10 UNL     1      -2.082  -1.329   1.067  0.00  0.00    +0.053 A 
BRANCH  20  23
ATOM     23  C3  UNL     1      -4.916   0.499  -0.301  0.00  0.00    +0.002 A 
ATOM     24  C4  UNL     1      -5.790   0.133  -1.342  0.00  0.00    +0.013 A 
ATOM     25  C5  UNL     1      -6.831   0.982  -1.728  0.00  0.00    +0.039 A 
ATOM     26  C6  UNL     1      -7.014   2.206  -1.080  0.00  0.00    +0.123 A 
ATOM     27  F1  UNL     1      -8.025   3.028  -1.456  0.00  0.00    -0.205 F 
ATOM     28  C7  UNL     1      -6.155   2.582  -0.046  0.00  0.00    +0.039 A 
ATOM     29  C8  UNL     1      -5.111   1.736   0.344  0.00  0.00    +0.013 A 
ENDBRANCH  20  23
ENDBRANCH  16  22
ENDBRANCH   1  16
TORSDOF 4
