REMARK  Name = /home/qwerty/github/datacon2025hack/step_04_hit_selection/docking/ligands/lig_315.pdb
REMARK  3 active torsions:
REMARK  status: ('A' for Active; 'I' for Inactive)
REMARK    1  A    between atoms: C1_2  and  C8_13
REMARK    2  A    between atoms: N1_3  and  C2_4
REMARK    3  A    between atoms: C13_19  and  C14_20
REMARK                            x       y       z     vdW  Elec       q    Type
REMARK                         _______ _______ _______ _____ _____    ______ ____
ROOT
ATOM      1  C8  UNL     1      -1.339   1.105  -0.360  0.00  0.00    +0.038 A 
ATOM      2  C9  UNL     1      -0.641   2.141  -1.038  0.00  0.00    +0.015 A 
ATOM      3  C10 UNL     1       0.765   2.165  -1.076  0.00  0.00    +0.027 A 
ATOM      4  C11 UNL     1       1.454   1.150  -0.420  0.00  0.00    +0.048 A 
ATOM      5  N5  UNL     1       2.794   0.991  -0.343  0.00  0.00    -0.354 N 
ATOM      6  C12 UNL     1       2.971  -0.129   0.399  0.00  0.00    +0.058 A 
ATOM      7  C13 UNL     1       4.178  -0.749   0.754  0.00  0.00    +0.024 A 
ATOM      8  C20 UNL     1       4.081  -1.953   1.489  0.00  0.00    +0.121 A 
ATOM      9  N6  UNL     1       2.859  -2.464   1.840  0.00  0.00    -0.262 NA
ATOM     10  C21 UNL     1       1.690  -1.851   1.500  0.00  0.00    +0.121 A 
ATOM     11  C22 UNL     1       1.759  -0.672   0.769  0.00  0.00    +0.026 A 
ATOM     12  C23 UNL     1       0.786   0.149   0.249  0.00  0.00    +0.010 A 
ATOM     13  C24 UNL     1      -0.605   0.092   0.303  0.00  0.00    +0.023 A 
ATOM     14  H8  UNL     1       3.522   1.595  -0.784  0.00  0.00    +0.166 HD
ENDROOT
BRANCH   7  15
ATOM     15  C14 UNL     1       5.499  -0.186   0.396  0.00  0.00    -0.012 A 
ATOM     16  C15 UNL     1       5.805   1.157   0.681  0.00  0.00    +0.009 A 
ATOM     17  C16 UNL     1       7.059   1.679   0.353  0.00  0.00    +0.003 A 
ATOM     18  C17 UNL     1       8.020   0.866  -0.254  0.00  0.00    +0.038 A 
ATOM     19  C18 UNL     1       7.730  -0.472  -0.530  0.00  0.00    +0.124 A 
ATOM     20  F1  UNL     1       8.665  -1.261  -1.115  0.00  0.00    -0.205 F 
ATOM     21  C19 UNL     1       6.476  -0.999  -0.203  0.00  0.00    +0.047 A 
ENDBRANCH   7  15
BRANCH   1  23
ATOM     22  O1  UNL     1      -3.421   2.225  -0.406  0.00  0.00    -0.270 OA
ATOM     23  C1  UNL     1      -2.822   1.117  -0.340  0.00  0.00    +0.248 C 
ATOM     24  N1  UNL     1      -3.578  -0.105  -0.238  0.00  0.00    -0.280 N 
ATOM     25  H1  UNL     1      -3.080  -1.000  -0.043  0.00  0.00    +0.155 HD
BRANCH  24  26
ATOM     26  C2  UNL     1      -5.012  -0.167  -0.321  0.00  0.00    +0.053 A 
ATOM     27  C3  UNL     1      -5.743   0.648  -1.233  0.00  0.00    +0.136 A 
ATOM     28  N2  UNL     1      -7.105   0.553  -1.318  0.00  0.00    -0.234 NA
ATOM     29  C4  UNL     1      -7.747  -0.336  -0.523  0.00  0.00    +0.156 A 
ATOM     30  N3  UNL     1      -9.064  -0.572  -0.470  0.00  0.00    -0.260 N 
ATOM     31  N4  UNL     1      -9.271  -1.531   0.427  0.00  0.00    -0.180 NA
ATOM     32  C5  UNL     1      -8.073  -1.904   0.945  0.00  0.00    +0.144 A 
ATOM     33  C6  UNL     1      -7.091  -1.147   0.345  0.00  0.00    +0.040 A 
ATOM     34  C7  UNL     1      -5.709  -1.103   0.474  0.00  0.00    +0.038 A 
ATOM     35  H3  UNL     1      -9.812  -0.102  -1.027  0.00  0.00    +0.191 HD
ENDBRANCH  24  26
ENDBRANCH   1  23
TORSDOF 3
