REMARK  Name = /home/qwerty/github/datacon2025hack/step_04_hit_selection/docking/ligands/lig_28.pdb
REMARK  9 active torsions:
REMARK  status: ('A' for Active; 'I' for Inactive)
REMARK    1  A    between atoms: C1_1  and  C2_2
REMARK    2  A    between atoms: C2_2  and  C3_3
REMARK    3  A    between atoms: C2_2  and  N1_4
REMARK    4  A    between atoms: C5_7  and  C6_8
REMARK    5  A    between atoms: N3_10  and  C7_11
REMARK    6  A    between atoms: C7_11  and  C8_12
REMARK    7  A    between atoms: N4_14  and  C10_15
REMARK    8  A    between atoms: C13_19  and  C14_20
REMARK    9  A    between atoms: C16_24  and  C17_25
REMARK                            x       y       z     vdW  Elec       q    Type
REMARK                         _______ _______ _______ _____ _____    ______ ____
ROOT
ATOM      1  C8  UNL     1       1.860  -1.886   1.171  0.00  0.00    +0.028 C 
ATOM      2  C9  UNL     1       2.125  -0.391   1.359  0.00  0.00    +0.112 C 
ATOM      3  N4  UNL     1       2.768   0.041   0.128  0.00  0.00    -0.313 N 
ATOM      4  C15 UNL     1       2.756  -0.987  -0.903  0.00  0.00    +0.110 C 
ATOM      5  C16 UNL     1       1.862  -2.101  -0.355  0.00  0.00    +0.009 C 
ATOM      6  C17 UNL     1       2.351  -3.496  -0.760  0.00  0.00    +0.009 C 
ENDROOT
BRANCH   3   7
ATOM      7  C10 UNL     1       3.333   1.356  -0.035  0.00  0.00    +0.141 A 
ATOM      8  C11 UNL     1       4.041   1.715  -1.196  0.00  0.00    +0.154 A 
ATOM      9  N5  UNL     1       4.558   2.967  -1.305  0.00  0.00    -0.257 NA
ATOM     10  C12 UNL     1       4.405   3.884  -0.315  0.00  0.00    +0.149 A 
ATOM     11  C13 UNL     1       3.705   3.533   0.841  0.00  0.00    +0.160 A 
ATOM     12  N7  UNL     1       3.188   2.282   0.953  0.00  0.00    -0.219 NA
BRANCH  11  13
ATOM     13  C14 UNL     1       3.526   4.480   1.908  0.00  0.00    +0.121 C 
ATOM     14  N6  UNL     1       3.382   5.242   2.767  0.00  0.00    -0.189 NA
ENDBRANCH  11  13
ENDBRANCH   3   7
BRANCH   1  15
ATOM     15  C7  UNL     1       0.595  -2.395   1.895  0.00  0.00    +0.110 C 
BRANCH  15  18
ATOM     16  C6  UNL     1      -1.512  -2.423   0.458  0.00  0.00    +0.264 C 
ATOM     17  O1  UNL     1      -1.318  -3.628   0.144  0.00  0.00    -0.268 OA
ATOM     18  N3  UNL     1      -0.631  -1.771   1.389  0.00  0.00    -0.310 N 
ATOM     19  H9  UNL     1      -0.868  -0.817   1.738  0.00  0.00    +0.149 HD
BRANCH  16  23
ATOM     20  N1  UNL     1      -4.046  -0.114  -0.747  0.00  0.00    -0.334 N 
ATOM     21  C4  UNL     1      -4.384  -1.291  -1.310  0.00  0.00    +0.200 A 
ATOM     22  N2  UNL     1      -3.545  -2.290  -0.966  0.00  0.00    -0.231 NA
ATOM     23  C5  UNL     1      -2.645  -1.702  -0.149  0.00  0.00    +0.143 A 
ATOM     24  C18 UNL     1      -2.946  -0.362  -0.012  0.00  0.00    +0.120 A 
BRANCH  20  26
ATOM     25  C1  UNL     1      -3.802   2.187  -1.589  0.00  0.00    +0.030 C 
ATOM     26  C2  UNL     1      -4.733   1.170  -0.923  0.00  0.00    +0.082 C 
ATOM     27  C3  UNL     1      -5.248   1.690   0.422  0.00  0.00    +0.030 C 
ENDBRANCH  20  26
ENDBRANCH  16  23
ENDBRANCH  15  18
ENDBRANCH   1  15
TORSDOF 6
