MODEL 1
REMARK VINA RESULT:    -7.019      0.000      0.000
REMARK INTER + INTRA:          -8.946
REMARK INTER:                  -8.455
REMARK INTRA:                  -0.491
REMARK UNBOUND:                -0.491
REMARK  Name = /home/qwerty/github/datacon2025hack/step_04_hit_selection/docking/ligands/lig_401.pdb
REMARK  4 active torsions:
REMARK  status: ('A' for Active; 'I' for Inactive)
REMARK    1  A    between atoms: C1_2  and  C12_18
REMARK    2  A    between atoms: N1_3  and  C2_4
REMARK    3  A    between atoms: C4_7  and  C5_8
REMARK    4  A    between atoms: C8_11  and  O2_12
REMARK                            x       y       z     vdW  Elec       q    Type
REMARK                         _______ _______ _______ _____ _____    ______ ____
ROOT
ATOM      1  C2  UNL     1      13.406   5.150  20.703  0.00  0.00    +0.070 A 
ATOM      2  C3  UNL     1      13.535   4.704  22.022  0.00  0.00    +0.138 A 
ATOM      3  N2  UNL     1      14.214   3.560  22.292  0.00  0.00    -0.234 NA
ATOM      4  C4  UNL     1      14.770   2.814  21.297  0.00  0.00    +0.160 A 
ATOM      5  N3  UNL     1      14.633   3.221  20.005  0.00  0.00    -0.234 NA
ATOM      6  C11 UNL     1      13.965   4.361  19.689  0.00  0.00    +0.138 A 
ENDROOT
BRANCH   4   7
ATOM      7  C5  UNL     1      15.508   1.567  21.617  0.00  0.00    +0.022 A 
ATOM      8  C6  UNL     1      15.895   1.282  22.940  0.00  0.00    +0.015 A 
ATOM      9  C7  UNL     1      16.591   0.107  23.239  0.00  0.00    +0.049 A 
ATOM     10  C8  UNL     1      16.911  -0.802  22.226  0.00  0.00    +0.152 A 
ATOM     11  C9  UNL     1      16.530  -0.529  20.904  0.00  0.00    +0.165 A 
ATOM     12  F1  UNL     1      16.833  -1.400  19.909  0.00  0.00    -0.202 F 
ATOM     13  C10 UNL     1      15.834   0.646  20.602  0.00  0.00    +0.053 A 
BRANCH  10  14
ATOM     14  O2  UNL     1      17.605  -1.966  22.548  0.00  0.00    -0.504 OA
ATOM     15  H5  UNL     1      18.612  -1.976  22.655  0.00  0.00    +0.292 HD
ENDBRANCH  10  14
ENDBRANCH   4   7
BRANCH   1  18
ATOM     16  O1  UNL     1      10.575   5.355  20.115  0.00  0.00    -0.270 OA
ATOM     17  C1  UNL     1      11.232   6.407  20.347  0.00  0.00    +0.249 C 
ATOM     18  N1  UNL     1      12.666   6.350  20.418  0.00  0.00    -0.279 N 
ATOM     19  H1  UNL     1      13.206   7.201  20.141  0.00  0.00    +0.155 HD
BRANCH  17  20
ATOM     20  C12 UNL     1      10.514   7.697  20.490  0.00  0.00    +0.043 A 
ATOM     21  C13 UNL     1      10.997   8.867  19.875  0.00  0.00    +0.054 A 
ATOM     22  C14 UNL     1      10.317  10.080  20.023  0.00  0.00    +0.162 A 
ATOM     23  F2  UNL     1      10.795  11.200  19.427  0.00  0.00    -0.202 F 
ATOM     24  C15 UNL     1       9.149  10.141  20.789  0.00  0.00    +0.193 A 
ATOM     25  F3  UNL     1       8.491  11.317  20.932  0.00  0.00    -0.199 F 
ATOM     26  C16 UNL     1       8.664   8.988  21.412  0.00  0.00    +0.162 A 
ATOM     27  F4  UNL     1       7.533   9.044  22.159  0.00  0.00    -0.202 F 
ATOM     28  C17 UNL     1       9.342   7.773  21.268  0.00  0.00    +0.054 A 
ENDBRANCH  17  20
ENDBRANCH   1  18
TORSDOF 4
ENDMDL
MODEL 2
REMARK VINA RESULT:    -6.989      9.984     11.711
REMARK INTER + INTRA:          -8.910
REMARK INTER:                  -8.463
REMARK INTRA:                  -0.446
REMARK UNBOUND:                -0.491
REMARK  Name = /home/qwerty/github/datacon2025hack/step_04_hit_selection/docking/ligands/lig_401.pdb
REMARK  4 active torsions:
REMARK  status: ('A' for Active; 'I' for Inactive)
REMARK    1  A    between atoms: C1_2  and  C12_18
REMARK    2  A    between atoms: N1_3  and  C2_4
REMARK    3  A    between atoms: C4_7  and  C5_8
REMARK    4  A    between atoms: C8_11  and  O2_12
REMARK                            x       y       z     vdW  Elec       q    Type
REMARK                         _______ _______ _______ _____ _____    ______ ____
ROOT
ATOM      1  C2  UNL     1      21.419   3.516  25.159  0.00  0.00    +0.070 A 
ATOM      2  C3  UNL     1      22.539   3.352  25.980  0.00  0.00    +0.138 A 
ATOM      3  N2  UNL     1      22.394   2.887  27.248  0.00  0.00    -0.234 NA
ATOM      4  C4  UNL     1      21.167   2.583  27.754  0.00  0.00    +0.160 A 
ATOM      5  N3  UNL     1      20.064   2.759  26.977  0.00  0.00    -0.234 NA
ATOM      6  C11 UNL     1      20.162   3.219  25.702  0.00  0.00    +0.138 A 
ENDROOT
BRANCH   4   7
ATOM      7  C5  UNL     1      21.033   2.075  29.143  0.00  0.00    +0.022 A 
ATOM      8  C6  UNL     1      20.165   1.007  29.434  0.00  0.00    +0.015 A 
ATOM      9  C7  UNL     1      20.040   0.531  30.743  0.00  0.00    +0.049 A 
ATOM     10  C8  UNL     1      20.777   1.111  31.780  0.00  0.00    +0.152 A 
ATOM     11  C9  UNL     1      21.645   2.176  31.501  0.00  0.00    +0.165 A 
ATOM     12  F1  UNL     1      22.368   2.751  32.495  0.00  0.00    -0.202 F 
ATOM     13  C10 UNL     1      21.772   2.655  30.193  0.00  0.00    +0.053 A 
BRANCH  10  14
ATOM     14  O2  UNL     1      20.636   0.619  33.076  0.00  0.00    -0.504 OA
ATOM     15  H5  UNL     1      19.815   0.099  33.363  0.00  0.00    +0.292 HD
ENDBRANCH  10  14
ENDBRANCH   4   7
BRANCH   1  18
ATOM     16  O1  UNL     1      21.002   6.248  24.287  0.00  0.00    -0.270 OA
ATOM     17  C1  UNL     1      21.560   5.432  23.504  0.00  0.00    +0.249 C 
ATOM     18  N1  UNL     1      21.574   4.032  23.825  0.00  0.00    -0.279 N 
ATOM     19  H1  UNL     1      21.588   3.346  23.037  0.00  0.00    +0.155 HD
BRANCH  17  20
ATOM     20  C12 UNL     1      22.148   5.926  22.234  0.00  0.00    +0.043 A 
ATOM     21  C13 UNL     1      21.629   5.521  20.990  0.00  0.00    +0.054 A 
ATOM     22  C14 UNL     1      22.196   5.987  19.799  0.00  0.00    +0.162 A 
ATOM     23  F2  UNL     1      21.687   5.587  18.608  0.00  0.00    -0.202 F 
ATOM     24  C15 UNL     1      23.287   6.859  19.835  0.00  0.00    +0.193 A 
ATOM     25  F3  UNL     1      23.835   7.310  18.681  0.00  0.00    -0.199 F 
ATOM     26  C16 UNL     1      23.817   7.262  21.065  0.00  0.00    +0.162 A 
ATOM     27  F4  UNL     1      24.878   8.105  21.103  0.00  0.00    -0.202 F 
ATOM     28  C17 UNL     1      23.254   6.797  22.258  0.00  0.00    +0.054 A 
ENDBRANCH  17  20
ENDBRANCH   1  18
TORSDOF 4
ENDMDL
MODEL 3
REMARK VINA RESULT:    -6.982      0.056      1.629
REMARK INTER + INTRA:          -8.902
REMARK INTER:                  -8.417
REMARK INTRA:                  -0.485
REMARK UNBOUND:                -0.491
REMARK  Name = /home/qwerty/github/datacon2025hack/step_04_hit_selection/docking/ligands/lig_401.pdb
REMARK  4 active torsions:
REMARK  status: ('A' for Active; 'I' for Inactive)
REMARK    1  A    between atoms: C1_2  and  C12_18
REMARK    2  A    between atoms: N1_3  and  C2_4
REMARK    3  A    between atoms: C4_7  and  C5_8
REMARK    4  A    between atoms: C8_11  and  O2_12
REMARK                            x       y       z     vdW  Elec       q    Type
REMARK                         _______ _______ _______ _____ _____    ______ ____
ROOT
ATOM      1  C2  UNL     1      13.448   5.128  20.732  0.00  0.00    +0.070 A 
ATOM      2  C3  UNL     1      13.614   4.699  22.052  0.00  0.00    +0.138 A 
ATOM      3  N2  UNL     1      14.291   3.553  22.318  0.00  0.00    -0.234 NA
ATOM      4  C4  UNL     1      14.810   2.789  21.317  0.00  0.00    +0.160 A 
ATOM      5  N3  UNL     1      14.637   3.179  20.025  0.00  0.00    -0.234 NA
ATOM      6  C11 UNL     1      13.969   4.320  19.713  0.00  0.00    +0.138 A 
ENDROOT
BRANCH   4   7
ATOM      7  C5  UNL     1      15.547   1.539  21.632  0.00  0.00    +0.022 A 
ATOM      8  C6  UNL     1      15.948   1.257  22.950  0.00  0.00    +0.015 A 
ATOM      9  C7  UNL     1      16.643   0.080  23.244  0.00  0.00    +0.049 A 
ATOM     10  C8  UNL     1      16.948  -0.833  22.230  0.00  0.00    +0.152 A 
ATOM     11  C9  UNL     1      16.553  -0.562  20.913  0.00  0.00    +0.165 A 
ATOM     12  F1  UNL     1      16.840  -1.437  19.916  0.00  0.00    -0.202 F 
ATOM     13  C10 UNL     1      15.858   0.615  20.616  0.00  0.00    +0.053 A 
BRANCH  10  14
ATOM     14  O2  UNL     1      17.641  -2.000  22.547  0.00  0.00    -0.504 OA
ATOM     15  H5  UNL     1      18.646  -2.068  22.445  0.00  0.00    +0.292 HD
ENDBRANCH  10  14
ENDBRANCH   4   7
BRANCH   1  18
ATOM     16  O1  UNL     1      10.628   5.335  20.093  0.00  0.00    -0.270 OA
ATOM     17  C1  UNL     1      11.277   6.384  20.356  0.00  0.00    +0.249 C 
ATOM     18  N1  UNL     1      12.710   6.331  20.453  0.00  0.00    -0.279 N 
ATOM     19  H1  UNL     1      13.253   7.188  20.201  0.00  0.00    +0.155 HD
BRANCH  17  20
ATOM     20  C12 UNL     1      10.553   7.670  20.507  0.00  0.00    +0.043 A 
ATOM     21  C13 UNL     1       9.356   7.745  21.245  0.00  0.00    +0.054 A 
ATOM     22  C14 UNL     1       8.677   8.961  21.375  0.00  0.00    +0.162 A 
ATOM     23  F2  UNL     1       7.524   9.017  22.086  0.00  0.00    -0.202 F 
ATOM     24  C15 UNL     1       9.182  10.115  20.769  0.00  0.00    +0.193 A 
ATOM     25  F3  UNL     1       8.523  11.292  20.896  0.00  0.00    -0.199 F 
ATOM     26  C16 UNL     1      10.365  10.052  20.026  0.00  0.00    +0.162 A 
ATOM     27  F4  UNL     1      10.855  11.169  19.435  0.00  0.00    -0.202 F 
ATOM     28  C17 UNL     1      11.046   8.838  19.893  0.00  0.00    +0.054 A 
ENDBRANCH  17  20
ENDBRANCH   1  18
TORSDOF 4
ENDMDL
MODEL 4
REMARK VINA RESULT:    -6.971      9.968     11.663
REMARK INTER + INTRA:          -8.888
REMARK INTER:                  -8.413
REMARK INTRA:                  -0.475
REMARK UNBOUND:                -0.491
REMARK  Name = /home/qwerty/github/datacon2025hack/step_04_hit_selection/docking/ligands/lig_401.pdb
REMARK  4 active torsions:
REMARK  status: ('A' for Active; 'I' for Inactive)
REMARK    1  A    between atoms: C1_2  and  C12_18
REMARK    2  A    between atoms: N1_3  and  C2_4
REMARK    3  A    between atoms: C4_7  and  C5_8
REMARK    4  A    between atoms: C8_11  and  O2_12
REMARK                            x       y       z     vdW  Elec       q    Type
REMARK                         _______ _______ _______ _____ _____    ______ ____
ROOT
ATOM      1  C2  UNL     1      21.440   3.480  25.171  0.00  0.00    +0.070 A 
ATOM      2  C3  UNL     1      22.515   3.525  26.064  0.00  0.00    +0.138 A 
ATOM      3  N2  UNL     1      22.369   3.062  27.332  0.00  0.00    -0.234 NA
ATOM      4  C4  UNL     1      21.182   2.559  27.770  0.00  0.00    +0.160 A 
ATOM      5  N3  UNL     1      20.118   2.529  26.921  0.00  0.00    -0.234 NA
ATOM      6  C11 UNL     1      20.220   2.979  25.643  0.00  0.00    +0.138 A 
ENDROOT
BRANCH   4   7
ATOM      7  C5  UNL     1      21.046   2.059  29.161  0.00  0.00    +0.022 A 
ATOM      8  C6  UNL     1      20.159   1.009  29.461  0.00  0.00    +0.015 A 
ATOM      9  C7  UNL     1      20.032   0.539  30.771  0.00  0.00    +0.049 A 
ATOM     10  C8  UNL     1      20.786   1.108  31.802  0.00  0.00    +0.152 A 
ATOM     11  C9  UNL     1      21.674   2.155  31.515  0.00  0.00    +0.165 A 
ATOM     12  F1  UNL     1      22.414   2.718  32.503  0.00  0.00    -0.202 F 
ATOM     13  C10 UNL     1      21.802   2.627  30.205  0.00  0.00    +0.053 A 
BRANCH  10  14
ATOM     14  O2  UNL     1      20.643   0.623  33.101  0.00  0.00    -0.504 OA
ATOM     15  H5  UNL     1      21.039   1.106  33.898  0.00  0.00    +0.292 HD
ENDBRANCH  10  14
ENDBRANCH   4   7
BRANCH   1  18
ATOM     16  O1  UNL     1      21.007   6.207  24.291  0.00  0.00    -0.270 OA
ATOM     17  C1  UNL     1      21.569   5.392  23.510  0.00  0.00    +0.249 C 
ATOM     18  N1  UNL     1      21.591   3.992  23.836  0.00  0.00    -0.279 N 
ATOM     19  H1  UNL     1      21.609   3.305  23.049  0.00  0.00    +0.155 HD
BRANCH  17  20
ATOM     20  C12 UNL     1      22.154   5.886  22.239  0.00  0.00    +0.043 A 
ATOM     21  C13 UNL     1      23.232   6.792  22.241  0.00  0.00    +0.054 A 
ATOM     22  C14 UNL     1      23.770   7.257  21.037  0.00  0.00    +0.162 A 
ATOM     23  F2  UNL     1      24.807   8.131  21.054  0.00  0.00    -0.202 F 
ATOM     24  C15 UNL     1      23.239   6.827  19.818  0.00  0.00    +0.193 A 
ATOM     25  F3  UNL     1      23.762   7.278  18.652  0.00  0.00    -0.199 F 
ATOM     26  C16 UNL     1      22.163   5.934  19.803  0.00  0.00    +0.162 A 
ATOM     27  F4  UNL     1      21.643   5.518  18.621  0.00  0.00    -0.202 F 
ATOM     28  C17 UNL     1      21.621   5.468  21.004  0.00  0.00    +0.054 A 
ENDBRANCH  17  20
ENDBRANCH   1  18
TORSDOF 4
ENDMDL
MODEL 5
REMARK VINA RESULT:    -6.792      7.455     10.648
REMARK INTER + INTRA:          -8.673
REMARK INTER:                  -8.311
REMARK INTRA:                  -0.362
REMARK UNBOUND:                -0.491
REMARK  Name = /home/qwerty/github/datacon2025hack/step_04_hit_selection/docking/ligands/lig_401.pdb
REMARK  4 active torsions:
REMARK  status: ('A' for Active; 'I' for Inactive)
REMARK    1  A    between atoms: C1_2  and  C12_18
REMARK    2  A    between atoms: N1_3  and  C2_4
REMARK    3  A    between atoms: C4_7  and  C5_8
REMARK    4  A    between atoms: C8_11  and  O2_12
REMARK                            x       y       z     vdW  Elec       q    Type
REMARK                         _______ _______ _______ _____ _____    ______ ____
ROOT
ATOM      1  C2  UNL     1      17.620   8.471  19.045  0.00  0.00    +0.070 A 
ATOM      2  C3  UNL     1      16.953   9.534  19.661  0.00  0.00    +0.138 A 
ATOM      3  N2  UNL     1      17.568  10.735  19.804  0.00  0.00    -0.234 NA
ATOM      4  C4  UNL     1      18.843  10.934  19.370  0.00  0.00    +0.160 A 
ATOM      5  N3  UNL     1      19.516   9.904  18.788  0.00  0.00    -0.234 NA
ATOM      6  C11 UNL     1      18.939   8.685  18.622  0.00  0.00    +0.138 A 
ENDROOT
BRANCH   4   7
ATOM      7  C5  UNL     1      19.496  12.257  19.537  0.00  0.00    +0.022 A 
ATOM      8  C6  UNL     1      20.232  12.831  18.484  0.00  0.00    +0.015 A 
ATOM      9  C7  UNL     1      20.846  14.076  18.643  0.00  0.00    +0.049 A 
ATOM     10  C8  UNL     1      20.737  14.769  19.853  0.00  0.00    +0.152 A 
ATOM     11  C9  UNL     1      20.006  14.207  20.909  0.00  0.00    +0.165 A 
ATOM     12  F1  UNL     1      19.889  14.865  22.090  0.00  0.00    -0.202 F 
ATOM     13  C10 UNL     1      19.390  12.961  20.752  0.00  0.00    +0.053 A 
BRANCH  10  14
ATOM     14  O2  UNL     1      21.358  16.009  19.988  0.00  0.00    -0.504 OA
ATOM     15  H5  UNL     1      22.301  16.097  20.346  0.00  0.00    +0.292 HD
ENDBRANCH  10  14
ENDBRANCH   4   7
BRANCH   1  18
ATOM     16  O1  UNL     1      18.356   6.003  20.375  0.00  0.00    -0.270 OA
ATOM     17  C1  UNL     1      17.255   6.066  19.763  0.00  0.00    +0.249 C 
ATOM     18  N1  UNL     1      16.974   7.193  18.916  0.00  0.00    -0.279 N 
ATOM     19  H1  UNL     1      16.346   7.045  18.093  0.00  0.00    +0.155 HD
BRANCH  17  20
ATOM     20  C12 UNL     1      16.288   4.948  19.887  0.00  0.00    +0.043 A 
ATOM     21  C13 UNL     1      16.696   3.686  20.358  0.00  0.00    +0.054 A 
ATOM     22  C14 UNL     1      15.777   2.636  20.463  0.00  0.00    +0.162 A 
ATOM     23  F2  UNL     1      16.185   1.426  20.917  0.00  0.00    -0.202 F 
ATOM     24  C15 UNL     1      14.443   2.832  20.097  0.00  0.00    +0.193 A 
ATOM     25  F3  UNL     1      13.554   1.815  20.200  0.00  0.00    -0.199 F 
ATOM     26  C16 UNL     1      14.027   4.079  19.619  0.00  0.00    +0.162 A 
ATOM     27  F4  UNL     1      12.733   4.271  19.260  0.00  0.00    -0.202 F 
ATOM     28  C17 UNL     1      14.942   5.130  19.511  0.00  0.00    +0.054 A 
ENDBRANCH  17  20
ENDBRANCH   1  18
TORSDOF 4
ENDMDL
MODEL 6
REMARK VINA RESULT:    -6.591      2.165     10.234
REMARK INTER + INTRA:          -8.430
REMARK INTER:                  -7.992
REMARK INTRA:                  -0.438
REMARK UNBOUND:                -0.491
REMARK  Name = /home/qwerty/github/datacon2025hack/step_04_hit_selection/docking/ligands/lig_401.pdb
REMARK  4 active torsions:
REMARK  status: ('A' for Active; 'I' for Inactive)
REMARK    1  A    between atoms: C1_2  and  C12_18
REMARK    2  A    between atoms: N1_3  and  C2_4
REMARK    3  A    between atoms: C4_7  and  C5_8
REMARK    4  A    between atoms: C8_11  and  O2_12
REMARK                            x       y       z     vdW  Elec       q    Type
REMARK                         _______ _______ _______ _____ _____    ______ ____
ROOT
ATOM      1  C2  UNL     1      12.077   3.945  21.290  0.00  0.00    +0.070 A 
ATOM      2  C3  UNL     1      10.799   4.052  20.734  0.00  0.00    +0.138 A 
ATOM      3  N2  UNL     1      10.170   5.255  20.697  0.00  0.00    -0.234 NA
ATOM      4  C4  UNL     1      10.753   6.375  21.206  0.00  0.00    +0.160 A 
ATOM      5  N3  UNL     1      11.987   6.284  21.772  0.00  0.00    -0.234 NA
ATOM      6  C11 UNL     1      12.655   5.102  21.829  0.00  0.00    +0.138 A 
ENDROOT
BRANCH   4   7
ATOM      7  C5  UNL     1      10.045   7.679  21.154  0.00  0.00    +0.022 A 
ATOM      8  C6  UNL     1       8.870   7.887  21.899  0.00  0.00    +0.015 A 
ATOM      9  C7  UNL     1       8.206   9.116  21.848  0.00  0.00    +0.049 A 
ATOM     10  C8  UNL     1       8.700  10.155  21.055  0.00  0.00    +0.152 A 
ATOM     11  C9  UNL     1       9.870   9.959  20.308  0.00  0.00    +0.165 A 
ATOM     12  F1  UNL     1      10.365  10.956  19.532  0.00  0.00    -0.202 F 
ATOM     13  C10 UNL     1      10.538   8.731  20.357  0.00  0.00    +0.053 A 
BRANCH  10  14
ATOM     14  O2  UNL     1       8.020  11.371  21.020  0.00  0.00    -0.504 OA
ATOM     15  H5  UNL     1       7.062  11.456  21.337  0.00  0.00    +0.292 HD
ENDBRANCH  10  14
ENDBRANCH   4   7
BRANCH   1  18
ATOM     16  O1  UNL     1      14.240   3.014  19.600  0.00  0.00    -0.270 OA
ATOM     17  C1  UNL     1      13.934   2.349  20.628  0.00  0.00    +0.249 C 
ATOM     18  N1  UNL     1      12.732   2.665  21.349  0.00  0.00    -0.279 N 
ATOM     19  H1  UNL     1      12.246   1.892  21.858  0.00  0.00    +0.155 HD
BRANCH  17  20
ATOM     20  C12 UNL     1      14.795   1.215  21.045  0.00  0.00    +0.043 A 
ATOM     21  C13 UNL     1      14.770   0.736  22.369  0.00  0.00    +0.054 A 
ATOM     22  C14 UNL     1      15.592  -0.329  22.754  0.00  0.00    +0.162 A 
ATOM     23  F2  UNL     1      15.559  -0.778  24.032  0.00  0.00    -0.202 F 
ATOM     24  C15 UNL     1      16.448  -0.925  21.825  0.00  0.00    +0.193 A 
ATOM     25  F3  UNL     1      17.244  -1.957  22.199  0.00  0.00    -0.199 F 
ATOM     26  C16 UNL     1      16.489  -0.453  20.509  0.00  0.00    +0.162 A 
ATOM     27  F4  UNL     1      17.322  -1.028  19.607  0.00  0.00    -0.202 F 
ATOM     28  C17 UNL     1      15.670   0.612  20.121  0.00  0.00    +0.054 A 
ENDBRANCH  17  20
ENDBRANCH   1  18
TORSDOF 4
ENDMDL
MODEL 7
REMARK VINA RESULT:    -6.536     16.191     17.000
REMARK INTER + INTRA:          -8.364
REMARK INTER:                  -7.881
REMARK INTRA:                  -0.483
REMARK UNBOUND:                -0.491
REMARK  Name = /home/qwerty/github/datacon2025hack/step_04_hit_selection/docking/ligands/lig_401.pdb
REMARK  4 active torsions:
REMARK  status: ('A' for Active; 'I' for Inactive)
REMARK    1  A    between atoms: C1_2  and  C12_18
REMARK    2  A    between atoms: N1_3  and  C2_4
REMARK    3  A    between atoms: C4_7  and  C5_8
REMARK    4  A    between atoms: C8_11  and  O2_12
REMARK                            x       y       z     vdW  Elec       q    Type
REMARK                         _______ _______ _______ _____ _____    ______ ____
ROOT
ATOM      1  C2  UNL     1      16.808   9.381  36.863  0.00  0.00    +0.070 A 
ATOM      2  C3  UNL     1      17.268   9.240  35.551  0.00  0.00    +0.138 A 
ATOM      3  N2  UNL     1      18.479   8.676  35.309  0.00  0.00    -0.234 NA
ATOM      4  C4  UNL     1      19.277   8.249  36.326  0.00  0.00    +0.160 A 
ATOM      5  N3  UNL     1      18.855   8.400  37.611  0.00  0.00    -0.234 NA
ATOM      6  C11 UNL     1      17.649   8.956  37.900  0.00  0.00    +0.138 A 
ENDROOT
BRANCH   4   7
ATOM      7  C5  UNL     1      20.597   7.634  36.037  0.00  0.00    +0.022 A 
ATOM      8  C6  UNL     1      20.940   7.258  34.726  0.00  0.00    +0.015 A 
ATOM      9  C7  UNL     1      22.184   6.679  34.456  0.00  0.00    +0.049 A 
ATOM     10  C8  UNL     1      23.103   6.466  35.487  0.00  0.00    +0.152 A 
ATOM     11  C9  UNL     1      22.772   6.837  36.798  0.00  0.00    +0.165 A 
ATOM     12  F1  UNL     1      23.652   6.638  37.812  0.00  0.00    -0.202 F 
ATOM     13  C10 UNL     1      21.529   7.416  37.071  0.00  0.00    +0.053 A 
BRANCH  10  14
ATOM     14  O2  UNL     1      24.337   5.887  35.194  0.00  0.00    -0.504 OA
ATOM     15  H5  UNL     1      24.611   5.667  34.244  0.00  0.00    +0.292 HD
ENDBRANCH  10  14
ENDBRANCH   4   7
BRANCH   1  18
ATOM     16  O1  UNL     1      16.248  12.222  37.002  0.00  0.00    -0.270 OA
ATOM     17  C1  UNL     1      15.285  11.408  36.960  0.00  0.00    +0.249 C 
ATOM     18  N1  UNL     1      15.535  10.001  37.117  0.00  0.00    -0.279 N 
ATOM     19  H1  UNL     1      14.782   9.412  37.542  0.00  0.00    +0.155 HD
BRANCH  17  20
ATOM     20  C12 UNL     1      13.903  11.921  36.803  0.00  0.00    +0.043 A 
ATOM     21  C13 UNL     1      12.797  11.177  37.257  0.00  0.00    +0.054 A 
ATOM     22  C14 UNL     1      11.497  11.668  37.097  0.00  0.00    +0.162 A 
ATOM     23  F2  UNL     1      10.442  10.939  37.537  0.00  0.00    -0.202 F 
ATOM     24  C15 UNL     1      11.284  12.904  36.479  0.00  0.00    +0.193 A 
ATOM     25  F3  UNL     1      10.024  13.378  36.325  0.00  0.00    -0.199 F 
ATOM     26  C16 UNL     1      12.373  13.648  36.016  0.00  0.00    +0.162 A 
ATOM     27  F4  UNL     1      12.170  14.846  35.414  0.00  0.00    -0.202 F 
ATOM     28  C17 UNL     1      13.675  13.161  36.174  0.00  0.00    +0.054 A 
ENDBRANCH  17  20
ENDBRANCH   1  18
TORSDOF 4
ENDMDL
MODEL 8
REMARK VINA RESULT:    -6.491      1.806      2.214
REMARK INTER + INTRA:          -8.310
REMARK INTER:                  -7.841
REMARK INTRA:                  -0.469
REMARK UNBOUND:                -0.491
REMARK  Name = /home/qwerty/github/datacon2025hack/step_04_hit_selection/docking/ligands/lig_401.pdb
REMARK  4 active torsions:
REMARK  status: ('A' for Active; 'I' for Inactive)
REMARK    1  A    between atoms: C1_2  and  C12_18
REMARK    2  A    between atoms: N1_3  and  C2_4
REMARK    3  A    between atoms: C4_7  and  C5_8
REMARK    4  A    between atoms: C8_11  and  O2_12
REMARK                            x       y       z     vdW  Elec       q    Type
REMARK                         _______ _______ _______ _____ _____    ______ ____
ROOT
ATOM      1  C2  UNL     1      11.390   5.139  20.979  0.00  0.00    +0.070 A 
ATOM      2  C3  UNL     1      10.975   3.804  20.960  0.00  0.00    +0.138 A 
ATOM      3  N2  UNL     1      11.893   2.804  20.957  0.00  0.00    -0.234 NA
ATOM      4  C4  UNL     1      13.229   3.068  20.958  0.00  0.00    +0.160 A 
ATOM      5  N3  UNL     1      13.651   4.362  20.952  0.00  0.00    -0.234 NA
ATOM      6  C11 UNL     1      12.768   5.395  20.958  0.00  0.00    +0.138 A 
ENDROOT
BRANCH   4   7
ATOM      7  C5  UNL     1      14.214   1.958  20.954  0.00  0.00    +0.022 A 
ATOM      8  C6  UNL     1      15.241   1.914  19.994  0.00  0.00    +0.015 A 
ATOM      9  C7  UNL     1      16.167   0.867  19.992  0.00  0.00    +0.049 A 
ATOM     10  C8  UNL     1      16.084  -0.152  20.946  0.00  0.00    +0.152 A 
ATOM     11  C9  UNL     1      15.065  -0.119  21.908  0.00  0.00    +0.165 A 
ATOM     12  F1  UNL     1      14.969  -1.099  22.841  0.00  0.00    -0.202 F 
ATOM     13  C10 UNL     1      14.137   0.927  21.912  0.00  0.00    +0.053 A 
BRANCH  10  14
ATOM     14  O2  UNL     1      17.019  -1.185  20.924  0.00  0.00    -0.504 OA
ATOM     15  H5  UNL     1      16.938  -1.965  20.283  0.00  0.00    +0.292 HD
ENDBRANCH  10  14
ENDBRANCH   4   7
BRANCH   1  18
ATOM     16  O1  UNL     1      10.303   6.551  23.264  0.00  0.00    -0.270 OA
ATOM     17  C1  UNL     1      10.081   6.996  22.105  0.00  0.00    +0.249 C 
ATOM     18  N1  UNL     1      10.416   6.197  20.958  0.00  0.00    -0.279 N 
ATOM     19  H1  UNL     1       9.845   6.317  20.091  0.00  0.00    +0.155 HD
BRANCH  17  20
ATOM     20  C12 UNL     1       9.427   8.318  21.945  0.00  0.00    +0.043 A 
ATOM     21  C13 UNL     1       9.763   9.167  20.874  0.00  0.00    +0.054 A 
ATOM     22  C14 UNL     1       9.146  10.415  20.737  0.00  0.00    +0.162 A 
ATOM     23  F2  UNL     1       9.481  11.223  19.701  0.00  0.00    -0.202 F 
ATOM     24  C15 UNL     1       8.190  10.832  21.668  0.00  0.00    +0.193 A 
ATOM     25  F3  UNL     1       7.594  12.041  21.534  0.00  0.00    -0.199 F 
ATOM     26  C16 UNL     1       7.855  10.001  22.741  0.00  0.00    +0.162 A 
ATOM     27  F4  UNL     1       6.931  10.405  23.648  0.00  0.00    -0.202 F 
ATOM     28  C17 UNL     1       8.470   8.754  22.882  0.00  0.00    +0.054 A 
ENDBRANCH  17  20
ENDBRANCH   1  18
TORSDOF 4
ENDMDL
MODEL 9
REMARK VINA RESULT:    -6.478     16.417     19.374
REMARK INTER + INTRA:          -8.294
REMARK INTER:                  -7.834
REMARK INTRA:                  -0.461
REMARK UNBOUND:                -0.491
REMARK  Name = /home/qwerty/github/datacon2025hack/step_04_hit_selection/docking/ligands/lig_401.pdb
REMARK  4 active torsions:
REMARK  status: ('A' for Active; 'I' for Inactive)
REMARK    1  A    between atoms: C1_2  and  C12_18
REMARK    2  A    between atoms: N1_3  and  C2_4
REMARK    3  A    between atoms: C4_7  and  C5_8
REMARK    4  A    between atoms: C8_11  and  O2_12
REMARK                            x       y       z     vdW  Elec       q    Type
REMARK                         _______ _______ _______ _____ _____    ______ ____
ROOT
ATOM      1  C2  UNL     1      18.541  10.957  35.700  0.00  0.00    +0.070 A 
ATOM      2  C3  UNL     1      18.328  12.178  36.347  0.00  0.00    +0.138 A 
ATOM      3  N2  UNL     1      17.097  12.750  36.338  0.00  0.00    -0.234 NA
ATOM      4  C4  UNL     1      16.049  12.166  35.695  0.00  0.00    +0.160 A 
ATOM      5  N3  UNL     1      16.244  10.988  35.040  0.00  0.00    -0.234 NA
ATOM      6  C11 UNL     1      17.457  10.379  35.025  0.00  0.00    +0.138 A 
ENDROOT
BRANCH   4   7
ATOM      7  C5  UNL     1      14.712  12.810  35.699  0.00  0.00    +0.022 A 
ATOM      8  C6  UNL     1      14.484  13.992  34.970  0.00  0.00    +0.015 A 
ATOM      9  C7  UNL     1      13.224  14.598  34.976  0.00  0.00    +0.049 A 
ATOM     10  C8  UNL     1      12.173  14.036  35.707  0.00  0.00    +0.152 A 
ATOM     11  C9  UNL     1      12.389  12.859  36.437  0.00  0.00    +0.165 A 
ATOM     12  F1  UNL     1      11.380  12.300  37.153  0.00  0.00    -0.202 F 
ATOM     13  C10 UNL     1      13.648  12.251  36.433  0.00  0.00    +0.053 A 
BRANCH  10  14
ATOM     14  O2  UNL     1      10.926  14.658  35.698  0.00  0.00    -0.504 OA
ATOM     15  H5  UNL     1      10.078  14.151  35.474  0.00  0.00    +0.292 HD
ENDBRANCH  10  14
ENDBRANCH   4   7
BRANCH   1  18
ATOM     16  O1  UNL     1      19.530   8.889  37.473  0.00  0.00    -0.270 OA
ATOM     17  C1  UNL     1      20.206   9.199  36.454  0.00  0.00    +0.249 C 
ATOM     18  N1  UNL     1      19.851  10.365  35.692  0.00  0.00    -0.279 N 
ATOM     19  H1  UNL     1      20.613  10.874  35.189  0.00  0.00    +0.155 HD
BRANCH  17  20
ATOM     20  C12 UNL     1      21.391   8.384  36.089  0.00  0.00    +0.043 A 
ATOM     21  C13 UNL     1      21.939   8.441  34.793  0.00  0.00    +0.054 A 
ATOM     22  C14 UNL     1      23.051   7.663  34.458  0.00  0.00    +0.162 A 
ATOM     23  F2  UNL     1      23.567   7.727  33.206  0.00  0.00    -0.202 F 
ATOM     24  C15 UNL     1      23.628   6.817  35.409  0.00  0.00    +0.193 A 
ATOM     25  F3  UNL     1      24.706   6.063  35.083  0.00  0.00    -0.199 F 
ATOM     26  C16 UNL     1      23.088   6.744  36.696  0.00  0.00    +0.162 A 
ATOM     27  F4  UNL     1      23.643   5.921  37.620  0.00  0.00    -0.202 F 
ATOM     28  C17 UNL     1      21.975   7.520  37.035  0.00  0.00    +0.054 A 
ENDBRANCH  17  20
ENDBRANCH   1  18
TORSDOF 4
ENDMDL
