REMARK  Name = /home/qwerty/github/datacon2025hack/step_04_hit_selection/docking/ligands/lig_89.pdb
REMARK  8 active torsions:
REMARK  status: ('A' for Active; 'I' for Inactive)
REMARK    1  A    between atoms: C1_1  and  O1_2
REMARK    2  A    between atoms: O1_2  and  C2_3
REMARK    3  A    between atoms: C2_3  and  C3_5
REMARK    4  A    between atoms: C6_8  and  N1_9
REMARK    5  A    between atoms: C10_15  and  C11_16
REMARK    6  A    between atoms: C13_18  and  C14_19
REMARK    7  A    between atoms: C14_19  and  O5_21
REMARK    8  A    between atoms: O5_21  and  C15_22
REMARK                            x       y       z     vdW  Elec       q    Type
REMARK                         _______ _______ _______ _____ _____    ______ ____
ROOT
ATOM      1  N1  UNL     1       0.632  -0.968  -0.435  0.00  0.00    -0.269 N 
ATOM      2  C7  UNL     1      -0.457  -0.451   0.351  0.00  0.00    +0.307 C 
ATOM      3  O3  UNL     1      -0.222   0.245   1.377  0.00  0.00    -0.252 OA
ATOM      4  N2  UNL     1      -1.824  -0.708  -0.025  0.00  0.00    -0.272 N 
ATOM      5  C8  UNL     1      -2.209  -1.998  -0.616  0.00  0.00    +0.110 C 
ATOM      6  C9  UNL     1      -3.499  -2.553   0.019  0.00  0.00    +0.022 C 
ATOM      7  C10 UNL     1      -4.483  -1.461   0.511  0.00  0.00    -0.010 C 
ATOM      8  C11 UNL     1      -5.939  -1.912   0.340  0.00  0.00    +0.007 C 
ATOM      9  C12 UNL     1      -4.241  -0.122  -0.201  0.00  0.00    +0.037 C 
ATOM     10  C13 UNL     1      -2.816   0.375   0.104  0.00  0.00    +0.186 C 
ATOM     11  H6  UNL     1       0.424  -1.649  -1.199  0.00  0.00    +0.156 HD
ENDROOT
BRANCH   1  15
ATOM     12  C3  UNL     1       4.743  -0.029   0.163  0.00  0.00    +0.059 A 
ATOM     13  C4  UNL     1       3.760   0.959   0.346  0.00  0.00    +0.017 A 
ATOM     14  C5  UNL     1       2.408   0.658   0.156  0.00  0.00    +0.024 A 
ATOM     15  C6  UNL     1       2.012  -0.641  -0.207  0.00  0.00    +0.035 A 
ATOM     16  C16 UNL     1       2.994  -1.619  -0.416  0.00  0.00    +0.024 A 
ATOM     17  C17 UNL     1       4.346  -1.321  -0.225  0.00  0.00    +0.017 A 
BRANCH  12  18
ATOM     18  C2  UNL     1       6.173   0.294   0.366  0.00  0.00    +0.339 C 
ATOM     19  O2  UNL     1       7.053  -0.594   0.195  0.00  0.00    -0.245 OA
BRANCH  18  21
ATOM     20  C1  UNL     1       7.904   1.961   0.960  0.00  0.00    +0.280 C 
ATOM     21  O1  UNL     1       6.548   1.586   0.748  0.00  0.00    -0.464 OA
ENDBRANCH  18  21
ENDBRANCH  12  18
ENDBRANCH   1  15
BRANCH  10  22
ATOM     22  C14 UNL     1      -2.464   1.520  -0.803  0.00  0.00    +0.328 C 
ATOM     23  O4  UNL     1      -2.220   1.305  -2.023  0.00  0.00    -0.249 OA
BRANCH  22  24
ATOM     24  O5  UNL     1      -2.425   2.818  -0.287  0.00  0.00    -0.467 OA
ATOM     25  C15 UNL     1      -2.090   3.948  -1.084  0.00  0.00    +0.280 C 
ENDBRANCH  22  24
ENDBRANCH  10  22
TORSDOF 5
