REMARK  Name = /home/qwerty/github/datacon2025hack/step_04_hit_selection/docking/ligands/lig_24.pdb
REMARK  8 active torsions:
REMARK  status: ('A' for Active; 'I' for Inactive)
REMARK    1  A    between atoms: C1_1  and  C2_2
REMARK    2  A    between atoms: C2_2  and  C3_3
REMARK    3  A    between atoms: C2_2  and  O1_4
REMARK    4  A    between atoms: O1_4  and  C4_5
REMARK    5  A    between atoms: C9_11  and  C10_12
REMARK    6  A    between atoms: C10_12  and  N1_13
REMARK    7  A    between atoms: N2_16  and  C12_17
REMARK    8  A    between atoms: C16_21  and  C17_22
REMARK                            x       y       z     vdW  Elec       q    Type
REMARK                         _______ _______ _______ _____ _____    ______ ____
ROOT
ATOM      1  N1  UNL     1       0.649  -0.149  -0.640  0.00  0.00    -0.295 N 
ATOM      2  C11 UNL     1      -0.570   0.369  -0.088  0.00  0.00    +0.300 C 
ATOM      3  O2  UNL     1      -0.535   1.222   0.840  0.00  0.00    -0.253 OA
ATOM      4  N2  UNL     1      -1.831  -0.088  -0.597  0.00  0.00    -0.297 N 
ATOM      5  H13 UNL     1       0.594  -0.837  -1.424  0.00  0.00    +0.151 HD
ATOM      6  H14 UNL     1      -1.828  -0.837  -1.326  0.00  0.00    +0.151 HD
ENDROOT
BRANCH   4   7
ATOM      7  C12 UNL     1      -3.107   0.434  -0.100  0.00  0.00    +0.075 C 
ATOM      8  C13 UNL     1      -3.339   1.872  -0.624  0.00  0.00    +0.022 C 
ATOM      9  C14 UNL     1      -4.829   2.247  -0.758  0.00  0.00    +0.002 C 
ATOM     10  C15 UNL     1      -5.692   1.515   0.275  0.00  0.00    +0.003 C 
ATOM     11  C16 UNL     1      -5.604  -0.027   0.121  0.00  0.00    -0.012 C 
ATOM     12  C17 UNL     1      -6.791  -0.574  -0.684  0.00  0.00    +0.007 C 
ATOM     13  C18 UNL     1      -4.265  -0.492  -0.509  0.00  0.00    +0.025 C 
ENDBRANCH   4   7
BRANCH   1  14
ATOM     14  C10 UNL     1       1.973   0.193  -0.118  0.00  0.00    +0.144 C 
BRANCH  14  21
ATOM     15  C4  UNL     1       3.982  -1.346   0.212  0.00  0.00    +0.127 A 
ATOM     16  C5  UNL     1       4.549  -2.503   0.759  0.00  0.00    +0.066 A 
ATOM     17  C6  UNL     1       3.805  -3.318   1.617  0.00  0.00    +0.044 A 
ATOM     18 CL1  UNL     1       4.530  -4.760   2.308  0.00  0.00    -0.083 Cl
ATOM     19  C7  UNL     1       2.488  -2.977   1.935  0.00  0.00    +0.020 A 
ATOM     20  C8  UNL     1       1.908  -1.832   1.382  0.00  0.00    +0.010 A 
ATOM     21  C9  UNL     1       2.634  -1.021   0.491  0.00  0.00    +0.011 A 
BRANCH  15  22
ATOM     22  O1  UNL     1       4.771  -0.540  -0.615  0.00  0.00    -0.489 OA
BRANCH  22  24
ATOM     23  C1  UNL     1       6.543   0.456   0.705  0.00  0.00    +0.051 C 
ATOM     24  C2  UNL     1       5.315   0.704  -0.173  0.00  0.00    +0.167 C 
ATOM     25  C3  UNL     1       5.686   1.544  -1.391  0.00  0.00    +0.051 C 
ENDBRANCH  22  24
ENDBRANCH  15  22
ENDBRANCH  14  21
ENDBRANCH   1  14
TORSDOF 5
