MODEL 1
REMARK VINA RESULT:    -7.102      0.000      0.000
REMARK INTER + INTRA:          -9.679
REMARK INTER:                  -8.763
REMARK INTRA:                  -0.916
REMARK UNBOUND:                -0.916
REMARK  Name = /home/qwerty/github/datacon2025hack/step_04_hit_selection/docking/ligands/lig_567.pdb
REMARK  5 active torsions:
REMARK  status: ('A' for Active; 'I' for Inactive)
REMARK    1  A    between atoms: C1_1  and  C2_2
REMARK    2  A    between atoms: C2_2  and  N1_3
REMARK    3  A    between atoms: C2_2  and  C11_15
REMARK    4  A    between atoms: C3_4  and  C4_6
REMARK    5  A    between atoms: C15_19  and  N4_20
REMARK                            x       y       z     vdW  Elec       q    Type
REMARK                         _______ _______ _______ _____ _____    ______ ____
ROOT
ATOM      1  C1  UNL     1       7.395   7.560  26.978  0.00  0.00    +0.033 C 
ATOM      2  C2  UNL     1       7.501   8.976  26.396  0.00  0.00    +0.100 C 
ENDROOT
BRANCH   2   3
ATOM      3  C11 UNL     1       7.995   9.980  27.421  0.00  0.00    -0.026 A 
ATOM      4  C12 UNL     1       7.404  10.021  28.699  0.00  0.00    +0.005 A 
ATOM      5  C13 UNL     1       7.839  10.944  29.652  0.00  0.00    +0.002 A 
ATOM      6  C14 UNL     1       8.862  11.843  29.340  0.00  0.00    +0.023 A 
ATOM      7  C15 UNL     1       9.450  11.842  28.062  0.00  0.00    +0.037 A 
ATOM      8  C20 UNL     1       9.006  10.911  27.105  0.00  0.00    +0.029 A 
BRANCH   7   9
ATOM      9  N4  UNL     1      10.523  12.755  27.755  0.00  0.00    -0.271 N 
ATOM     10  C16 UNL     1      10.407  14.206  27.796  0.00  0.00    +0.114 C 
ATOM     11  C17 UNL     1      11.842  14.746  27.678  0.00  0.00    +0.029 C 
ATOM     12  C18 UNL     1      12.722  13.577  27.209  0.00  0.00    +0.098 C 
ATOM     13  C19 UNL     1      11.848  12.405  27.385  0.00  0.00    +0.220 C 
ATOM     14  O2  UNL     1      12.219  11.219  27.165  0.00  0.00    -0.275 OA
ENDBRANCH   7   9
ENDBRANCH   2   3
BRANCH   2  15
ATOM     15  N1  UNL     1       8.381   8.977  25.222  0.00  0.00    -0.305 N 
ATOM     16  C3  UNL     1       8.027   9.654  24.003  0.00  0.00    +0.246 C 
ATOM     17  O1  UNL     1       6.861  10.116  23.865  0.00  0.00    -0.270 OA
ATOM     18  H5  UNL     1       9.227   8.364  25.233  0.00  0.00    +0.150 HD
BRANCH  16  19
ATOM     19  C4  UNL     1       9.003   9.819  22.899  0.00  0.00    +0.057 A 
ATOM     20  C5  UNL     1       8.549   9.849  21.550  0.00  0.00    +0.124 A 
ATOM     21  N2  UNL     1       9.424  10.052  20.521  0.00  0.00    -0.253 NA
ATOM     22  C6  UNL     1      10.741  10.213  20.798  0.00  0.00    +0.088 A 
ATOM     23  C7  UNL     1      11.783  10.470  19.939  0.00  0.00    +0.047 A 
ATOM     24  C8  UNL     1      12.896  10.594  20.770  0.00  0.00    +0.085 A 
ATOM     25  N3  UNL     1      12.551  10.425  22.071  0.00  0.00    -0.359 N 
ATOM     26  C9  UNL     1      11.228  10.192  22.068  0.00  0.00    +0.066 A 
ATOM     27  C10 UNL     1      10.384  10.003  23.157  0.00  0.00    +0.042 A 
ATOM     28  H9  UNL     1      13.180  10.488  22.901  0.00  0.00    +0.165 HD
ENDBRANCH  16  19
ENDBRANCH   2  15
TORSDOF 4
ENDMDL
MODEL 2
REMARK VINA RESULT:    -6.938      4.615      6.953
REMARK INTER + INTRA:          -9.476
REMARK INTER:                  -8.589
REMARK INTRA:                  -0.888
REMARK UNBOUND:                -0.916
REMARK  Name = /home/qwerty/github/datacon2025hack/step_04_hit_selection/docking/ligands/lig_567.pdb
REMARK  5 active torsions:
REMARK  status: ('A' for Active; 'I' for Inactive)
REMARK    1  A    between atoms: C1_1  and  C2_2
REMARK    2  A    between atoms: C2_2  and  N1_3
REMARK    3  A    between atoms: C2_2  and  C11_15
REMARK    4  A    between atoms: C3_4  and  C4_6
REMARK    5  A    between atoms: C15_19  and  N4_20
REMARK                            x       y       z     vdW  Elec       q    Type
REMARK                         _______ _______ _______ _____ _____    ______ ____
ROOT
ATOM      1  C1  UNL     1       7.647  14.149  27.619  0.00  0.00    +0.033 C 
ATOM      2  C2  UNL     1       8.724  13.069  27.785  0.00  0.00    +0.100 C 
ENDROOT
BRANCH   2   3
ATOM      3  C11 UNL     1       9.922  13.572  28.571  0.00  0.00    -0.026 A 
ATOM      4  C12 UNL     1      10.930  14.303  27.915  0.00  0.00    +0.005 A 
ATOM      5  C13 UNL     1      12.043  14.765  28.619  0.00  0.00    +0.002 A 
ATOM      6  C14 UNL     1      12.168  14.498  29.984  0.00  0.00    +0.023 A 
ATOM      7  C15 UNL     1      11.189  13.747  30.659  0.00  0.00    +0.037 A 
ATOM      8  C20 UNL     1      10.071  13.282  29.944  0.00  0.00    +0.029 A 
BRANCH   7   9
ATOM      9  N4  UNL     1      11.311  13.497  32.074  0.00  0.00    -0.271 N 
ATOM     10  C16 UNL     1      11.148  14.511  33.106  0.00  0.00    +0.114 C 
ATOM     11  C17 UNL     1      11.086  13.748  34.439  0.00  0.00    +0.029 C 
ATOM     12  C18 UNL     1      11.579  12.319  34.159  0.00  0.00    +0.098 C 
ATOM     13  C19 UNL     1      11.591  12.248  32.688  0.00  0.00    +0.220 C 
ATOM     14  O2  UNL     1      11.885  11.205  32.043  0.00  0.00    -0.275 OA
ENDBRANCH   7   9
ENDBRANCH   2   3
BRANCH   2  15
ATOM     15  N1  UNL     1       8.156  11.882  28.435  0.00  0.00    -0.305 N 
ATOM     16  C3  UNL     1       8.053  10.617  27.757  0.00  0.00    +0.246 C 
ATOM     17  O1  UNL     1       8.292  10.554  26.520  0.00  0.00    -0.270 OA
ATOM     18  H5  UNL     1       7.700  11.995  29.368  0.00  0.00    +0.150 HD
BRANCH  16  19
ATOM     19  C4  UNL     1       7.665   9.382  28.480  0.00  0.00    +0.057 A 
ATOM     20  C5  UNL     1       7.586   9.388  29.901  0.00  0.00    +0.124 A 
ATOM     21  N2  UNL     1       7.181   8.276  30.584  0.00  0.00    -0.253 NA
ATOM     22  C6  UNL     1       6.864   7.156  29.891  0.00  0.00    +0.088 A 
ATOM     23  C7  UNL     1       6.397   5.950  30.357  0.00  0.00    +0.047 A 
ATOM     24  C8  UNL     1       6.190   5.189  29.208  0.00  0.00    +0.085 A 
ATOM     25  N3  UNL     1       6.512   5.894  28.095  0.00  0.00    -0.359 N 
ATOM     26  C9  UNL     1       6.923   7.096  28.534  0.00  0.00    +0.066 A 
ATOM     27  C10 UNL     1       7.315   8.199  27.783  0.00  0.00    +0.042 A 
ATOM     28  H9  UNL     1       6.433   5.576  27.105  0.00  0.00    +0.165 HD
ENDBRANCH  16  19
ENDBRANCH   2  15
TORSDOF 4
ENDMDL
MODEL 3
REMARK VINA RESULT:    -6.918      2.416      6.694
REMARK INTER + INTRA:          -9.452
REMARK INTER:                  -8.570
REMARK INTRA:                  -0.882
REMARK UNBOUND:                -0.916
REMARK  Name = /home/qwerty/github/datacon2025hack/step_04_hit_selection/docking/ligands/lig_567.pdb
REMARK  5 active torsions:
REMARK  status: ('A' for Active; 'I' for Inactive)
REMARK    1  A    between atoms: C1_1  and  C2_2
REMARK    2  A    between atoms: C2_2  and  N1_3
REMARK    3  A    between atoms: C2_2  and  C11_15
REMARK    4  A    between atoms: C3_4  and  C4_6
REMARK    5  A    between atoms: C15_19  and  N4_20
REMARK                            x       y       z     vdW  Elec       q    Type
REMARK                         _______ _______ _______ _____ _____    ______ ____
ROOT
ATOM      1  C1  UNL     1       7.288  13.824  29.530  0.00  0.00    +0.033 C 
ATOM      2  C2  UNL     1       8.467  12.844  29.468  0.00  0.00    +0.100 C 
ENDROOT
BRANCH   2   3
ATOM      3  C11 UNL     1       8.102  11.555  28.753  0.00  0.00    -0.026 A 
ATOM      4  C12 UNL     1       7.508  10.502  29.474  0.00  0.00    +0.005 A 
ATOM      5  C13 UNL     1       7.174   9.305  28.836  0.00  0.00    +0.002 A 
ATOM      6  C14 UNL     1       7.436   9.142  27.473  0.00  0.00    +0.023 A 
ATOM      7  C15 UNL     1       8.054  10.169  26.735  0.00  0.00    +0.037 A 
ATOM      8  C20 UNL     1       8.390  11.371  27.385  0.00  0.00    +0.029 A 
BRANCH   7   9
ATOM      9  N4  UNL     1       8.297  10.004  25.324  0.00  0.00    -0.271 N 
ATOM     10  C16 UNL     1       7.273  10.112  24.293  0.00  0.00    +0.114 C 
ATOM     11  C17 UNL     1       8.027  10.145  22.954  0.00  0.00    +0.029 C 
ATOM     12  C18 UNL     1       9.467   9.690  23.240  0.00  0.00    +0.098 C 
ATOM     13  C19 UNL     1       9.547   9.729  24.710  0.00  0.00    +0.220 C 
ATOM     14  O2  UNL     1      10.600   9.478  25.358  0.00  0.00    -0.275 OA
ENDBRANCH   7   9
ENDBRANCH   2   3
BRANCH   2  15
ATOM     15  N1  UNL     1       9.618  13.476  28.813  0.00  0.00    -0.305 N 
ATOM     16  C3  UNL     1      10.810  13.828  29.539  0.00  0.00    +0.246 C 
ATOM     17  O1  UNL     1      10.815  13.757  30.799  0.00  0.00    -0.270 OA
ATOM     18  H5  UNL     1       9.516  13.792  27.823  0.00  0.00    +0.150 HD
BRANCH  16  19
ATOM     19  C4  UNL     1      12.036  14.280  28.838  0.00  0.00    +0.057 A 
ATOM     20  C5  UNL     1      12.061  14.334  27.416  0.00  0.00    +0.124 A 
ATOM     21  N2  UNL     1      13.162  14.796  26.752  0.00  0.00    -0.253 NA
ATOM     22  C6  UNL     1      14.243  15.195  27.466  0.00  0.00    +0.088 A 
ATOM     23  C7  UNL     1      15.429  15.728  27.020  0.00  0.00    +0.047 A 
ATOM     24  C8  UNL     1      16.146  16.002  28.183  0.00  0.00    +0.085 A 
ATOM     25  N3  UNL     1      15.434  15.656  29.285  0.00  0.00    -0.359 N 
ATOM     26  C9  UNL     1      14.272  15.163  28.825  0.00  0.00    +0.066 A 
ATOM     27  C10 UNL     1      13.177  14.716  29.557  0.00  0.00    +0.042 A 
ATOM     28  H9  UNL     1      15.722  15.773  30.281  0.00  0.00    +0.165 HD
ENDBRANCH  16  19
ENDBRANCH   2  15
TORSDOF 4
ENDMDL
MODEL 4
REMARK VINA RESULT:    -6.671      5.067     10.125
REMARK INTER + INTRA:          -9.147
REMARK INTER:                  -8.167
REMARK INTRA:                  -0.980
REMARK UNBOUND:                -0.916
REMARK  Name = /home/qwerty/github/datacon2025hack/step_04_hit_selection/docking/ligands/lig_567.pdb
REMARK  5 active torsions:
REMARK  status: ('A' for Active; 'I' for Inactive)
REMARK    1  A    between atoms: C1_1  and  C2_2
REMARK    2  A    between atoms: C2_2  and  N1_3
REMARK    3  A    between atoms: C2_2  and  C11_15
REMARK    4  A    between atoms: C3_4  and  C4_6
REMARK    5  A    between atoms: C15_19  and  N4_20
REMARK                            x       y       z     vdW  Elec       q    Type
REMARK                         _______ _______ _______ _____ _____    ______ ____
ROOT
ATOM      1  C1  UNL     1      12.217  14.099  29.575  0.00  0.00    +0.033 C 
ATOM      2  C2  UNL     1      10.936  13.770  30.354  0.00  0.00    +0.100 C 
ENDROOT
BRANCH   2   3
ATOM      3  C11 UNL     1       9.948  12.975  29.519  0.00  0.00    -0.026 A 
ATOM      4  C12 UNL     1       9.373  13.559  28.375  0.00  0.00    +0.005 A 
ATOM      5  C13 UNL     1       8.455  12.847  27.601  0.00  0.00    +0.002 A 
ATOM      6  C14 UNL     1       8.093  11.547  27.963  0.00  0.00    +0.023 A 
ATOM      7  C15 UNL     1       8.632  10.949  29.117  0.00  0.00    +0.037 A 
ATOM      8  C20 UNL     1       9.555  11.673  29.894  0.00  0.00    +0.029 A 
BRANCH   7   9
ATOM      9  N4  UNL     1       8.275   9.598  29.471  0.00  0.00    -0.271 N 
ATOM     10  C16 UNL     1       7.070   9.229  30.199  0.00  0.00    +0.114 C 
ATOM     11  C17 UNL     1       6.969   7.698  30.098  0.00  0.00    +0.029 C 
ATOM     12  C18 UNL     1       8.335   7.192  29.606  0.00  0.00    +0.098 C 
ATOM     13  C19 UNL     1       9.011   8.424  29.164  0.00  0.00    +0.220 C 
ATOM     14  O2  UNL     1      10.154   8.438  28.629  0.00  0.00    -0.275 OA
ENDBRANCH   7   9
ENDBRANCH   2   3
BRANCH   2  15
ATOM     15  N1  UNL     1      11.264  13.038  31.582  0.00  0.00    -0.305 N 
ATOM     16  C3  UNL     1      11.314  13.686  32.866  0.00  0.00    +0.246 C 
ATOM     17  O1  UNL     1      11.246  14.944  32.931  0.00  0.00    -0.270 OA
ATOM     18  H5  UNL     1      11.594  12.050  31.501  0.00  0.00    +0.150 HD
BRANCH  16  19
ATOM     19  C4  UNL     1      11.448  12.906  34.121  0.00  0.00    +0.057 A 
ATOM     20  C5  UNL     1      11.865  13.555  35.317  0.00  0.00    +0.124 A 
ATOM     21  N2  UNL     1      11.945  12.867  36.494  0.00  0.00    -0.253 NA
ATOM     22  C6  UNL     1      11.633  11.548  36.510  0.00  0.00    +0.088 A 
ATOM     23  C7  UNL     1      11.600  10.676  37.573  0.00  0.00    +0.047 A 
ATOM     24  C8  UNL     1      11.161   9.473  37.023  0.00  0.00    +0.085 A 
ATOM     25  N3  UNL     1      10.935   9.603  35.691  0.00  0.00    -0.359 N 
ATOM     26  C9  UNL     1      11.230  10.880  35.396  0.00  0.00    +0.066 A 
ATOM     27  C10 UNL     1      11.116  11.530  34.172  0.00  0.00    +0.042 A 
ATOM     28  H9  UNL     1      10.582   8.868  35.040  0.00  0.00    +0.165 HD
ENDBRANCH  16  19
ENDBRANCH   2  15
TORSDOF 4
ENDMDL
MODEL 5
REMARK VINA RESULT:    -6.620     13.588     14.908
REMARK INTER + INTRA:          -9.084
REMARK INTER:                  -8.196
REMARK INTRA:                  -0.888
REMARK UNBOUND:                -0.916
REMARK  Name = /home/qwerty/github/datacon2025hack/step_04_hit_selection/docking/ligands/lig_567.pdb
REMARK  5 active torsions:
REMARK  status: ('A' for Active; 'I' for Inactive)
REMARK    1  A    between atoms: C1_1  and  C2_2
REMARK    2  A    between atoms: C2_2  and  N1_3
REMARK    3  A    between atoms: C2_2  and  C11_15
REMARK    4  A    between atoms: C3_4  and  C4_6
REMARK    5  A    between atoms: C15_19  and  N4_20
REMARK                            x       y       z     vdW  Elec       q    Type
REMARK                         _______ _______ _______ _____ _____    ______ ____
ROOT
ATOM      1  C1  UNL     1      19.964   3.735  26.974  0.00  0.00    +0.033 C 
ATOM      2  C2  UNL     1      20.153   2.223  26.791  0.00  0.00    +0.100 C 
ENDROOT
BRANCH   2   3
ATOM      3  C11 UNL     1      20.923   1.600  27.942  0.00  0.00    -0.026 A 
ATOM      4  C12 UNL     1      21.739   0.477  27.708  0.00  0.00    +0.005 A 
ATOM      5  C13 UNL     1      22.447  -0.116  28.755  0.00  0.00    +0.002 A 
ATOM      6  C14 UNL     1      22.344   0.400  30.049  0.00  0.00    +0.023 A 
ATOM      7  C15 UNL     1      21.514   1.504  30.316  0.00  0.00    +0.037 A 
ATOM      8  C20 UNL     1      20.801   2.095  29.257  0.00  0.00    +0.029 A 
BRANCH   7   9
ATOM      9  N4  UNL     1      21.433   2.047  31.649  0.00  0.00    -0.271 N 
ATOM     10  C16 UNL     1      22.229   3.166  32.133  0.00  0.00    +0.114 C 
ATOM     11  C17 UNL     1      21.614   3.566  33.484  0.00  0.00    +0.029 C 
ATOM     12  C18 UNL     1      20.687   2.417  33.911  0.00  0.00    +0.098 C 
ATOM     13  C19 UNL     1      20.574   1.603  32.689  0.00  0.00    +0.220 C 
ATOM     14  O2  UNL     1      19.843   0.579  32.598  0.00  0.00    -0.275 OA
ENDBRANCH   7   9
ENDBRANCH   2   3
BRANCH   2  15
ATOM     15  N1  UNL     1      18.850   1.564  26.640  0.00  0.00    -0.305 N 
ATOM     16  C3  UNL     1      18.644   0.489  25.706  0.00  0.00    +0.246 C 
ATOM     17  O1  UNL     1      19.546   0.210  24.869  0.00  0.00    -0.270 OA
ATOM     18  H5  UNL     1      18.025   1.973  27.131  0.00  0.00    +0.150 HD
BRANCH  16  19
ATOM     19  C4  UNL     1      17.388  -0.300  25.701  0.00  0.00    +0.057 A 
ATOM     20  C5  UNL     1      17.161  -1.264  24.679  0.00  0.00    +0.124 A 
ATOM     21  N2  UNL     1      16.035  -2.038  24.685  0.00  0.00    -0.253 NA
ATOM     22  C6  UNL     1      15.124  -1.869  25.674  0.00  0.00    +0.088 A 
ATOM     23  C7  UNL     1      13.954  -2.554  25.904  0.00  0.00    +0.047 A 
ATOM     24  C8  UNL     1      13.452  -2.002  27.081  0.00  0.00    +0.085 A 
ATOM     25  N3  UNL     1      14.274  -1.029  27.549  0.00  0.00    -0.359 N 
ATOM     26  C9  UNL     1      15.291  -0.961  26.673  0.00  0.00    +0.066 A 
ATOM     27  C10 UNL     1      16.423  -0.155  26.729  0.00  0.00    +0.042 A 
ATOM     28  H9  UNL     1      14.151  -0.468  28.420  0.00  0.00    +0.165 HD
ENDBRANCH  16  19
ENDBRANCH   2  15
TORSDOF 4
ENDMDL
MODEL 6
REMARK VINA RESULT:    -6.557     13.758     16.113
REMARK INTER + INTRA:          -9.006
REMARK INTER:                  -8.066
REMARK INTRA:                  -0.940
REMARK UNBOUND:                -0.916
REMARK  Name = /home/qwerty/github/datacon2025hack/step_04_hit_selection/docking/ligands/lig_567.pdb
REMARK  5 active torsions:
REMARK  status: ('A' for Active; 'I' for Inactive)
REMARK    1  A    between atoms: C1_1  and  C2_2
REMARK    2  A    between atoms: C2_2  and  N1_3
REMARK    3  A    between atoms: C2_2  and  C11_15
REMARK    4  A    between atoms: C3_4  and  C4_6
REMARK    5  A    between atoms: C15_19  and  N4_20
REMARK                            x       y       z     vdW  Elec       q    Type
REMARK                         _______ _______ _______ _____ _____    ______ ____
ROOT
ATOM      1  C1  UNL     1      18.660   2.744  31.519  0.00  0.00    +0.033 C 
ATOM      2  C2  UNL     1      20.193   2.698  31.538  0.00  0.00    +0.100 C 
ENDROOT
BRANCH   2   3
ATOM      3  C11 UNL     1      20.755   1.869  30.396  0.00  0.00    -0.026 A 
ATOM      4  C12 UNL     1      21.408   0.653  30.672  0.00  0.00    +0.005 A 
ATOM      5  C13 UNL     1      21.939  -0.117  29.636  0.00  0.00    +0.002 A 
ATOM      6  C14 UNL     1      21.833   0.320  28.313  0.00  0.00    +0.023 A 
ATOM      7  C15 UNL     1      21.210   1.545  28.012  0.00  0.00    +0.037 A 
ATOM      8  C20 UNL     1      20.678   2.318  29.061  0.00  0.00    +0.029 A 
BRANCH   7   9
ATOM      9  N4  UNL     1      21.080   1.977  26.643  0.00  0.00    -0.271 N 
ATOM     10  C16 UNL     1      20.084   1.471  25.709  0.00  0.00    +0.114 C 
ATOM     11  C17 UNL     1      20.140   2.402  24.488  0.00  0.00    +0.029 C 
ATOM     12  C18 UNL     1      21.437   3.219  24.608  0.00  0.00    +0.098 C 
ATOM     13  C19 UNL     1      21.873   2.957  25.990  0.00  0.00    +0.220 C 
ATOM     14  O2  UNL     1      22.885   3.497  26.515  0.00  0.00    -0.275 OA
ENDBRANCH   7   9
ENDBRANCH   2   3
BRANCH   2  15
ATOM     15  N1  UNL     1      20.742   4.058  31.493  0.00  0.00    -0.305 N 
ATOM     16  C3  UNL     1      21.941   4.421  32.201  0.00  0.00    +0.246 C 
ATOM     17  O1  UNL     1      22.448   3.608  33.022  0.00  0.00    -0.270 OA
ATOM     18  H5  UNL     1      20.175   4.809  31.039  0.00  0.00    +0.150 HD
BRANCH  16  19
ATOM     19  C4  UNL     1      22.595   5.735  31.991  0.00  0.00    +0.057 A 
ATOM     20  C5  UNL     1      22.101   6.621  30.992  0.00  0.00    +0.124 A 
ATOM     21  N2  UNL     1      22.656   7.857  30.817  0.00  0.00    -0.253 NA
ATOM     22  C6  UNL     1      23.695   8.230  31.602  0.00  0.00    +0.088 A 
ATOM     23  C7  UNL     1      24.373   9.426  31.634  0.00  0.00    +0.047 A 
ATOM     24  C8  UNL     1      25.300   9.273  32.663  0.00  0.00    +0.085 A 
ATOM     25  N3  UNL     1      25.193   8.047  33.234  0.00  0.00    -0.359 N 
ATOM     26  C9  UNL     1      24.206   7.423  32.569  0.00  0.00    +0.066 A 
ATOM     27  C10 UNL     1      23.675   6.159  32.804  0.00  0.00    +0.042 A 
ATOM     28  H9  UNL     1      25.747   7.678  34.037  0.00  0.00    +0.165 HD
ENDBRANCH  16  19
ENDBRANCH   2  15
TORSDOF 4
ENDMDL
MODEL 7
REMARK VINA RESULT:    -6.514      9.222     11.840
REMARK INTER + INTRA:          -8.953
REMARK INTER:                  -8.313
REMARK INTRA:                  -0.640
REMARK UNBOUND:                -0.916
REMARK  Name = /home/qwerty/github/datacon2025hack/step_04_hit_selection/docking/ligands/lig_567.pdb
REMARK  5 active torsions:
REMARK  status: ('A' for Active; 'I' for Inactive)
REMARK    1  A    between atoms: C1_1  and  C2_2
REMARK    2  A    between atoms: C2_2  and  N1_3
REMARK    3  A    between atoms: C2_2  and  C11_15
REMARK    4  A    between atoms: C3_4  and  C4_6
REMARK    5  A    between atoms: C15_19  and  N4_20
REMARK                            x       y       z     vdW  Elec       q    Type
REMARK                         _______ _______ _______ _____ _____    ______ ____
ROOT
ATOM      1  C1  UNL     1      16.530   3.737  20.565  0.00  0.00    +0.033 C 
ATOM      2  C2  UNL     1      15.501   2.662  20.190  0.00  0.00    +0.100 C 
ENDROOT
BRANCH   2   3
ATOM      3  C11 UNL     1      15.862   1.301  20.759  0.00  0.00    -0.026 A 
ATOM      4  C12 UNL     1      16.351   0.295  19.905  0.00  0.00    +0.005 A 
ATOM      5  C13 UNL     1      16.679  -0.965  20.409  0.00  0.00    +0.002 A 
ATOM      6  C14 UNL     1      16.517  -1.239  21.769  0.00  0.00    +0.023 A 
ATOM      7  C15 UNL     1      16.004  -0.260  22.640  0.00  0.00    +0.037 A 
ATOM      8  C20 UNL     1      15.673   1.007  22.126  0.00  0.00    +0.029 A 
BRANCH   7   9
ATOM      9  N4  UNL     1      15.864  -0.541  24.047  0.00  0.00    -0.271 N 
ATOM     10  C16 UNL     1      14.633  -1.000  24.677  0.00  0.00    +0.114 C 
ATOM     11  C17 UNL     1      15.024  -1.431  26.100  0.00  0.00    +0.029 C 
ATOM     12  C18 UNL     1      16.428  -0.866  26.368  0.00  0.00    +0.098 C 
ATOM     13  C19 UNL     1      16.879  -0.436  25.033  0.00  0.00    +0.220 C 
ATOM     14  O2  UNL     1      18.025   0.039  24.804  0.00  0.00    -0.275 OA
ENDBRANCH   7   9
ENDBRANCH   2   3
BRANCH   2  15
ATOM     15  N1  UNL     1      14.164   3.060  20.643  0.00  0.00    -0.305 N 
ATOM     16  C3  UNL     1      13.362   4.007  19.915  0.00  0.00    +0.246 C 
ATOM     17  O1  UNL     1      13.875   4.649  18.957  0.00  0.00    -0.270 OA
ATOM     18  H5  UNL     1      13.842   2.743  21.585  0.00  0.00    +0.150 HD
BRANCH  16  19
ATOM     19  C4  UNL     1      11.943   4.252  20.268  0.00  0.00    +0.057 A 
ATOM     20  C5  UNL     1      11.231   3.295  21.045  0.00  0.00    +0.124 A 
ATOM     21  N2  UNL     1       9.939   3.525  21.425  0.00  0.00    -0.253 NA
ATOM     22  C6  UNL     1       9.333   4.676  21.043  0.00  0.00    +0.088 A 
ATOM     23  C7  UNL     1       8.072   5.133  21.341  0.00  0.00    +0.047 A 
ATOM     24  C8  UNL     1       8.004   6.387  20.736  0.00  0.00    +0.085 A 
ATOM     25  N3  UNL     1       9.166   6.682  20.101  0.00  0.00    -0.359 N 
ATOM     26  C9  UNL     1       9.967   5.622  20.300  0.00  0.00    +0.066 A 
ATOM     27  C10 UNL     1      11.287   5.451  19.895  0.00  0.00    +0.042 A 
ATOM     28  H9  UNL     1       9.396   7.561  19.588  0.00  0.00    +0.165 HD
ENDBRANCH  16  19
ENDBRANCH   2  15
TORSDOF 4
ENDMDL
MODEL 8
REMARK VINA RESULT:    -6.261     13.428     15.608
REMARK INTER + INTRA:          -8.641
REMARK INTER:                  -7.991
REMARK INTRA:                  -0.650
REMARK UNBOUND:                -0.916
REMARK  Name = /home/qwerty/github/datacon2025hack/step_04_hit_selection/docking/ligands/lig_567.pdb
REMARK  5 active torsions:
REMARK  status: ('A' for Active; 'I' for Inactive)
REMARK    1  A    between atoms: C1_1  and  C2_2
REMARK    2  A    between atoms: C2_2  and  N1_3
REMARK    3  A    between atoms: C2_2  and  C11_15
REMARK    4  A    between atoms: C3_4  and  C4_6
REMARK    5  A    between atoms: C15_19  and  N4_20
REMARK                            x       y       z     vdW  Elec       q    Type
REMARK                         _______ _______ _______ _____ _____    ______ ____
ROOT
ATOM      1  C1  UNL     1      17.961   6.278  34.812  0.00  0.00    +0.033 C 
ATOM      2  C2  UNL     1      18.325   7.180  35.999  0.00  0.00    +0.100 C 
ENDROOT
BRANCH   2   3
ATOM      3  C11 UNL     1      19.823   7.229  36.241  0.00  0.00    -0.026 A 
ATOM      4  C12 UNL     1      20.330   6.982  37.530  0.00  0.00    +0.005 A 
ATOM      5  C13 UNL     1      21.704   7.033  37.774  0.00  0.00    +0.002 A 
ATOM      6  C14 UNL     1      22.588   7.339  36.736  0.00  0.00    +0.023 A 
ATOM      7  C15 UNL     1      22.106   7.617  35.444  0.00  0.00    +0.037 A 
ATOM      8  C20 UNL     1      20.720   7.566  35.206  0.00  0.00    +0.029 A 
BRANCH   7   9
ATOM      9  N4  UNL     1      23.025   7.906  34.372  0.00  0.00    -0.271 N 
ATOM     10  C16 UNL     1      22.912   9.046  33.474  0.00  0.00    +0.114 C 
ATOM     11  C17 UNL     1      24.237   9.104  32.697  0.00  0.00    +0.029 C 
ATOM     12  C18 UNL     1      24.946   7.759  32.923  0.00  0.00    +0.098 C 
ATOM     13  C19 UNL     1      24.179   7.155  34.026  0.00  0.00    +0.220 C 
ATOM     14  O2  UNL     1      24.478   6.052  34.561  0.00  0.00    -0.275 OA
ENDBRANCH   7   9
ENDBRANCH   2   3
BRANCH   2  15
ATOM     15  N1  UNL     1      17.802   8.534  35.786  0.00  0.00    -0.305 N 
ATOM     16  C3  UNL     1      17.202   9.296  36.849  0.00  0.00    +0.246 C 
ATOM     17  O1  UNL     1      16.956   8.737  37.953  0.00  0.00    -0.270 OA
ATOM     18  H5  UNL     1      17.751   8.901  34.809  0.00  0.00    +0.150 HD
BRANCH  16  19
ATOM     19  C4  UNL     1      16.861  10.729  36.675  0.00  0.00    +0.057 A 
ATOM     20  C5  UNL     1      17.727  11.579  35.932  0.00  0.00    +0.124 A 
ATOM     21  N2  UNL     1      17.405  12.889  35.716  0.00  0.00    -0.253 NA
ATOM     22  C6  UNL     1      16.250  13.378  36.230  0.00  0.00    +0.088 A 
ATOM     23  C7  UNL     1      15.709  14.635  36.105  0.00  0.00    +0.047 A 
ATOM     24  C8  UNL     1      14.494  14.560  36.785  0.00  0.00    +0.085 A 
ATOM     25  N3  UNL     1      14.302  13.319  37.298  0.00  0.00    -0.359 N 
ATOM     26  C9  UNL     1      15.388  12.610  36.948  0.00  0.00    +0.066 A 
ATOM     27  C10 UNL     1      15.654  11.266  37.189  0.00  0.00    +0.042 A 
ATOM     28  H9  UNL     1      13.471  12.981  37.831  0.00  0.00    +0.165 HD
ENDBRANCH  16  19
ENDBRANCH   2  15
TORSDOF 4
ENDMDL
MODEL 9
REMARK VINA RESULT:    -6.112      2.875      7.276
REMARK INTER + INTRA:          -8.457
REMARK INTER:                  -7.499
REMARK INTRA:                  -0.958
REMARK UNBOUND:                -0.916
REMARK  Name = /home/qwerty/github/datacon2025hack/step_04_hit_selection/docking/ligands/lig_567.pdb
REMARK  5 active torsions:
REMARK  status: ('A' for Active; 'I' for Inactive)
REMARK    1  A    between atoms: C1_1  and  C2_2
REMARK    2  A    between atoms: C2_2  and  N1_3
REMARK    3  A    between atoms: C2_2  and  C11_15
REMARK    4  A    between atoms: C3_4  and  C4_6
REMARK    5  A    between atoms: C15_19  and  N4_20
REMARK                            x       y       z     vdW  Elec       q    Type
REMARK                         _______ _______ _______ _____ _____    ______ ____
ROOT
ATOM      1  C1  UNL     1       7.754   4.616  26.827  0.00  0.00    +0.033 C 
ATOM      2  C2  UNL     1       8.567   5.733  26.157  0.00  0.00    +0.100 C 
ENDROOT
BRANCH   2   3
ATOM      3  C11 UNL     1       8.361   5.765  24.653  0.00  0.00    -0.026 A 
ATOM      4  C12 UNL     1       7.819   4.643  23.998  0.00  0.00    +0.005 A 
ATOM      5  C13 UNL     1       7.632   4.651  22.615  0.00  0.00    +0.002 A 
ATOM      6  C14 UNL     1       7.989   5.775  21.866  0.00  0.00    +0.023 A 
ATOM      7  C15 UNL     1       8.558   6.900  22.492  0.00  0.00    +0.037 A 
ATOM      8  C20 UNL     1       8.747   6.885  23.886  0.00  0.00    +0.029 A 
BRANCH   7   9
ATOM      9  N4  UNL     1       8.901   8.067  21.717  0.00  0.00    -0.271 N 
ATOM     10  C16 UNL     1       8.129   9.301  21.702  0.00  0.00    +0.114 C 
ATOM     11  C17 UNL     1       9.005  10.337  20.979  0.00  0.00    +0.029 C 
ATOM     12  C18 UNL     1      10.128   9.558  20.275  0.00  0.00    +0.098 C 
ATOM     13  C19 UNL     1      10.029   8.213  20.869  0.00  0.00    +0.220 C 
ATOM     14  O2  UNL     1      10.825   7.272  20.599  0.00  0.00    -0.275 OA
ENDBRANCH   7   9
ENDBRANCH   2   3
BRANCH   2  15
ATOM     15  N1  UNL     1       8.221   7.033  26.743  0.00  0.00    -0.305 N 
ATOM     16  C3  UNL     1       9.063   7.680  27.713  0.00  0.00    +0.246 C 
ATOM     17  O1  UNL     1      10.037   7.050  28.211  0.00  0.00    -0.270 OA
ATOM     18  H5  UNL     1       7.278   7.434  26.543  0.00  0.00    +0.150 HD
BRANCH  16  19
ATOM     19  C4  UNL     1       8.811   9.075  28.148  0.00  0.00    +0.057 A 
ATOM     20  C5  UNL     1       8.971   9.431  29.517  0.00  0.00    +0.124 A 
ATOM     21  N2  UNL     1       8.794  10.721  29.930  0.00  0.00    -0.253 NA
ATOM     22  C6  UNL     1       8.450  11.664  29.018  0.00  0.00    +0.088 A 
ATOM     23  C7  UNL     1       8.264  13.014  29.195  0.00  0.00    +0.047 A 
ATOM     24  C8  UNL     1       7.980  13.496  27.918  0.00  0.00    +0.085 A 
ATOM     25  N3  UNL     1       7.994  12.492  27.006  0.00  0.00    -0.359 N 
ATOM     26  C9  UNL     1       8.283  11.377  27.700  0.00  0.00    +0.066 A 
ATOM     27  C10 UNL     1       8.463  10.085  27.217  0.00  0.00    +0.042 A 
ATOM     28  H9  UNL     1       7.837  12.574  25.978  0.00  0.00    +0.165 HD
ENDBRANCH  16  19
ENDBRANCH   2  15
TORSDOF 4
ENDMDL
