REMARK  Name = /home/qwerty/github/datacon2025hack/step_04_hit_selection/docking/ligands/lig_646.pdb
REMARK  4 active torsions:
REMARK  status: ('A' for Active; 'I' for Inactive)
REMARK    1  A    between atoms: C1_1  and  O1_2
REMARK    2  A    between atoms: O1_2  and  C2_3
REMARK    3  A    between atoms: C9_10  and  C10_11
REMARK    4  A    between atoms: N2_15  and  C12_16
REMARK                            x       y       z     vdW  Elec       q    Type
REMARK                         _______ _______ _______ _____ _____    ______ ____
ROOT
ATOM      1  C2  UNL     1      -3.703   0.415  -0.369  0.00  0.00    +0.120 A 
ATOM      2  C3  UNL     1      -2.541   1.187  -0.624  0.00  0.00    +0.047 A 
ATOM      3  C4  UNL     1      -1.265   0.644  -0.408  0.00  0.00    +0.027 A 
ATOM      4  C5  UNL     1      -1.167  -0.662   0.086  0.00  0.00    +0.041 A 
ATOM      5  C6  UNL     1      -2.286  -1.417   0.307  0.00  0.00    -0.021 A 
ATOM      6  C7  UNL     1      -3.566  -0.904   0.094  0.00  0.00    +0.051 A 
ATOM      7  C8  UNL     1      -1.919  -2.798   0.727  0.00  0.00    +0.059 C 
ATOM      8  C9  UNL     1      -0.364  -2.781   0.701  0.00  0.00    +0.084 C 
ATOM      9  C10 UNL     1       0.226  -3.159   2.063  0.00  0.00    +0.029 C 
ATOM     10  N1  UNL     1       0.015  -1.411   0.333  0.00  0.00    -0.252 N 
ATOM     11  C11 UNL     1       1.366  -0.973   0.119  0.00  0.00    +0.311 C 
ATOM     12  O2  UNL     1       2.227  -1.798  -0.291  0.00  0.00    -0.252 OA
ATOM     13  N2  UNL     1       1.757   0.364   0.464  0.00  0.00    -0.269 N 
ATOM     14  H13 UNL     1       1.183   0.863   1.180  0.00  0.00    +0.156 HD
ENDROOT
BRANCH  13  15
ATOM     15  C12 UNL     1       2.951   1.003  -0.019  0.00  0.00    +0.036 A 
ATOM     16  C13 UNL     1       3.571   1.987   0.766  0.00  0.00    +0.023 A 
ATOM     17  C14 UNL     1       4.720   2.638   0.308  0.00  0.00    +0.003 A 
ATOM     18  C15 UNL     1       5.252   2.322  -0.944  0.00  0.00    +0.020 A 
ATOM     19  C16 UNL     1       4.631   1.359  -1.745  0.00  0.00    +0.043 A 
ATOM     20 CL1  UNL     1       5.286   0.981  -3.328  0.00  0.00    -0.083 Cl
ATOM     21  C17 UNL     1       3.480   0.705  -1.289  0.00  0.00    +0.043 A 
ENDBRANCH  13  15
BRANCH   1  23
ATOM     22  C1  UNL     1      -5.285   2.231  -1.039  0.00  0.00    +0.277 C 
ATOM     23  O1  UNL     1      -4.997   0.917  -0.572  0.00  0.00    -0.495 OA
ENDBRANCH   1  23
TORSDOF 2
