MODEL 1
REMARK VINA RESULT:    -7.129      0.000      0.000
REMARK INTER + INTRA:          -9.095
REMARK INTER:                  -8.796
REMARK INTRA:                  -0.299
REMARK UNBOUND:                -0.299
REMARK  Name = /home/qwerty/github/datacon2025hack/step_04_hit_selection/docking/ligands/lig_280.pdb
REMARK  5 active torsions:
REMARK  status: ('A' for Active; 'I' for Inactive)
REMARK    1  A    between atoms: C1_1  and  C2_2
REMARK    2  A    between atoms: N1_4  and  C3_5
REMARK    3  A    between atoms: C6_8  and  C7_9
REMARK    4  A    between atoms: C11_15  and  C12_16
REMARK    5  A    between atoms: N3_18  and  C13_19
REMARK                            x       y       z     vdW  Elec       q    Type
REMARK                         _______ _______ _______ _____ _____    ______ ____
ROOT
ATOM      1  C7  UNL     1      15.375  11.446  36.040  0.00  0.00    +0.247 C 
ATOM      2  O2  UNL     1      14.654  10.845  35.196  0.00  0.00    -0.270 OA
ATOM      3  N2  UNL     1      14.943  12.721  36.553  0.00  0.00    -0.297 N 
ATOM      4  C8  UNL     1      15.884  13.832  36.744  0.00  0.00    +0.108 C 
ATOM      5  C9  UNL     1      15.464  15.029  35.884  0.00  0.00    +0.020 C 
ATOM      6  C10 UNL     1      13.981  15.384  36.090  0.00  0.00    +0.016 C 
ATOM      7  C11 UNL     1      13.038  14.169  35.939  0.00  0.00    +0.093 C 
ATOM      8  C19 UNL     1      13.521  12.985  36.796  0.00  0.00    +0.120 C 
ENDROOT
BRANCH   1  12
ATOM      9  C3  UNL     1      19.030   9.588  37.351  0.00  0.00    +0.033 A 
ATOM     10  C4  UNL     1      17.923   9.663  38.214  0.00  0.00    +0.024 A 
ATOM     11  C5  UNL     1      16.736  10.269  37.791  0.00  0.00    +0.015 A 
ATOM     12  C6  UNL     1      16.632  10.809  36.497  0.00  0.00    +0.037 A 
ATOM     13  C20 UNL     1      17.727  10.696  35.623  0.00  0.00    +0.015 A 
ATOM     14  C21 UNL     1      18.912  10.087  36.047  0.00  0.00    +0.024 A 
BRANCH   9  18
ATOM     15  C1  UNL     1      21.905   7.029  37.860  0.00  0.00    +0.109 C 
ATOM     16  C2  UNL     1      20.538   7.556  37.573  0.00  0.00    +0.214 C 
ATOM     17  O1  UNL     1      19.622   6.751  37.251  0.00  0.00    -0.276 OA
ATOM     18  N1  UNL     1      20.257   8.952  37.755  0.00  0.00    -0.286 N 
ATOM     19  H4  UNL     1      20.955   9.525  38.281  0.00  0.00    +0.155 HD
ENDBRANCH   9  18
ENDBRANCH   1  12
BRANCH   7  20
ATOM     20  C12 UNL     1      12.854  13.761  34.494  0.00  0.00    +0.222 C 
ATOM     21  O3  UNL     1      12.712  12.543  34.197  0.00  0.00    -0.275 OA
ATOM     22  N3  UNL     1      12.861  14.758  33.458  0.00  0.00    -0.285 N 
ATOM     23  H14 UNL     1      13.283  15.690  33.675  0.00  0.00    +0.155 HD
BRANCH  22  24
ATOM     24  C13 UNL     1      12.394  14.528  32.118  0.00  0.00    +0.034 A 
ATOM     25  C14 UNL     1      11.167  13.882  31.867  0.00  0.00    +0.026 A 
ATOM     26  C15 UNL     1      10.731  13.683  30.554  0.00  0.00    +0.040 A 
ATOM     27  C16 UNL     1      11.505  14.135  29.482  0.00  0.00    +0.124 A 
ATOM     28  F1  UNL     1      11.084  13.933  28.207  0.00  0.00    -0.205 F 
ATOM     29  C17 UNL     1      12.711  14.798  29.721  0.00  0.00    +0.040 A 
ATOM     30  C18 UNL     1      13.150  15.003  31.034  0.00  0.00    +0.026 A 
ENDBRANCH  22  24
ENDBRANCH   7  20
TORSDOF 4
ENDMDL
MODEL 2
REMARK VINA RESULT:    -7.069      5.497     10.971
REMARK INTER + INTRA:          -9.021
REMARK INTER:                  -8.486
REMARK INTRA:                  -0.534
REMARK UNBOUND:                -0.299
REMARK  Name = /home/qwerty/github/datacon2025hack/step_04_hit_selection/docking/ligands/lig_280.pdb
REMARK  5 active torsions:
REMARK  status: ('A' for Active; 'I' for Inactive)
REMARK    1  A    between atoms: C1_1  and  C2_2
REMARK    2  A    between atoms: N1_4  and  C3_5
REMARK    3  A    between atoms: C6_8  and  C7_9
REMARK    4  A    between atoms: C11_15  and  C12_16
REMARK    5  A    between atoms: N3_18  and  C13_19
REMARK                            x       y       z     vdW  Elec       q    Type
REMARK                         _______ _______ _______ _____ _____    ______ ____
ROOT
ATOM      1  C7  UNL     1      20.867   8.805  34.073  0.00  0.00    +0.247 C 
ATOM      2  O2  UNL     1      20.464   8.302  32.988  0.00  0.00    -0.270 OA
ATOM      3  N2  UNL     1      22.138   8.392  34.611  0.00  0.00    -0.297 N 
ATOM      4  C8  UNL     1      22.321   8.144  36.046  0.00  0.00    +0.108 C 
ATOM      5  C9  UNL     1      22.747   6.691  36.278  0.00  0.00    +0.020 C 
ATOM      6  C10 UNL     1      23.940   6.300  35.388  0.00  0.00    +0.016 C 
ATOM      7  C11 UNL     1      23.722   6.637  33.895  0.00  0.00    +0.093 C 
ATOM      8  C19 UNL     1      23.265   8.096  33.720  0.00  0.00    +0.120 C 
ENDROOT
BRANCH   1  12
ATOM      9  C3  UNL     1      18.422  11.761  36.028  0.00  0.00    +0.033 A 
ATOM     10  C4  UNL     1      19.644  12.128  35.436  0.00  0.00    +0.024 A 
ATOM     11  C5  UNL     1      20.441  11.168  34.804  0.00  0.00    +0.015 A 
ATOM     12  C6  UNL     1      20.031   9.825  34.748  0.00  0.00    +0.037 A 
ATOM     13  C20 UNL     1      18.790   9.469  35.304  0.00  0.00    +0.015 A 
ATOM     14  C21 UNL     1      17.994  10.430  35.933  0.00  0.00    +0.024 A 
BRANCH   9  18
ATOM     15  C1  UNL     1      15.592  14.307  36.786  0.00  0.00    +0.109 C 
ATOM     16  C2  UNL     1      16.532  13.457  35.997  0.00  0.00    +0.214 C 
ATOM     17  O1  UNL     1      16.449  13.450  34.739  0.00  0.00    -0.276 OA
ATOM     18  N1  UNL     1      17.575  12.732  36.667  0.00  0.00    -0.286 N 
ATOM     19  H4  UNL     1      17.779  12.982  37.661  0.00  0.00    +0.155 HD
ENDBRANCH   9  18
ENDBRANCH   1  12
BRANCH   7  20
ATOM     20  C12 UNL     1      22.764   5.677  33.224  0.00  0.00    +0.222 C 
ATOM     21  O3  UNL     1      22.156   6.027  32.176  0.00  0.00    -0.275 OA
ATOM     22  N3  UNL     1      22.534   4.376  33.790  0.00  0.00    -0.285 N 
ATOM     23  H14 UNL     1      22.789   4.225  34.794  0.00  0.00    +0.155 HD
BRANCH  22  24
ATOM     24  C13 UNL     1      21.903   3.293  33.086  0.00  0.00    +0.034 A 
ATOM     25  C14 UNL     1      22.316   2.917  31.792  0.00  0.00    +0.026 A 
ATOM     26  C15 UNL     1      21.693   1.852  31.136  0.00  0.00    +0.040 A 
ATOM     27  C16 UNL     1      20.664   1.145  31.765  0.00  0.00    +0.124 A 
ATOM     28  F1  UNL     1      20.055   0.117  31.122  0.00  0.00    -0.205 F 
ATOM     29  C17 UNL     1      20.264   1.496  33.057  0.00  0.00    +0.040 A 
ATOM     30  C18 UNL     1      20.887   2.559  33.719  0.00  0.00    +0.026 A 
ENDBRANCH  22  24
ENDBRANCH   7  20
TORSDOF 4
ENDMDL
MODEL 3
REMARK VINA RESULT:    -6.957     13.948     16.846
REMARK INTER + INTRA:          -8.883
REMARK INTER:                  -8.085
REMARK INTRA:                  -0.797
REMARK UNBOUND:                -0.299
REMARK  Name = /home/qwerty/github/datacon2025hack/step_04_hit_selection/docking/ligands/lig_280.pdb
REMARK  5 active torsions:
REMARK  status: ('A' for Active; 'I' for Inactive)
REMARK    1  A    between atoms: C1_1  and  C2_2
REMARK    2  A    between atoms: N1_4  and  C3_5
REMARK    3  A    between atoms: C6_8  and  C7_9
REMARK    4  A    between atoms: C11_15  and  C12_16
REMARK    5  A    between atoms: N3_18  and  C13_19
REMARK                            x       y       z     vdW  Elec       q    Type
REMARK                         _______ _______ _______ _____ _____    ______ ____
ROOT
ATOM      1  C7  UNL     1      20.688   9.966  19.851  0.00  0.00    +0.247 C 
ATOM      2  O2  UNL     1      21.596   9.683  20.681  0.00  0.00    -0.270 OA
ATOM      3  N2  UNL     1      20.788  11.184  19.087  0.00  0.00    -0.297 N 
ATOM      4  C8  UNL     1      19.617  12.036  18.842  0.00  0.00    +0.108 C 
ATOM      5  C9  UNL     1      19.849  13.429  19.436  0.00  0.00    +0.020 C 
ATOM      6  C10 UNL     1      21.196  14.021  18.986  0.00  0.00    +0.016 C 
ATOM      7  C11 UNL     1      22.387  13.062  19.209  0.00  0.00    +0.093 C 
ATOM      8  C19 UNL     1      22.092  11.669  18.624  0.00  0.00    +0.120 C 
ENDROOT
BRANCH   1  12
ATOM      9  C3  UNL     1      17.411   7.227  19.306  0.00  0.00    +0.033 A 
ATOM     10  C4  UNL     1      17.394   8.155  20.363  0.00  0.00    +0.024 A 
ATOM     11  C5  UNL     1      18.459   9.042  20.543  0.00  0.00    +0.015 A 
ATOM     12  C6  UNL     1      19.560   9.023  19.669  0.00  0.00    +0.037 A 
ATOM     13  C20 UNL     1      19.555   8.123  18.590  0.00  0.00    +0.015 A 
ATOM     14  C21 UNL     1      18.489   7.238  18.409  0.00  0.00    +0.024 A 
BRANCH   9  18
ATOM     15  C1  UNL     1      14.888   4.295  19.626  0.00  0.00    +0.109 C 
ATOM     16  C2  UNL     1      16.146   5.080  19.797  0.00  0.00    +0.214 C 
ATOM     17  O1  UNL     1      17.077   4.607  20.504  0.00  0.00    -0.276 OA
ATOM     18  N1  UNL     1      16.320   6.316  19.086  0.00  0.00    -0.286 N 
ATOM     19  H4  UNL     1      15.654   6.528  18.309  0.00  0.00    +0.155 HD
ENDBRANCH   9  18
ENDBRANCH   1  12
BRANCH   7  20
ATOM     20  C12 UNL     1      22.787  12.972  20.665  0.00  0.00    +0.222 C 
ATOM     21  O3  UNL     1      23.654  12.130  21.028  0.00  0.00    -0.275 OA
ATOM     22  N3  UNL     1      22.167  13.831  21.637  0.00  0.00    -0.285 N 
ATOM     23  H14 UNL     1      21.258  14.283  21.384  0.00  0.00    +0.155 HD
BRANCH  22  24
ATOM     24  C13 UNL     1      22.679  14.047  22.963  0.00  0.00    +0.034 A 
ATOM     25  C14 UNL     1      23.684  15.001  23.217  0.00  0.00    +0.026 A 
ATOM     26  C15 UNL     1      24.155  15.199  24.519  0.00  0.00    +0.040 A 
ATOM     27  C16 UNL     1      23.621  14.458  25.577  0.00  0.00    +0.124 A 
ATOM     28  F1  UNL     1      24.086  14.645  26.839  0.00  0.00    -0.205 F 
ATOM     29  C17 UNL     1      22.607  13.527  25.338  0.00  0.00    +0.040 A 
ATOM     30  C18 UNL     1      22.131  13.328  24.038  0.00  0.00    +0.026 A 
ENDBRANCH  22  24
ENDBRANCH   7  20
TORSDOF 4
ENDMDL
MODEL 4
REMARK VINA RESULT:    -6.873     16.371     18.874
REMARK INTER + INTRA:          -8.780
REMARK INTER:                  -8.331
REMARK INTRA:                  -0.449
REMARK UNBOUND:                -0.299
REMARK  Name = /home/qwerty/github/datacon2025hack/step_04_hit_selection/docking/ligands/lig_280.pdb
REMARK  5 active torsions:
REMARK  status: ('A' for Active; 'I' for Inactive)
REMARK    1  A    between atoms: C1_1  and  C2_2
REMARK    2  A    between atoms: N1_4  and  C3_5
REMARK    3  A    between atoms: C6_8  and  C7_9
REMARK    4  A    between atoms: C11_15  and  C12_16
REMARK    5  A    between atoms: N3_18  and  C13_19
REMARK                            x       y       z     vdW  Elec       q    Type
REMARK                         _______ _______ _______ _____ _____    ______ ____
ROOT
ATOM      1  C7  UNL     1      12.706   2.210  21.302  0.00  0.00    +0.247 C 
ATOM      2  O2  UNL     1      12.593   1.141  21.962  0.00  0.00    -0.270 OA
ATOM      3  N2  UNL     1      13.929   2.468  20.585  0.00  0.00    -0.297 N 
ATOM      4  C8  UNL     1      14.544   3.801  20.568  0.00  0.00    +0.108 C 
ATOM      5  C9  UNL     1      15.948   3.740  21.175  0.00  0.00    +0.020 C 
ATOM      6  C10 UNL     1      16.793   2.621  20.541  0.00  0.00    +0.016 C 
ATOM      7  C11 UNL     1      16.077   1.251  20.529  0.00  0.00    +0.093 C 
ATOM      8  C19 UNL     1      14.660   1.373  19.939  0.00  0.00    +0.120 C 
ENDROOT
BRANCH   1  12
ATOM      9  C3  UNL     1       9.384   4.947  21.193  0.00  0.00    +0.033 A 
ATOM     10  C4  UNL     1      10.475   5.119  20.322  0.00  0.00    +0.024 A 
ATOM     11  C5  UNL     1      11.556   4.233  20.359  0.00  0.00    +0.015 A 
ATOM     12  C6  UNL     1      11.567   3.157  21.263  0.00  0.00    +0.037 A 
ATOM     13  C20 UNL     1      10.458   2.964  22.104  0.00  0.00    +0.015 A 
ATOM     14  C21 UNL     1       9.376   3.849  22.065  0.00  0.00    +0.024 A 
BRANCH   9  18
ATOM     15  C1  UNL     1       5.838   6.438  20.674  0.00  0.00    +0.109 C 
ATOM     16  C2  UNL     1       7.014   5.536  20.496  0.00  0.00    +0.214 C 
ATOM     17  O1  UNL     1       6.931   4.565  19.695  0.00  0.00    -0.276 OA
ATOM     18  N1  UNL     1       8.251   5.833  21.163  0.00  0.00    -0.286 N 
ATOM     19  H4  UNL     1       8.359   6.782  21.586  0.00  0.00    +0.155 HD
ENDBRANCH   9  18
ENDBRANCH   1  12
BRANCH   7  20
ATOM     20  C12 UNL     1      16.049   0.605  21.897  0.00  0.00    +0.222 C 
ATOM     21  O3  UNL     1      16.791   1.046  22.816  0.00  0.00    -0.275 OA
ATOM     22  N3  UNL     1      15.190  -0.521  22.143  0.00  0.00    -0.285 N 
ATOM     23  H14 UNL     1      14.832  -1.056  21.318  0.00  0.00    +0.155 HD
BRANCH  22  24
ATOM     24  C13 UNL     1      14.855  -1.005  23.455  0.00  0.00    +0.034 A 
ATOM     25  C14 UNL     1      13.914  -0.342  24.266  0.00  0.00    +0.026 A 
ATOM     26  C15 UNL     1      13.598  -0.842  25.533  0.00  0.00    +0.040 A 
ATOM     27  C16 UNL     1      14.207  -2.011  25.997  0.00  0.00    +0.124 A 
ATOM     28  F1  UNL     1      13.906  -2.490  27.230  0.00  0.00    -0.205 F 
ATOM     29  C17 UNL     1      15.124  -2.689  25.189  0.00  0.00    +0.040 A 
ATOM     30  C18 UNL     1      15.441  -2.194  23.920  0.00  0.00    +0.026 A 
ENDBRANCH  22  24
ENDBRANCH   7  20
TORSDOF 4
ENDMDL
MODEL 5
REMARK VINA RESULT:    -6.809     10.900     14.242
REMARK INTER + INTRA:          -8.701
REMARK INTER:                  -7.869
REMARK INTRA:                  -0.832
REMARK UNBOUND:                -0.299
REMARK  Name = /home/qwerty/github/datacon2025hack/step_04_hit_selection/docking/ligands/lig_280.pdb
REMARK  5 active torsions:
REMARK  status: ('A' for Active; 'I' for Inactive)
REMARK    1  A    between atoms: C1_1  and  C2_2
REMARK    2  A    between atoms: N1_4  and  C3_5
REMARK    3  A    between atoms: C6_8  and  C7_9
REMARK    4  A    between atoms: C11_15  and  C12_16
REMARK    5  A    between atoms: N3_18  and  C13_19
REMARK                            x       y       z     vdW  Elec       q    Type
REMARK                         _______ _______ _______ _____ _____    ______ ____
ROOT
ATOM      1  C7  UNL     1      21.200   4.419  28.469  0.00  0.00    +0.247 C 
ATOM      2  O2  UNL     1      21.491   5.471  29.104  0.00  0.00    -0.270 OA
ATOM      3  N2  UNL     1      20.822   3.237  29.200  0.00  0.00    -0.297 N 
ATOM      4  C8  UNL     1      21.303   1.906  28.811  0.00  0.00    +0.108 C 
ATOM      5  C9  UNL     1      22.110   1.284  29.955  0.00  0.00    +0.020 C 
ATOM      6  C10 UNL     1      21.342   1.340  31.288  0.00  0.00    +0.016 C 
ATOM      7  C11 UNL     1      20.804   2.750  31.621  0.00  0.00    +0.093 C 
ATOM      8  C19 UNL     1      20.030   3.342  30.430  0.00  0.00    +0.120 C 
ENDROOT
BRANCH   1  12
ATOM      9  C3  UNL     1      21.280   4.475  24.165  0.00  0.00    +0.033 A 
ATOM     10  C4  UNL     1      22.479   4.406  24.896  0.00  0.00    +0.024 A 
ATOM     11  C5  UNL     1      22.455   4.391  26.294  0.00  0.00    +0.015 A 
ATOM     12  C6  UNL     1      21.233   4.442  26.988  0.00  0.00    +0.037 A 
ATOM     13  C20 UNL     1      20.035   4.470  26.253  0.00  0.00    +0.015 A 
ATOM     14  C21 UNL     1      20.061   4.481  24.856  0.00  0.00    +0.024 A 
BRANCH   9  18
ATOM     15  C1  UNL     1      21.697   5.480  20.438  0.00  0.00    +0.109 C 
ATOM     16  C2  UNL     1      21.547   5.627  21.917  0.00  0.00    +0.214 C 
ATOM     17  O1  UNL     1      21.583   6.779  22.429  0.00  0.00    -0.276 OA
ATOM     18  N1  UNL     1      21.276   4.472  22.726  0.00  0.00    -0.286 N 
ATOM     19  H4  UNL     1      20.982   3.595  22.239  0.00  0.00    +0.155 HD
ENDBRANCH   9  18
ENDBRANCH   1  12
BRANCH   7  20
ATOM     20  C12 UNL     1      21.897   3.687  32.085  0.00  0.00    +0.222 C 
ATOM     21  O3  UNL     1      23.072   3.255  32.241  0.00  0.00    -0.275 OA
ATOM     22  N3  UNL     1      21.594   5.064  32.368  0.00  0.00    -0.285 N 
ATOM     23  H14 UNL     1      20.594   5.322  32.536  0.00  0.00    +0.155 HD
BRANCH  22  24
ATOM     24  C13 UNL     1      22.587   6.093  32.509  0.00  0.00    +0.034 A 
ATOM     25  C14 UNL     1      22.832   7.025  31.481  0.00  0.00    +0.026 A 
ATOM     26  C15 UNL     1      23.796   8.024  31.651  0.00  0.00    +0.040 A 
ATOM     27  C16 UNL     1      24.513   8.111  32.847  0.00  0.00    +0.124 A 
ATOM     28  F1  UNL     1      25.454   9.076  33.007  0.00  0.00    -0.205 F 
ATOM     29  C17 UNL     1      24.259   7.205  33.882  0.00  0.00    +0.040 A 
ATOM     30  C18 UNL     1      23.294   6.206  33.718  0.00  0.00    +0.026 A 
ENDBRANCH  22  24
ENDBRANCH   7  20
TORSDOF 4
ENDMDL
MODEL 6
REMARK VINA RESULT:    -6.709     14.288     15.643
REMARK INTER + INTRA:          -8.577
REMARK INTER:                  -8.015
REMARK INTRA:                  -0.562
REMARK UNBOUND:                -0.299
REMARK  Name = /home/qwerty/github/datacon2025hack/step_04_hit_selection/docking/ligands/lig_280.pdb
REMARK  5 active torsions:
REMARK  status: ('A' for Active; 'I' for Inactive)
REMARK    1  A    between atoms: C1_1  and  C2_2
REMARK    2  A    between atoms: N1_4  and  C3_5
REMARK    3  A    between atoms: C6_8  and  C7_9
REMARK    4  A    between atoms: C11_15  and  C12_16
REMARK    5  A    between atoms: N3_18  and  C13_19
REMARK                            x       y       z     vdW  Elec       q    Type
REMARK                         _______ _______ _______ _____ _____    ______ ____
ROOT
ATOM      1  C7  UNL     1      17.996   0.703  24.906  0.00  0.00    +0.247 C 
ATOM      2  O2  UNL     1      17.875   1.388  23.852  0.00  0.00    -0.270 OA
ATOM      3  N2  UNL     1      17.311  -0.560  25.006  0.00  0.00    -0.297 N 
ATOM      4  C8  UNL     1      16.641  -0.974  26.245  0.00  0.00    +0.108 C 
ATOM      5  C9  UNL     1      15.146  -1.186  25.988  0.00  0.00    +0.020 C 
ATOM      6  C10 UNL     1      14.902  -2.100  24.774  0.00  0.00    +0.016 C 
ATOM      7  C11 UNL     1      15.678  -1.656  23.513  0.00  0.00    +0.093 C 
ATOM      8  C19 UNL     1      17.166  -1.426  23.832  0.00  0.00    +0.120 C 
ENDROOT
BRANCH   1  12
ATOM      9  C3  UNL     1      20.505   2.188  28.074  0.00  0.00    +0.033 A 
ATOM     10  C4  UNL     1      20.980   1.196  27.197  0.00  0.00    +0.024 A 
ATOM     11  C5  UNL     1      20.165   0.711  26.170  0.00  0.00    +0.015 A 
ATOM     12  C6  UNL     1      18.862   1.209  25.997  0.00  0.00    +0.037 A 
ATOM     13  C20 UNL     1      18.405   2.229  26.848  0.00  0.00    +0.015 A 
ATOM     14  C21 UNL     1      19.222   2.715  27.873  0.00  0.00    +0.024 A 
BRANCH   9  18
ATOM     15  C1  UNL     1      22.489   2.640  31.380  0.00  0.00    +0.109 C 
ATOM     16  C2  UNL     1      21.472   2.114  30.421  0.00  0.00    +0.214 C 
ATOM     17  O1  UNL     1      20.694   1.193  30.791  0.00  0.00    -0.276 OA
ATOM     18  N1  UNL     1      21.330   2.719  29.127  0.00  0.00    -0.286 N 
ATOM     19  H4  UNL     1      21.793   3.642  28.968  0.00  0.00    +0.155 HD
ENDBRANCH   9  18
ENDBRANCH   1  12
BRANCH   7  20
ATOM     20  C12 UNL     1      15.062  -0.439  22.859  0.00  0.00    +0.222 C 
ATOM     21  O3  UNL     1      14.304   0.317  23.525  0.00  0.00    -0.275 OA
ATOM     22  N3  UNL     1      15.326  -0.155  21.474  0.00  0.00    -0.285 N 
ATOM     23  H14 UNL     1      15.683  -0.933  20.873  0.00  0.00    +0.155 HD
BRANCH  22  24
ATOM     24  C13 UNL     1      15.057   1.111  20.848  0.00  0.00    +0.034 A 
ATOM     25  C14 UNL     1      13.742   1.602  20.717  0.00  0.00    +0.026 A 
ATOM     26  C15 UNL     1      13.511   2.842  20.115  0.00  0.00    +0.040 A 
ATOM     27  C16 UNL     1      14.583   3.608  19.651  0.00  0.00    +0.124 A 
ATOM     28  F1  UNL     1      14.356   4.808  19.059  0.00  0.00    -0.205 F 
ATOM     29  C17 UNL     1      15.892   3.140  19.799  0.00  0.00    +0.040 A 
ATOM     30  C18 UNL     1      16.129   1.901  20.403  0.00  0.00    +0.026 A 
ENDBRANCH  22  24
ENDBRANCH   7  20
TORSDOF 4
ENDMDL
MODEL 7
REMARK VINA RESULT:    -6.680     10.019     13.110
REMARK INTER + INTRA:          -8.541
REMARK INTER:                  -7.854
REMARK INTRA:                  -0.687
REMARK UNBOUND:                -0.299
REMARK  Name = /home/qwerty/github/datacon2025hack/step_04_hit_selection/docking/ligands/lig_280.pdb
REMARK  5 active torsions:
REMARK  status: ('A' for Active; 'I' for Inactive)
REMARK    1  A    between atoms: C1_1  and  C2_2
REMARK    2  A    between atoms: N1_4  and  C3_5
REMARK    3  A    between atoms: C6_8  and  C7_9
REMARK    4  A    between atoms: C11_15  and  C12_16
REMARK    5  A    between atoms: N3_18  and  C13_19
REMARK                            x       y       z     vdW  Elec       q    Type
REMARK                         _______ _______ _______ _____ _____    ______ ____
ROOT
ATOM      1  C7  UNL     1      19.766  15.934  25.886  0.00  0.00    +0.247 C 
ATOM      2  O2  UNL     1      19.747  16.273  24.670  0.00  0.00    -0.270 OA
ATOM      3  N2  UNL     1      21.033  15.731  26.541  0.00  0.00    -0.297 N 
ATOM      4  C8  UNL     1      21.250  14.611  27.465  0.00  0.00    +0.108 C 
ATOM      5  C9  UNL     1      22.374  13.711  26.943  0.00  0.00    +0.020 C 
ATOM      6  C10 UNL     1      23.633  14.522  26.590  0.00  0.00    +0.016 C 
ATOM      7  C11 UNL     1      23.341  15.725  25.665  0.00  0.00    +0.093 C 
ATOM      8  C19 UNL     1      22.185  16.578  26.216  0.00  0.00    +0.120 C 
ENDROOT
BRANCH   1  12
ATOM      9  C3  UNL     1      16.038  15.502  27.996  0.00  0.00    +0.033 A 
ATOM     10  C4  UNL     1      16.801  14.368  27.664  0.00  0.00    +0.024 A 
ATOM     11  C5  UNL     1      18.010  14.507  26.975  0.00  0.00    +0.015 A 
ATOM     12  C6  UNL     1      18.481  15.780  26.609  0.00  0.00    +0.037 A 
ATOM     13  C20 UNL     1      17.736  16.913  26.978  0.00  0.00    +0.015 A 
ATOM     14  C21 UNL     1      16.529  16.773  27.669  0.00  0.00    +0.024 A 
BRANCH   9  18
ATOM     15  C1  UNL     1      12.382  14.687  29.016  0.00  0.00    +0.109 C 
ATOM     16  C2  UNL     1      13.564  14.942  28.141  0.00  0.00    +0.214 C 
ATOM     17  O1  UNL     1      13.440  14.838  26.890  0.00  0.00    -0.276 OA
ATOM     18  N1  UNL     1      14.800  15.388  28.721  0.00  0.00    -0.286 N 
ATOM     19  H4  UNL     1      14.779  15.724  29.710  0.00  0.00    +0.155 HD
ENDBRANCH   9  18
ENDBRANCH   1  12
BRANCH   7  20
ATOM     20  C12 UNL     1      23.079  15.302  24.237  0.00  0.00    +0.222 C 
ATOM     21  O3  UNL     1      23.415  14.149  23.851  0.00  0.00    -0.275 OA
ATOM     22  N3  UNL     1      22.465  16.219  23.315  0.00  0.00    -0.285 N 
ATOM     23  H14 UNL     1      22.483  17.238  23.551  0.00  0.00    +0.155 HD
BRANCH  22  24
ATOM     24  C13 UNL     1      21.896  15.830  22.053  0.00  0.00    +0.034 A 
ATOM     25  C14 UNL     1      22.548  16.108  20.835  0.00  0.00    +0.026 A 
ATOM     26  C15 UNL     1      21.978  15.707  19.624  0.00  0.00    +0.040 A 
ATOM     27  C16 UNL     1      20.764  15.016  19.615  0.00  0.00    +0.124 A 
ATOM     28  F1  UNL     1      20.207  14.635  18.437  0.00  0.00    -0.205 F 
ATOM     29  C17 UNL     1      20.122  14.714  20.819  0.00  0.00    +0.040 A 
ATOM     30  C18 UNL     1      20.690  15.110  22.034  0.00  0.00    +0.026 A 
ENDBRANCH  22  24
ENDBRANCH   7  20
TORSDOF 4
ENDMDL
MODEL 8
REMARK VINA RESULT:    -6.670     14.975     18.211
REMARK INTER + INTRA:          -8.529
REMARK INTER:                  -7.658
REMARK INTRA:                  -0.872
REMARK UNBOUND:                -0.299
REMARK  Name = /home/qwerty/github/datacon2025hack/step_04_hit_selection/docking/ligands/lig_280.pdb
REMARK  5 active torsions:
REMARK  status: ('A' for Active; 'I' for Inactive)
REMARK    1  A    between atoms: C1_1  and  C2_2
REMARK    2  A    between atoms: N1_4  and  C3_5
REMARK    3  A    between atoms: C6_8  and  C7_9
REMARK    4  A    between atoms: C11_15  and  C12_16
REMARK    5  A    between atoms: N3_18  and  C13_19
REMARK                            x       y       z     vdW  Elec       q    Type
REMARK                         _______ _______ _______ _____ _____    ______ ____
ROOT
ATOM      1  C7  UNL     1      12.786   2.646  21.811  0.00  0.00    +0.247 C 
ATOM      2  O2  UNL     1      12.534   1.718  22.629  0.00  0.00    -0.270 OA
ATOM      3  N2  UNL     1      13.854   2.474  20.860  0.00  0.00    -0.297 N 
ATOM      4  C8  UNL     1      14.783   3.566  20.542  0.00  0.00    +0.108 C 
ATOM      5  C9  UNL     1      16.216   3.155  20.894  0.00  0.00    +0.020 C 
ATOM      6  C10 UNL     1      16.580   1.787  20.289  0.00  0.00    +0.016 C 
ATOM      7  C11 UNL     1      15.540   0.688  20.602  0.00  0.00    +0.093 C 
ATOM      8  C19 UNL     1      14.116   1.162  20.260  0.00  0.00    +0.120 C 
ENDROOT
BRANCH   1  12
ATOM      9  C3  UNL     1      10.379   6.215  21.873  0.00  0.00    +0.033 A 
ATOM     10  C4  UNL     1      11.294   5.957  22.910  0.00  0.00    +0.024 A 
ATOM     11  C5  UNL     1      12.073   4.797  22.892  0.00  0.00    +0.015 A 
ATOM     12  C6  UNL     1      11.957   3.874  21.838  0.00  0.00    +0.037 A 
ATOM     13  C20 UNL     1      11.072   4.154  20.784  0.00  0.00    +0.015 A 
ATOM     14  C21 UNL     1      10.295   5.316  20.800  0.00  0.00    +0.024 A 
BRANCH   9  18
ATOM     15  C1  UNL     1       8.955   9.730  21.044  0.00  0.00    +0.109 C 
ATOM     16  C2  UNL     1       9.935   8.609  21.148  0.00  0.00    +0.214 C 
ATOM     17  O1  UNL     1      11.097   8.760  20.681  0.00  0.00    -0.276 OA
ATOM     18  N1  UNL     1       9.579   7.411  21.856  0.00  0.00    -0.286 N 
ATOM     19  H4  UNL     1       8.724   7.437  22.457  0.00  0.00    +0.155 HD
ENDBRANCH   9  18
ENDBRANCH   1  12
BRANCH   7  20
ATOM     20  C12 UNL     1      15.629   0.203  22.032  0.00  0.00    +0.222 C 
ATOM     21  O3  UNL     1      16.498   0.687  22.807  0.00  0.00    -0.275 OA
ATOM     22  N3  UNL     1      14.737  -0.823  22.501  0.00  0.00    -0.285 N 
ATOM     23  H14 UNL     1      14.255  -1.418  21.789  0.00  0.00    +0.155 HD
BRANCH  22  24
ATOM     24  C13 UNL     1      14.526  -1.131  23.889  0.00  0.00    +0.034 A 
ATOM     25  C14 UNL     1      13.752  -0.297  24.719  0.00  0.00    +0.026 A 
ATOM     26  C15 UNL     1      13.553  -0.628  26.063  0.00  0.00    +0.040 A 
ATOM     27  C16 UNL     1      14.112  -1.797  26.587  0.00  0.00    +0.124 A 
ATOM     28  F1  UNL     1      13.925  -2.112  27.894  0.00  0.00    -0.205 F 
ATOM     29  C17 UNL     1      14.862  -2.643  25.765  0.00  0.00    +0.040 A 
ATOM     30  C18 UNL     1      15.061  -2.317  24.420  0.00  0.00    +0.026 A 
ENDBRANCH  22  24
ENDBRANCH   7  20
TORSDOF 4
ENDMDL
MODEL 9
REMARK VINA RESULT:    -6.630     10.739     15.105
REMARK INTER + INTRA:          -8.480
REMARK INTER:                  -7.932
REMARK INTRA:                  -0.548
REMARK UNBOUND:                -0.299
REMARK  Name = /home/qwerty/github/datacon2025hack/step_04_hit_selection/docking/ligands/lig_280.pdb
REMARK  5 active torsions:
REMARK  status: ('A' for Active; 'I' for Inactive)
REMARK    1  A    between atoms: C1_1  and  C2_2
REMARK    2  A    between atoms: N1_4  and  C3_5
REMARK    3  A    between atoms: C6_8  and  C7_9
REMARK    4  A    between atoms: C11_15  and  C12_16
REMARK    5  A    between atoms: N3_18  and  C13_19
REMARK                            x       y       z     vdW  Elec       q    Type
REMARK                         _______ _______ _______ _____ _____    ______ ____
ROOT
ATOM      1  C7  UNL     1       9.505   8.608  23.703  0.00  0.00    +0.247 C 
ATOM      2  O2  UNL     1       9.474   7.352  23.821  0.00  0.00    -0.270 OA
ATOM      3  N2  UNL     1       9.686   9.188  22.396  0.00  0.00    -0.297 N 
ATOM      4  C8  UNL     1      10.563  10.347  22.184  0.00  0.00    +0.108 C 
ATOM      5  C9  UNL     1      11.686   9.983  21.209  0.00  0.00    +0.020 C 
ATOM      6  C10 UNL     1      11.138   9.333  19.927  0.00  0.00    +0.016 C 
ATOM      7  C11 UNL     1      10.173   8.159  20.205  0.00  0.00    +0.093 C 
ATOM      8  C19 UNL     1       9.083   8.566  21.213  0.00  0.00    +0.120 C 
ENDROOT
BRANCH   1  12
ATOM      9  C3  UNL     1       9.005  11.046  27.216  0.00  0.00    +0.033 A 
ATOM     10  C4  UNL     1       7.911  10.347  26.675  0.00  0.00    +0.024 A 
ATOM     11  C5  UNL     1       8.072   9.558  25.533  0.00  0.00    +0.015 A 
ATOM     12  C6  UNL     1       9.327   9.449  24.910  0.00  0.00    +0.037 A 
ATOM     13  C20 UNL     1      10.427  10.116  25.476  0.00  0.00    +0.015 A 
ATOM     14  C21 UNL     1      10.266  10.903  26.620  0.00  0.00    +0.024 A 
BRANCH   9  18
ATOM     15  C1  UNL     1       7.968  13.794  29.755  0.00  0.00    +0.109 C 
ATOM     16  C2  UNL     1       8.211  13.124  28.443  0.00  0.00    +0.214 C 
ATOM     17  O1  UNL     1       7.903  13.724  27.377  0.00  0.00    -0.276 OA
ATOM     18  N1  UNL     1       8.872  11.850  28.402  0.00  0.00    -0.286 N 
ATOM     19  H4  UNL     1       9.353  11.523  29.271  0.00  0.00    +0.155 HD
ENDBRANCH   9  18
ENDBRANCH   1  12
BRANCH   7  20
ATOM     20  C12 UNL     1      10.900   6.912  20.657  0.00  0.00    +0.222 C 
ATOM     21  O3  UNL     1      10.251   5.945  21.141  0.00  0.00    -0.275 OA
ATOM     22  N3  UNL     1      12.332   6.837  20.553  0.00  0.00    -0.285 N 
ATOM     23  H14 UNL     1      12.865   7.731  20.453  0.00  0.00    +0.155 HD
BRANCH  22  24
ATOM     24  C13 UNL     1      13.083   5.615  20.656  0.00  0.00    +0.034 A 
ATOM     25  C14 UNL     1      13.387   4.840  19.520  0.00  0.00    +0.026 A 
ATOM     26  C15 UNL     1      14.129   3.662  19.648  0.00  0.00    +0.040 A 
ATOM     27  C16 UNL     1      14.585   3.253  20.904  0.00  0.00    +0.124 A 
ATOM     28  F1  UNL     1      15.298   2.105  21.027  0.00  0.00    -0.205 F 
ATOM     29  C17 UNL     1      14.309   4.028  22.034  0.00  0.00    +0.040 A 
ATOM     30  C18 UNL     1      13.569   5.209  21.910  0.00  0.00    +0.026 A 
ENDBRANCH  22  24
ENDBRANCH   7  20
TORSDOF 4
ENDMDL
