REMARK  Name = /home/qwerty/github/datacon2025hack/step_04_hit_selection/docking/ligands/lig_514.pdb
REMARK  9 active torsions:
REMARK  status: ('A' for Active; 'I' for Inactive)
REMARK    1  A    between atoms: C1_1  and  O1_2
REMARK    2  A    between atoms: O1_2  and  C2_3
REMARK    3  A    between atoms: C7_9  and  C8_10
REMARK    4  A    between atoms: C8_10  and  C9_11
REMARK    5  A    between atoms: C8_10  and  N1_12
REMARK    6  A    between atoms: C10_13  and  C11_15
REMARK    7  A    between atoms: C14_18  and  C15_19
REMARK    8  A    between atoms: N2_21  and  C16_22
REMARK    9  A    between atoms: C16_22  and  C17_23
REMARK                            x       y       z     vdW  Elec       q    Type
REMARK                         _______ _______ _______ _____ _____    ______ ____
ROOT
ATOM      1  C11 UNL     1      -0.574  -0.068   1.412  0.00  0.00    +0.037 A 
ATOM      2  C12 UNL     1      -0.042  -1.089   0.605  0.00  0.00    +0.014 A 
ATOM      3  C13 UNL     1       1.336  -1.174   0.383  0.00  0.00    +0.014 A 
ATOM      4  C14 UNL     1       2.211  -0.232   0.952  0.00  0.00    +0.037 A 
ATOM      5  C21 UNL     1       1.678   0.787   1.759  0.00  0.00    +0.014 A 
ATOM      6  C22 UNL     1       0.301   0.873   1.979  0.00  0.00    +0.014 A 
ENDROOT
BRANCH   1   8
ATOM      7  N1  UNL     1      -2.887  -1.113   1.546  0.00  0.00    -0.305 N 
ATOM      8  C10 UNL     1      -2.033   0.039   1.645  0.00  0.00    +0.245 C 
ATOM      9  O2  UNL     1      -2.532   1.159   1.942  0.00  0.00    -0.270 OA
ATOM     10  H11 UNL     1      -2.456  -2.065   1.536  0.00  0.00    +0.150 HD
BRANCH   7  11
ATOM     11  C8  UNL     1      -4.349  -0.990   1.502  0.00  0.00    +0.104 C 
ATOM     12  C9  UNL     1      -5.011  -2.364   1.642  0.00  0.00    +0.033 C 
BRANCH  11  19
ATOM     13  C2  UNL     1      -5.792   0.663   0.197  0.00  0.00    +0.125 A 
ATOM     14  C3  UNL     1      -6.184   1.238  -1.029  0.00  0.00    +0.049 A 
ATOM     15  C4  UNL     1      -5.598   0.823  -2.226  0.00  0.00    +0.042 A 
ATOM     16  C5  UNL     1      -4.622  -0.172  -2.221  0.00  0.00    +0.124 A 
ATOM     17  F1  UNL     1      -4.063  -0.579  -3.387  0.00  0.00    -0.205 F 
ATOM     18  C6  UNL     1      -4.222  -0.751  -1.016  0.00  0.00    +0.047 A 
ATOM     19  C7  UNL     1      -4.787  -0.332   0.205  0.00  0.00    +0.017 A 
BRANCH  13  21
ATOM     20  C1  UNL     1      -7.396   2.041   1.540  0.00  0.00    +0.277 C 
ATOM     21  O1  UNL     1      -6.378   1.054   1.412  0.00  0.00    -0.495 OA
ENDBRANCH  13  21
ENDBRANCH  11  19
ENDBRANCH   7  11
ENDBRANCH   1   8
BRANCH   4  22
ATOM     22  C15 UNL     1       3.675  -0.312   0.730  0.00  0.00    +0.244 C 
ATOM     23  O3  UNL     1       4.455   0.203   1.577  0.00  0.00    -0.270 OA
ATOM     24  N2  UNL     1       4.214  -0.944  -0.444  0.00  0.00    -0.309 N 
ATOM     25  H14 UNL     1       3.576  -1.206  -1.228  0.00  0.00    +0.149 HD
BRANCH  24  26
ATOM     26  C16 UNL     1       5.647  -1.169  -0.642  0.00  0.00    +0.136 C 
BRANCH  26  27
ATOM     27  C17 UNL     1       6.174  -0.336  -1.821  0.00  0.00    +0.135 C 
ATOM     28  C18 UNL     1       6.144   1.164  -1.534  0.00  0.00    +0.035 C 
ATOM     29  C19 UNL     1       7.564   1.472  -1.179  0.00  0.00    +0.031 C 
ATOM     30  C20 UNL     1       8.334   0.397  -1.912  0.00  0.00    +0.160 C 
ATOM     31  O4  UNL     1       7.503  -0.725  -2.099  0.00  0.00    -0.375 OA
ENDBRANCH  26  27
ENDBRANCH  24  26
ENDBRANCH   4  22
TORSDOF 7
