REMARK  Name = /home/qwerty/github/datacon2025hack/step_04_hit_selection/docking/ligands/lig_408.pdb
REMARK  4 active torsions:
REMARK  status: ('A' for Active; 'I' for Inactive)
REMARK    1  A    between atoms: C1_2  and  C12_16
REMARK    2  A    between atoms: N1_3  and  C2_4
REMARK    3  A    between atoms: C5_7  and  N2_8
REMARK    4  A    between atoms: C15_19  and  C16_20
REMARK                            x       y       z     vdW  Elec       q    Type
REMARK                         _______ _______ _______ _____ _____    ______ ____
ROOT
ATOM      1  O1  UNL     1      -0.193   2.282  -0.089  0.00  0.00    -0.270 OA
ATOM      2  C1  UNL     1       0.115   1.169  -0.598  0.00  0.00    +0.248 C 
ATOM      3  N1  UNL     1      -0.900   0.376  -1.235  0.00  0.00    -0.282 N 
ATOM      4  H1  UNL     1      -0.619  -0.220  -2.047  0.00  0.00    +0.155 HD
ENDROOT
BRANCH   3   5
ATOM      5  C2  UNL     1      -2.296   0.446  -0.898  0.00  0.00    +0.034 A 
ATOM      6  C3  UNL     1      -2.719   0.768   0.404  0.00  0.00    +0.025 A 
ATOM      7  C4  UNL     1      -4.080   0.792   0.720  0.00  0.00    +0.025 A 
ATOM      8  C5  UNL     1      -5.043   0.489  -0.257  0.00  0.00    +0.030 A 
ATOM      9  C10 UNL     1      -4.619   0.150  -1.552  0.00  0.00    +0.025 A 
ATOM     10  C11 UNL     1      -3.257   0.123  -1.866  0.00  0.00    +0.025 A 
BRANCH   8  11
ATOM     11  N2  UNL     1      -6.447   0.498   0.065  0.00  0.00    -0.326 N 
ATOM     12  C6  UNL     1      -6.913  -0.014   1.357  0.00  0.00    +0.133 C 
ATOM     13  C7  UNL     1      -8.346  -0.534   1.218  0.00  0.00    +0.178 C 
ATOM     14  O2  UNL     1      -9.185   0.449   0.642  0.00  0.00    -0.377 OA
ATOM     15  C8  UNL     1      -8.771   0.716  -0.685  0.00  0.00    +0.178 C 
ATOM     16  C9  UNL     1      -7.370   1.337  -0.706  0.00  0.00    +0.133 C 
ENDBRANCH   8  11
ENDBRANCH   3   5
BRANCH   2  17
ATOM     17  C12 UNL     1       1.526   0.715  -0.567  0.00  0.00    +0.037 A 
ATOM     18  C13 UNL     1       1.853  -0.637  -0.768  0.00  0.00    +0.013 A 
ATOM     19  C14 UNL     1       3.184  -1.062  -0.713  0.00  0.00    +0.009 A 
ATOM     20  C15 UNL     1       4.217  -0.146  -0.451  0.00  0.00    -0.018 A 
ATOM     21  C24 UNL     1       3.889   1.206  -0.248  0.00  0.00    +0.009 A 
ATOM     22  C25 UNL     1       2.559   1.631  -0.302  0.00  0.00    +0.013 A 
BRANCH  20  23
ATOM     23  C16 UNL     1       5.629  -0.600  -0.380  0.00  0.00    -0.017 A 
ATOM     24  C17 UNL     1       6.120  -1.572  -1.295  0.00  0.00    +0.010 A 
ATOM     25  C18 UNL     1       7.455  -2.011  -1.235  0.00  0.00    +0.027 A 
ATOM     26  C19 UNL     1       8.277  -1.465  -0.253  0.00  0.00    +0.046 A 
ATOM     27  N3  UNL     1       9.569  -1.747  -0.019  0.00  0.00    -0.361 N 
ATOM     28  C20 UNL     1       9.930  -0.978   1.033  0.00  0.00    +0.083 A 
ATOM     29  C21 UNL     1       8.860  -0.203   1.469  0.00  0.00    +0.027 A 
ATOM     30  C22 UNL     1       7.815  -0.530   0.632  0.00  0.00    +0.000 A 
ATOM     31  C23 UNL     1       6.501  -0.072   0.603  0.00  0.00    +0.018 A 
ATOM     32  H18 UNL     1      10.172  -2.422  -0.539  0.00  0.00    +0.165 HD
ENDBRANCH  20  23
ENDBRANCH   2  17
TORSDOF 4
