REMARK  Name = /home/qwerty/github/datacon2025hack/step_04_hit_selection/docking/ligands/lig_672.pdb
REMARK  3 active torsions:
REMARK  status: ('A' for Active; 'I' for Inactive)
REMARK    1  A    between atoms: C1_2  and  C14_19
REMARK    2  A    between atoms: N1_3  and  C2_4
REMARK    3  A    between atoms: C4_7  and  C5_9
REMARK                            x       y       z     vdW  Elec       q    Type
REMARK                         _______ _______ _______ _____ _____    ______ ____
ROOT
ATOM      1  C2  UNL     1       2.537   1.883   0.112  0.00  0.00    +0.108 C 
ATOM      2  C3  UNL     1       1.374   2.342   0.937  0.00  0.00    +0.132 C 
ATOM      3  N2  UNL     1       0.342   1.618   0.171  0.00  0.00    -0.294 N 
ATOM      4  C4  UNL     1      -1.071   1.434   0.284  0.00  0.00    +0.248 C 
ATOM      5  O2  UNL     1      -1.688   2.049   1.193  0.00  0.00    -0.270 OA
ATOM      6  C13 UNL     1       1.476   1.162  -0.658  0.00  0.00    +0.132 C 
ENDROOT
BRANCH   4   7
ATOM      7  C5  UNL     1      -1.816   0.532  -0.625  0.00  0.00    +0.058 A 
ATOM      8  C6  UNL     1      -1.361  -0.010  -1.820  0.00  0.00    +0.032 A 
ATOM      9  C7  UNL     1      -2.399  -0.755  -2.345  0.00  0.00    +0.086 A 
ATOM     10  N3  UNL     1      -3.467  -0.681  -1.531  0.00  0.00    -0.350 N 
ATOM     11  C8  UNL     1      -3.120   0.075  -0.472  0.00  0.00    +0.031 A 
ATOM     12  C9  UNL     1      -4.086   0.407   0.633  0.00  0.00    +0.054 C 
ATOM     13  C10 UNL     1      -5.281  -0.560   0.625  0.00  0.00    +0.008 C 
ATOM     14  C11 UNL     1      -5.820  -0.773  -0.797  0.00  0.00    +0.022 C 
ATOM     15  C12 UNL     1      -4.739  -1.385  -1.699  0.00  0.00    +0.121 C 
ENDBRANCH   4   7
BRANCH   1  18
ATOM     16  O1  UNL     1       4.643   0.452  -1.115  0.00  0.00    -0.268 OA
ATOM     17  C1  UNL     1       4.472   0.256   0.119  0.00  0.00    +0.264 C 
ATOM     18  N1  UNL     1       3.439   0.969   0.819  0.00  0.00    -0.304 N 
ATOM     19  H1  UNL     1       3.362   0.869   1.855  0.00  0.00    +0.149 HD
BRANCH  17  20
ATOM     20  C14 UNL     1       5.339  -0.711   0.815  0.00  0.00    +0.147 A 
ATOM     21  C15 UNL     1       5.267  -1.093   2.145  0.00  0.00    +0.054 A 
ATOM     22  C16 UNL     1       6.277  -2.019   2.290  0.00  0.00    +0.105 A 
ATOM     23  N4  UNL     1       6.900  -2.167   1.109  0.00  0.00    -0.284 N 
ATOM     24  N5  UNL     1       6.338  -1.380   0.206  0.00  0.00    -0.169 NA
ATOM     25  H19 UNL     1       7.703  -2.805   0.914  0.00  0.00    +0.188 HD
ENDBRANCH  17  20
ENDBRANCH   1  18
TORSDOF 3
