REMARK  Name = /home/qwerty/github/datacon2025hack/step_04_hit_selection/docking/ligands/lig_749.pdb
REMARK  6 active torsions:
REMARK  status: ('A' for Active; 'I' for Inactive)
REMARK    1  A    between atoms: C1_1  and  C2_2
REMARK    2  A    between atoms: C2_2  and  N1_3
REMARK    3  A    between atoms: C2_2  and  C13_17
REMARK    4  A    between atoms: C3_4  and  C4_6
REMARK    5  A    between atoms: C7_9  and  N2_10
REMARK    6  A    between atoms: C17_22  and  C18_23
REMARK                            x       y       z     vdW  Elec       q    Type
REMARK                         _______ _______ _______ _____ _____    ______ ____
ROOT
ATOM      1  C1  UNL     1       1.273   2.730   3.493  0.00  0.00    +0.033 C 
ATOM      2  C2  UNL     1       0.990   1.354   2.881  0.00  0.00    +0.100 C 
ENDROOT
BRANCH   2   3
ATOM      3  C13 UNL     1       1.930   1.096   1.723  0.00  0.00    -0.025 A 
ATOM      4  C14 UNL     1       1.746   1.765   0.481  0.00  0.00    +0.007 A 
ATOM      5  C15 UNL     1       2.625   1.537  -0.594  0.00  0.00    +0.028 A 
ATOM      6  C16 UNL     1       3.673   0.645  -0.391  0.00  0.00    +0.066 A 
ATOM      7  N4  UNL     1       4.626   0.273  -1.254  0.00  0.00    -0.338 N 
ATOM      8  C17 UNL     1       5.386  -0.605  -0.546  0.00  0.00    +0.141 A 
ATOM      9  N6  UNL     1       4.941  -0.793   0.727  0.00  0.00    -0.228 NA
ATOM     10  C23 UNL     1       3.863   0.007   0.794  0.00  0.00    +0.090 A 
ATOM     11  C24 UNL     1       3.017   0.205   1.882  0.00  0.00    +0.035 A 
ATOM     12  H19 UNL     1       4.734   0.596  -2.240  0.00  0.00    +0.167 HD
BRANCH   8  13
ATOM     13  C18 UNL     1       6.582  -1.302  -1.085  0.00  0.00    +0.035 A 
ATOM     14  C19 UNL     1       7.281  -2.223  -0.285  0.00  0.00    +0.014 A 
ATOM     15  C20 UNL     1       8.406  -2.880  -0.786  0.00  0.00    +0.020 A 
ATOM     16  C21 UNL     1       8.831  -2.613  -2.087  0.00  0.00    +0.111 A 
ATOM     17  N5  UNL     1       8.152  -1.721  -2.853  0.00  0.00    -0.263 NA
ATOM     18  C22 UNL     1       7.053  -1.067  -2.391  0.00  0.00    +0.122 A 
ENDBRANCH   8  13
ENDBRANCH   2   3
BRANCH   2  19
ATOM     19  N1  UNL     1      -0.405   1.262   2.435  0.00  0.00    -0.305 N 
ATOM     20  C3  UNL     1      -0.985   0.014   2.019  0.00  0.00    +0.246 C 
ATOM     21  O1  UNL     1      -0.374  -1.065   2.253  0.00  0.00    -0.270 OA
ATOM     22  H5  UNL     1      -1.002   2.119   2.452  0.00  0.00    +0.150 HD
BRANCH  20  23
ATOM     23  C4  UNL     1      -2.295  -0.028   1.328  0.00  0.00    +0.055 A 
ATOM     24  C5  UNL     1      -3.074  -1.195   1.354  0.00  0.00    +0.018 A 
ATOM     25  C6  UNL     1      -4.304  -1.238   0.696  0.00  0.00    +0.044 A 
ATOM     26  C7  UNL     1      -4.755  -0.108  -0.004  0.00  0.00    +0.121 A 
ATOM     27  N3  UNL     1      -3.977   1.010  -0.028  0.00  0.00    -0.240 NA
ATOM     28  C12 UNL     1      -2.778   1.077   0.608  0.00  0.00    +0.126 A 
BRANCH  26  29
ATOM     29  N2  UNL     1      -6.019  -0.108  -0.697  0.00  0.00    -0.315 N 
ATOM     30  C8  UNL     1      -6.894  -1.263  -0.817  0.00  0.00    +0.106 C 
ATOM     31  C9  UNL     1      -8.015  -0.835  -1.756  0.00  0.00    +0.020 C 
ATOM     32  C10 UNL     1      -7.955   0.689  -1.813  0.00  0.00    +0.020 C 
ATOM     33  C11 UNL     1      -6.551   1.068  -1.362  0.00  0.00    +0.106 C 
ENDBRANCH  26  29
ENDBRANCH  20  23
ENDBRANCH   2  19
TORSDOF 5
