REMARK  Name = /home/qwerty/github/datacon2025hack/step_04_hit_selection/docking/ligands/lig_626.pdb
REMARK  11 active torsions:
REMARK  status: ('A' for Active; 'I' for Inactive)
REMARK    1  A    between atoms: C1_1  and  O1_2
REMARK    2  A    between atoms: O1_2  and  C2_3
REMARK    3  A    between atoms: C5_6  and  S1_7
REMARK    4  A    between atoms: S1_7  and  N1_10
REMARK    5  A    between atoms: C11_17  and  N2_18
REMARK    6  A    between atoms: C12_19  and  C13_21
REMARK    7  A    between atoms: C13_21  and  N3_22
REMARK    8  A    between atoms: N3_22  and  C14_23
REMARK    9  A    between atoms: N3_22  and  S2_30
REMARK   10  A    between atoms: S2_30  and  C20_33
REMARK   11  A    between atoms: C23_36  and  C24_37
REMARK                            x       y       z     vdW  Elec       q    Type
REMARK                         _______ _______ _______ _____ _____    ______ ____
ROOT
ATOM      1  N2  UNL     1       0.020   0.345   0.504  0.00  0.00    -0.281 N 
ATOM      2  C12 UNL     1      -0.531  -0.686  -0.333  0.00  0.00    +0.236 C 
ATOM      3  O5  UNL     1       0.089  -1.089  -1.354  0.00  0.00    -0.274 OA
ATOM      4  H15 UNL     1      -0.614   0.779   1.212  0.00  0.00    +0.155 HD
ENDROOT
BRANCH   1  10
ATOM      5  C2  UNL     1       1.466   2.343   0.510  0.00  0.00    +0.141 A 
ATOM      6  C3  UNL     1       2.719   2.942   0.270  0.00  0.00    +0.049 A 
ATOM      7  C4  UNL     1       3.794   2.177  -0.188  0.00  0.00    +0.032 A 
ATOM      8  C5  UNL     1       3.640   0.801  -0.396  0.00  0.00    +0.107 A 
ATOM      9  C10 UNL     1       2.403   0.196  -0.148  0.00  0.00    +0.055 A 
ATOM     10  C11 UNL     1       1.301   0.962   0.273  0.00  0.00    +0.077 A 
BRANCH   8  11
ATOM     11  S1  UNL     1       4.990  -0.192  -0.941  0.00  0.00    +0.061 S 
ATOM     12  O2  UNL     1       4.527  -0.992  -2.127  0.00  0.00    -0.153 OA
ATOM     13  O3  UNL     1       6.138   0.679  -1.372  0.00  0.00    -0.153 OA
BRANCH  11  14
ATOM     14  N1  UNL     1       5.466  -1.266   0.356  0.00  0.00    -0.172 NA
ATOM     15  C6  UNL     1       5.966  -0.537   1.538  0.00  0.00    +0.137 C 
ATOM     16  C7  UNL     1       7.448  -0.149   1.403  0.00  0.00    +0.177 C 
ATOM     17  O4  UNL     1       8.243  -1.278   1.102  0.00  0.00    -0.377 OA
ATOM     18  C8  UNL     1       7.852  -1.806  -0.148  0.00  0.00    +0.177 C 
ATOM     19  C9  UNL     1       6.403  -2.312  -0.093  0.00  0.00    +0.137 C 
ENDBRANCH  11  14
ENDBRANCH   8  11
BRANCH   5  21
ATOM     20  C1  UNL     1       0.410   4.466   1.317  0.00  0.00    +0.277 C 
ATOM     21  O1  UNL     1       0.368   3.085   0.978  0.00  0.00    -0.493 OA
ENDBRANCH   5  21
ENDBRANCH   1  10
BRANCH   2  22
ATOM     22  C13 UNL     1      -1.893  -1.240  -0.049  0.00  0.00    +0.227 C 
BRANCH  22  23
ATOM     23  N3  UNL     1      -2.815  -0.858  -1.119  0.00  0.00    -0.194 N 
BRANCH  23  24
ATOM     24  C14 UNL     1      -3.132  -1.782  -2.169  0.00  0.00    +0.052 A 
ATOM     25  C15 UNL     1      -3.773  -2.995  -1.869  0.00  0.00    +0.026 A 
ATOM     26  C16 UNL     1      -4.089  -3.895  -2.892  0.00  0.00    +0.022 A 
ATOM     27  C17 UNL     1      -3.766  -3.591  -4.218  0.00  0.00    +0.041 A 
ATOM     28 CL1  UNL     1      -4.165  -4.722  -5.501  0.00  0.00    -0.084 Cl
ATOM     29  C18 UNL     1      -3.123  -2.385  -4.523  0.00  0.00    +0.022 A 
ATOM     30  C19 UNL     1      -2.809  -1.481  -3.503  0.00  0.00    +0.026 A 
ENDBRANCH  23  24
BRANCH  23  31
ATOM     31  S2  UNL     1      -3.482   0.748  -1.138  0.00  0.00    +0.075 S 
ATOM     32  O6  UNL     1      -2.366   1.759  -1.167  0.00  0.00    -0.150 OA
ATOM     33  O7  UNL     1      -4.343   0.942  -2.358  0.00  0.00    -0.150 OA
BRANCH  31  34
ATOM     34  C20 UNL     1      -4.479   0.957   0.294  0.00  0.00    +0.109 A 
ATOM     35  C21 UNL     1      -4.135   1.891   1.282  0.00  0.00    +0.029 A 
ATOM     36  C22 UNL     1      -4.929   2.026   2.427  0.00  0.00    +0.005 A 
ATOM     37  C23 UNL     1      -6.063   1.215   2.600  0.00  0.00    -0.050 A 
ATOM     38  C24 UNL     1      -6.937   1.383   3.807  0.00  0.00    +0.044 C 
ATOM     39  C25 UNL     1      -6.408   0.288   1.603  0.00  0.00    +0.005 A 
ATOM     40  C26 UNL     1      -5.616   0.156   0.460  0.00  0.00    +0.029 A 
ENDBRANCH  31  34
ENDBRANCH  23  31
ENDBRANCH  22  23
ENDBRANCH   2  22
TORSDOF 9
