MODEL 1
REMARK VINA RESULT:    -6.077      0.000      0.000
REMARK INTER + INTRA:          -8.080
REMARK INTER:                  -7.498
REMARK INTRA:                  -0.582
REMARK UNBOUND:                -0.582
REMARK  Name = /home/qwerty/github/datacon2025hack/step_04_hit_selection/docking/ligands/lig_303.pdb
REMARK  5 active torsions:
REMARK  status: ('A' for Active; 'I' for Inactive)
REMARK    1  A    between atoms: C1_1  and  N1_2
REMARK    2  A    between atoms: N2_5  and  C4_6
REMARK    3  A    between atoms: C7_9  and  N3_10
REMARK    4  A    between atoms: C8_11  and  C9_13
REMARK    5  A    between atoms: C12_16  and  C13_17
REMARK                            x       y       z     vdW  Elec       q    Type
REMARK                         _______ _______ _______ _____ _____    ______ ____
ROOT
ATOM      1  N3  UNL     1      20.674  13.463  29.618  0.00  0.00    -0.265 N 
ATOM      2  C8  UNL     1      21.831  14.294  29.408  0.00  0.00    +0.268 C 
ATOM      3  O1  UNL     1      22.492  14.724  30.393  0.00  0.00    -0.268 OA
ATOM      4  H10 UNL     1      20.155  13.119  28.779  0.00  0.00    +0.157 HD
ENDROOT
BRANCH   1   8
ATOM      5  C4  UNL     1      19.212  12.293  33.438  0.00  0.00    +0.048 A 
ATOM      6  C5  UNL     1      18.991  13.600  32.945  0.00  0.00    +0.028 A 
ATOM      7  C6  UNL     1      19.467  13.983  31.693  0.00  0.00    +0.045 A 
ATOM      8  C7  UNL     1      20.180  13.070  30.911  0.00  0.00    +0.125 A 
ATOM      9  N5  UNL     1      20.399  11.819  31.393  0.00  0.00    -0.238 NA
ATOM     10  C20 UNL     1      19.946  11.414  32.609  0.00  0.00    +0.136 A 
BRANCH   5  15
ATOM     11  C1  UNL     1      16.887  10.168  38.190  0.00  0.00    +0.105 C 
ATOM     12  N1  UNL     1      17.403  10.611  36.885  0.00  0.00    -0.302 NA
ATOM     13  C2  UNL     1      17.077  12.025  36.674  0.00  0.00    +0.103 C 
ATOM     14  C3  UNL     1      17.452  12.456  35.254  0.00  0.00    +0.120 C 
ATOM     15  N2  UNL     1      18.717  11.875  34.749  0.00  0.00    -0.326 N 
ATOM     16  C21 UNL     1      19.400  10.764  35.450  0.00  0.00    +0.120 C 
ATOM     17  C22 UNL     1      18.864  10.472  36.854  0.00  0.00    +0.103 C 
ENDBRANCH   5  15
ENDBRANCH   1   8
BRANCH   2  18
ATOM     18  C9  UNL     1      22.260  14.651  28.036  0.00  0.00    +0.126 A 
ATOM     19  C10 UNL     1      23.282  13.939  27.388  0.00  0.00    +0.033 A 
ATOM     20  C11 UNL     1      23.662  14.300  26.095  0.00  0.00    +0.012 A 
ATOM     21  C12 UNL     1      23.029  15.371  25.444  0.00  0.00    +0.000 A 
ATOM     22  C19 UNL     1      22.012  16.056  26.128  0.00  0.00    +0.120 A 
ATOM     23  N4  UNL     1      21.657  15.684  27.386  0.00  0.00    -0.250 NA
BRANCH  21  24
ATOM     24  C13 UNL     1      23.424  15.767  24.068  0.00  0.00    -0.016 A 
ATOM     25  C14 UNL     1      24.776  15.745  23.678  0.00  0.00    +0.011 A 
ATOM     26  C15 UNL     1      25.146  16.118  22.381  0.00  0.00    +0.039 A 
ATOM     27  C16 UNL     1      24.173  16.517  21.461  0.00  0.00    +0.123 A 
ATOM     28  F1  UNL     1      24.535  16.879  20.206  0.00  0.00    -0.205 F 
ATOM     29  C17 UNL     1      22.828  16.544  21.837  0.00  0.00    +0.039 A 
ATOM     30  C18 UNL     1      22.453  16.171  23.132  0.00  0.00    +0.011 A 
ENDBRANCH  21  24
ENDBRANCH   2  18
TORSDOF 4
ENDMDL
MODEL 2
REMARK VINA RESULT:    -6.040      4.222     12.240
REMARK INTER + INTRA:          -8.034
REMARK INTER:                  -7.376
REMARK INTRA:                  -0.658
REMARK UNBOUND:                -0.582
REMARK  Name = /home/qwerty/github/datacon2025hack/step_04_hit_selection/docking/ligands/lig_303.pdb
REMARK  5 active torsions:
REMARK  status: ('A' for Active; 'I' for Inactive)
REMARK    1  A    between atoms: C1_1  and  N1_2
REMARK    2  A    between atoms: N2_5  and  C4_6
REMARK    3  A    between atoms: C7_9  and  N3_10
REMARK    4  A    between atoms: C8_11  and  C9_13
REMARK    5  A    between atoms: C12_16  and  C13_17
REMARK                            x       y       z     vdW  Elec       q    Type
REMARK                         _______ _______ _______ _____ _____    ______ ____
ROOT
ATOM      1  N3  UNL     1      21.091  14.528  27.977  0.00  0.00    -0.265 N 
ATOM      2  C8  UNL     1      20.776  15.461  29.028  0.00  0.00    +0.268 C 
ATOM      3  O1  UNL     1      21.017  16.690  28.880  0.00  0.00    -0.268 OA
ATOM      4  H10 UNL     1      20.872  13.518  28.131  0.00  0.00    +0.157 HD
ENDROOT
BRANCH   1   8
ATOM      5  C4  UNL     1      22.851  15.602  24.256  0.00  0.00    +0.048 A 
ATOM      6  C5  UNL     1      23.655  15.244  25.363  0.00  0.00    +0.028 A 
ATOM      7  C6  UNL     1      23.079  14.890  26.582  0.00  0.00    +0.045 A 
ATOM      8  C7  UNL     1      21.689  14.893  26.720  0.00  0.00    +0.125 A 
ATOM      9  N5  UNL     1      20.921  15.246  25.656  0.00  0.00    -0.238 NA
ATOM     10  C20 UNL     1      21.451  15.595  24.455  0.00  0.00    +0.136 A 
BRANCH   5  15
ATOM     11  C1  UNL     1      25.082  16.350  19.063  0.00  0.00    +0.105 C 
ATOM     12  N1  UNL     1      24.492  16.006  20.367  0.00  0.00    -0.302 NA
ATOM     13  C2  UNL     1      25.426  16.349  21.443  0.00  0.00    +0.103 C 
ATOM     14  C3  UNL     1      24.904  15.842  22.789  0.00  0.00    +0.120 C 
ATOM     15  N2  UNL     1      23.440  15.974  22.970  0.00  0.00    -0.326 N 
ATOM     16  C21 UNL     1      22.541  16.305  21.841  0.00  0.00    +0.120 C 
ATOM     17  C22 UNL     1      23.259  16.775  20.573  0.00  0.00    +0.103 C 
ENDBRANCH   5  15
ENDBRANCH   1   8
BRANCH   2  18
ATOM     18  C9  UNL     1      20.167  14.988  30.293  0.00  0.00    +0.126 A 
ATOM     19  C10 UNL     1      19.356  15.833  31.066  0.00  0.00    +0.033 A 
ATOM     20  C11 UNL     1      18.797  15.357  32.253  0.00  0.00    +0.012 A 
ATOM     21  C12 UNL     1      19.043  14.040  32.674  0.00  0.00    +0.000 A 
ATOM     22  C19 UNL     1      19.860  13.229  31.870  0.00  0.00    +0.120 A 
ATOM     23  N4  UNL     1      20.392  13.714  30.718  0.00  0.00    -0.250 NA
BRANCH  21  24
ATOM     24  C13 UNL     1      18.455  13.521  33.935  0.00  0.00    -0.016 A 
ATOM     25  C14 UNL     1      17.130  13.838  34.290  0.00  0.00    +0.011 A 
ATOM     26  C15 UNL     1      16.578  13.346  35.478  0.00  0.00    +0.039 A 
ATOM     27  C16 UNL     1      17.340  12.537  36.324  0.00  0.00    +0.123 A 
ATOM     28  F1  UNL     1      16.803  12.063  37.475  0.00  0.00    -0.205 F 
ATOM     29  C17 UNL     1      18.656  12.216  35.982  0.00  0.00    +0.039 A 
ATOM     30  C18 UNL     1      19.213  12.703  34.795  0.00  0.00    +0.011 A 
ENDBRANCH  21  24
ENDBRANCH   2  18
TORSDOF 4
ENDMDL
MODEL 3
REMARK VINA RESULT:    -5.980     11.746     15.001
REMARK INTER + INTRA:          -7.960
REMARK INTER:                  -7.338
REMARK INTRA:                  -0.622
REMARK UNBOUND:                -0.582
REMARK  Name = /home/qwerty/github/datacon2025hack/step_04_hit_selection/docking/ligands/lig_303.pdb
REMARK  5 active torsions:
REMARK  status: ('A' for Active; 'I' for Inactive)
REMARK    1  A    between atoms: C1_1  and  N1_2
REMARK    2  A    between atoms: N2_5  and  C4_6
REMARK    3  A    between atoms: C7_9  and  N3_10
REMARK    4  A    between atoms: C8_11  and  C9_13
REMARK    5  A    between atoms: C12_16  and  C13_17
REMARK                            x       y       z     vdW  Elec       q    Type
REMARK                         _______ _______ _______ _____ _____    ______ ____
ROOT
ATOM      1  N3  UNL     1      19.274   3.015  27.845  0.00  0.00    -0.265 N 
ATOM      2  C8  UNL     1      20.679   3.182  28.109  0.00  0.00    +0.268 C 
ATOM      3  O1  UNL     1      21.535   2.796  27.265  0.00  0.00    -0.268 OA
ATOM      4  H10 UNL     1      18.593   3.352  28.562  0.00  0.00    +0.157 HD
ENDROOT
BRANCH   1   8
ATOM      5  C4  UNL     1      17.681   1.242  24.320  0.00  0.00    +0.048 A 
ATOM      6  C5  UNL     1      17.989   0.454  25.454  0.00  0.00    +0.028 A 
ATOM      7  C6  UNL     1      18.508   1.035  26.610  0.00  0.00    +0.045 A 
ATOM      8  C7  UNL     1      18.736   2.413  26.653  0.00  0.00    +0.125 A 
ATOM      9  N5  UNL     1      18.449   3.164  25.558  0.00  0.00    -0.238 NA
ATOM     10  C20 UNL     1      17.941   2.629  24.417  0.00  0.00    +0.136 A 
BRANCH   5  15
ATOM     11  C1  UNL     1      16.204  -0.954  19.271  0.00  0.00    +0.105 C 
ATOM     12  N1  UNL     1      16.726  -0.361  20.512  0.00  0.00    -0.302 NA
ATOM     13  C2  UNL     1      15.922   0.809  20.882  0.00  0.00    +0.103 C 
ATOM     14  C3  UNL     1      16.552   1.538  22.070  0.00  0.00    +0.120 C 
ATOM     15  N2  UNL     1      17.134   0.648  23.101  0.00  0.00    -0.326 N 
ATOM     16  C21 UNL     1      17.333  -0.799  22.859  0.00  0.00    +0.120 C 
ATOM     17  C22 UNL     1      16.638  -1.336  21.606  0.00  0.00    +0.103 C 
ENDBRANCH   5  15
ENDBRANCH   1   8
BRANCH   2  18
ATOM     18  C9  UNL     1      21.136   3.809  29.370  0.00  0.00    +0.126 A 
ATOM     19  C10 UNL     1      21.350   5.194  29.454  0.00  0.00    +0.033 A 
ATOM     20  C11 UNL     1      21.781   5.754  30.658  0.00  0.00    +0.012 A 
ATOM     21  C12 UNL     1      22.002   4.939  31.780  0.00  0.00    +0.000 A 
ATOM     22  C19 UNL     1      21.776   3.559  31.652  0.00  0.00    +0.120 A 
ATOM     23  N4  UNL     1      21.354   3.037  30.470  0.00  0.00    -0.250 NA
BRANCH  21  24
ATOM     24  C13 UNL     1      22.461   5.521  33.066  0.00  0.00    -0.016 A 
ATOM     25  C14 UNL     1      21.545   5.774  34.105  0.00  0.00    +0.011 A 
ATOM     26  C15 UNL     1      21.980   6.322  35.316  0.00  0.00    +0.039 A 
ATOM     27  C16 UNL     1      23.331   6.625  35.504  0.00  0.00    +0.123 A 
ATOM     28  F1  UNL     1      23.750   7.157  36.678  0.00  0.00    -0.205 F 
ATOM     29  C17 UNL     1      24.250   6.379  34.481  0.00  0.00    +0.039 A 
ATOM     30  C18 UNL     1      23.820   5.830  33.268  0.00  0.00    +0.011 A 
ENDBRANCH  21  24
ENDBRANCH   2  18
TORSDOF 4
ENDMDL
MODEL 4
REMARK VINA RESULT:    -5.937     11.069     12.315
REMARK INTER + INTRA:          -7.907
REMARK INTER:                  -7.272
REMARK INTRA:                  -0.635
REMARK UNBOUND:                -0.582
REMARK  Name = /home/qwerty/github/datacon2025hack/step_04_hit_selection/docking/ligands/lig_303.pdb
REMARK  5 active torsions:
REMARK  status: ('A' for Active; 'I' for Inactive)
REMARK    1  A    between atoms: C1_1  and  N1_2
REMARK    2  A    between atoms: N2_5  and  C4_6
REMARK    3  A    between atoms: C7_9  and  N3_10
REMARK    4  A    between atoms: C8_11  and  C9_13
REMARK    5  A    between atoms: C12_16  and  C13_17
REMARK                            x       y       z     vdW  Elec       q    Type
REMARK                         _______ _______ _______ _____ _____    ______ ____
ROOT
ATOM      1  N3  UNL     1      17.935   8.530  20.147  0.00  0.00    -0.265 N 
ATOM      2  C8  UNL     1      17.661   9.797  19.520  0.00  0.00    +0.268 C 
ATOM      3  O1  UNL     1      16.499  10.061  19.103  0.00  0.00    -0.268 OA
ATOM      4  H10 UNL     1      18.906   8.347  20.487  0.00  0.00    +0.157 HD
ENDROOT
BRANCH   1   8
ATOM      5  C4  UNL     1      15.049   5.459  20.730  0.00  0.00    +0.048 A 
ATOM      6  C5  UNL     1      15.956   5.407  19.646  0.00  0.00    +0.028 A 
ATOM      7  C6  UNL     1      16.903   6.412  19.456  0.00  0.00    +0.045 A 
ATOM      8  C7  UNL     1      16.958   7.491  20.342  0.00  0.00    +0.125 A 
ATOM      9  N5  UNL     1      16.079   7.542  21.376  0.00  0.00    -0.238 NA
ATOM     10  C20 UNL     1      15.145   6.579  21.589  0.00  0.00    +0.136 A 
BRANCH   5  15
ATOM     11  C1  UNL     1      11.029   1.697  22.206  0.00  0.00    +0.105 C 
ATOM     12  N1  UNL     1      12.041   2.737  21.963  0.00  0.00    -0.302 NA
ATOM     13  C2  UNL     1      13.354   2.117  21.758  0.00  0.00    +0.103 C 
ATOM     14  C3  UNL     1      14.444   3.187  21.675  0.00  0.00    +0.120 C 
ATOM     15  N2  UNL     1      14.050   4.412  20.944  0.00  0.00    -0.326 N 
ATOM     16  C21 UNL     1      12.642   4.682  20.576  0.00  0.00    +0.120 C 
ATOM     17  C22 UNL     1      11.699   3.489  20.749  0.00  0.00    +0.103 C 
ENDBRANCH   5  15
ENDBRANCH   1   8
BRANCH   2  18
ATOM     18  C9  UNL     1      18.736  10.803  19.360  0.00  0.00    +0.126 A 
ATOM     19  C10 UNL     1      20.004  10.437  18.882  0.00  0.00    +0.033 A 
ATOM     20  C11 UNL     1      20.995  11.410  18.743  0.00  0.00    +0.012 A 
ATOM     21  C12 UNL     1      20.729  12.747  19.080  0.00  0.00    +0.000 A 
ATOM     22  C19 UNL     1      19.448  13.069  19.555  0.00  0.00    +0.120 A 
ATOM     23  N4  UNL     1      18.498  12.105  19.679  0.00  0.00    -0.250 NA
BRANCH  21  24
ATOM     24  C13 UNL     1      21.775  13.791  18.938  0.00  0.00    -0.016 A 
ATOM     25  C14 UNL     1      23.082  13.446  18.543  0.00  0.00    +0.011 A 
ATOM     26  C15 UNL     1      24.065  14.432  18.409  0.00  0.00    +0.039 A 
ATOM     27  C16 UNL     1      23.758  15.770  18.668  0.00  0.00    +0.123 A 
ATOM     28  F1  UNL     1      24.713  16.723  18.538  0.00  0.00    -0.205 F 
ATOM     29  C17 UNL     1      22.465  16.125  19.061  0.00  0.00    +0.039 A 
ATOM     30  C18 UNL     1      21.478  15.143  19.195  0.00  0.00    +0.011 A 
ENDBRANCH  21  24
ENDBRANCH   2  18
TORSDOF 4
ENDMDL
MODEL 5
REMARK VINA RESULT:    -5.935     12.455     16.250
REMARK INTER + INTRA:          -7.904
REMARK INTER:                  -7.283
REMARK INTRA:                  -0.621
REMARK UNBOUND:                -0.582
REMARK  Name = /home/qwerty/github/datacon2025hack/step_04_hit_selection/docking/ligands/lig_303.pdb
REMARK  5 active torsions:
REMARK  status: ('A' for Active; 'I' for Inactive)
REMARK    1  A    between atoms: C1_1  and  N1_2
REMARK    2  A    between atoms: N2_5  and  C4_6
REMARK    3  A    between atoms: C7_9  and  N3_10
REMARK    4  A    between atoms: C8_11  and  C9_13
REMARK    5  A    between atoms: C12_16  and  C13_17
REMARK                            x       y       z     vdW  Elec       q    Type
REMARK                         _______ _______ _______ _____ _____    ______ ____
ROOT
ATOM      1  N3  UNL     1      16.441   7.958  20.691  0.00  0.00    -0.265 N 
ATOM      2  C8  UNL     1      16.352   6.692  20.011  0.00  0.00    +0.268 C 
ATOM      3  O1  UNL     1      17.143   6.421  19.066  0.00  0.00    -0.268 OA
ATOM      4  H10 UNL     1      15.775   8.147  21.474  0.00  0.00    +0.157 HD
ENDROOT
BRANCH   1   8
ATOM      5  C4  UNL     1      19.254  11.005  19.741  0.00  0.00    +0.048 A 
ATOM      6  C5  UNL     1      17.909  11.101  19.315  0.00  0.00    +0.028 A 
ATOM      7  C6  UNL     1      16.986  10.104  19.628  0.00  0.00    +0.045 A 
ATOM      8  C7  UNL     1      17.391   8.990  20.367  0.00  0.00    +0.125 A 
ATOM      9  N5  UNL     1      18.687   8.898  20.766  0.00  0.00    -0.238 NA
ATOM     10  C20 UNL     1      19.610   9.852  20.478  0.00  0.00    +0.136 A 
BRANCH   5  15
ATOM     11  C1  UNL     1      23.058  15.218  19.207  0.00  0.00    +0.105 C 
ATOM     12  N1  UNL     1      22.072  14.165  19.497  0.00  0.00    -0.302 NA
ATOM     13  C2  UNL     1      20.850  14.398  18.719  0.00  0.00    +0.103 C 
ATOM     14  C3  UNL     1      19.754  13.415  19.135  0.00  0.00    +0.120 C 
ATOM     15  N2  UNL     1      20.233  12.044  19.422  0.00  0.00    -0.326 N 
ATOM     16  C21 UNL     1      21.674  11.734  19.563  0.00  0.00    +0.120 C 
ATOM     17  C22 UNL     1      22.613  12.856  19.111  0.00  0.00    +0.103 C 
ENDBRANCH   5  15
ENDBRANCH   1   8
BRANCH   2  18
ATOM     18  C9  UNL     1      15.334   5.695  20.414  0.00  0.00    +0.126 A 
ATOM     19  C10 UNL     1      14.787   4.801  19.480  0.00  0.00    +0.033 A 
ATOM     20  C11 UNL     1      13.829   3.873  19.892  0.00  0.00    +0.012 A 
ATOM     21  C12 UNL     1      13.411   3.833  21.233  0.00  0.00    +0.000 A 
ATOM     22  C19 UNL     1      13.984   4.746  22.133  0.00  0.00    +0.120 A 
ATOM     23  N4  UNL     1      14.917   5.638  21.709  0.00  0.00    -0.250 NA
BRANCH  21  24
ATOM     24  C13 UNL     1      12.392   2.852  21.685  0.00  0.00    -0.016 A 
ATOM     25  C14 UNL     1      11.028   3.198  21.710  0.00  0.00    +0.011 A 
ATOM     26  C15 UNL     1      10.070   2.272  22.136  0.00  0.00    +0.039 A 
ATOM     27  C16 UNL     1      10.461   0.993  22.541  0.00  0.00    +0.123 A 
ATOM     28  F1  UNL     1       9.531   0.098  22.954  0.00  0.00    -0.205 F 
ATOM     29  C17 UNL     1      11.812   0.638  22.520  0.00  0.00    +0.039 A 
ATOM     30  C18 UNL     1      12.774   1.560  22.095  0.00  0.00    +0.011 A 
ENDBRANCH  21  24
ENDBRANCH   2  18
TORSDOF 4
ENDMDL
MODEL 6
REMARK VINA RESULT:    -5.904     11.278     15.177
REMARK INTER + INTRA:          -7.866
REMARK INTER:                  -7.264
REMARK INTRA:                  -0.602
REMARK UNBOUND:                -0.582
REMARK  Name = /home/qwerty/github/datacon2025hack/step_04_hit_selection/docking/ligands/lig_303.pdb
REMARK  5 active torsions:
REMARK  status: ('A' for Active; 'I' for Inactive)
REMARK    1  A    between atoms: C1_1  and  N1_2
REMARK    2  A    between atoms: N2_5  and  C4_6
REMARK    3  A    between atoms: C7_9  and  N3_10
REMARK    4  A    between atoms: C8_11  and  C9_13
REMARK    5  A    between atoms: C12_16  and  C13_17
REMARK                            x       y       z     vdW  Elec       q    Type
REMARK                         _______ _______ _______ _____ _____    ______ ____
ROOT
ATOM      1  N3  UNL     1      19.255   9.416  20.148  0.00  0.00    -0.265 N 
ATOM      2  C8  UNL     1      19.539   8.139  19.545  0.00  0.00    +0.268 C 
ATOM      3  O1  UNL     1      20.586   7.980  18.859  0.00  0.00    -0.268 OA
ATOM      4  H10 UNL     1      18.382   9.511  20.715  0.00  0.00    +0.157 HD
ENDROOT
BRANCH   1   8
ATOM      5  C4  UNL     1      21.740  12.850  19.795  0.00  0.00    +0.048 A 
ATOM      6  C5  UNL     1      20.609  12.684  18.963  0.00  0.00    +0.028 A 
ATOM      7  C6  UNL     1      19.793  11.560  19.080  0.00  0.00    +0.045 A 
ATOM      8  C7  UNL     1      20.095  10.578  20.026  0.00  0.00    +0.125 A 
ATOM      9  N5  UNL     1      21.189  10.737  20.816  0.00  0.00    -0.238 NA
ATOM     10  C20 UNL     1      22.003  11.821  20.728  0.00  0.00    +0.136 A 
BRANCH   5  15
ATOM     11  C1  UNL     1      25.497  17.137  19.915  0.00  0.00    +0.105 C 
ATOM     12  N1  UNL     1      24.608  15.967  20.001  0.00  0.00    -0.302 NA
ATOM     13  C2  UNL     1      23.237  16.402  20.288  0.00  0.00    +0.103 C 
ATOM     14  C3  UNL     1      22.336  15.194  20.552  0.00  0.00    +0.120 C 
ATOM     15  N2  UNL     1      22.605  14.025  19.685  0.00  0.00    -0.326 N 
ATOM     16  C21 UNL     1      23.819  13.942  18.841  0.00  0.00    +0.120 C 
ATOM     17  C22 UNL     1      24.599  15.254  18.718  0.00  0.00    +0.103 C 
ENDBRANCH   5  15
ENDBRANCH   1   8
BRANCH   2  18
ATOM     18  C9  UNL     1      18.608   7.002  19.723  0.00  0.00    +0.126 A 
ATOM     19  C10 UNL     1      17.424   6.910  18.974  0.00  0.00    +0.033 A 
ATOM     20  C11 UNL     1      16.568   5.825  19.167  0.00  0.00    +0.012 A 
ATOM     21  C12 UNL     1      16.885   4.830  20.106  0.00  0.00    +0.000 A 
ATOM     22  C19 UNL     1      18.079   4.961  20.834  0.00  0.00    +0.120 A 
ATOM     23  N4  UNL     1      18.898   6.025  20.626  0.00  0.00    -0.250 NA
BRANCH  21  24
ATOM     24  C13 UNL     1      15.982   3.671  20.321  0.00  0.00    -0.016 A 
ATOM     25  C14 UNL     1      14.673   3.863  20.802  0.00  0.00    +0.011 A 
ATOM     26  C15 UNL     1      13.825   2.769  21.003  0.00  0.00    +0.039 A 
ATOM     27  C16 UNL     1      14.272   1.474  20.730  0.00  0.00    +0.123 A 
ATOM     28  F1  UNL     1      13.447   0.416  20.927  0.00  0.00    -0.205 F 
ATOM     29  C17 UNL     1      15.569   1.270  20.253  0.00  0.00    +0.039 A 
ATOM     30  C18 UNL     1      16.421   2.361  20.049  0.00  0.00    +0.011 A 
ENDBRANCH  21  24
ENDBRANCH   2  18
TORSDOF 4
ENDMDL
MODEL 7
REMARK VINA RESULT:    -5.863     10.670     15.532
REMARK INTER + INTRA:          -7.815
REMARK INTER:                  -7.172
REMARK INTRA:                  -0.643
REMARK UNBOUND:                -0.582
REMARK  Name = /home/qwerty/github/datacon2025hack/step_04_hit_selection/docking/ligands/lig_303.pdb
REMARK  5 active torsions:
REMARK  status: ('A' for Active; 'I' for Inactive)
REMARK    1  A    between atoms: C1_1  and  N1_2
REMARK    2  A    between atoms: N2_5  and  C4_6
REMARK    3  A    between atoms: C7_9  and  N3_10
REMARK    4  A    between atoms: C8_11  and  C9_13
REMARK    5  A    between atoms: C12_16  and  C13_17
REMARK                            x       y       z     vdW  Elec       q    Type
REMARK                         _______ _______ _______ _____ _____    ______ ____
ROOT
ATOM      1  N3  UNL     1      12.131   5.012  37.034  0.00  0.00    -0.265 N 
ATOM      2  C8  UNL     1      13.547   4.810  37.201  0.00  0.00    +0.268 C 
ATOM      3  O1  UNL     1      14.003   3.654  37.417  0.00  0.00    -0.268 OA
ATOM      4  H10 UNL     1      11.789   5.982  36.849  0.00  0.00    +0.157 HD
ENDROOT
BRANCH   1   8
ATOM      5  C4  UNL     1       9.220   1.916  37.227  0.00  0.00    +0.048 A 
ATOM      6  C5  UNL     1       9.482   2.737  38.348  0.00  0.00    +0.028 A 
ATOM      7  C6  UNL     1      10.434   3.754  38.285  0.00  0.00    +0.045 A 
ATOM      8  C7  UNL     1      11.147   3.964  37.102  0.00  0.00    +0.125 A 
ATOM      9  N5  UNL     1      10.899   3.166  36.031  0.00  0.00    -0.238 NA
ATOM     10  C20 UNL     1       9.978   2.169  36.060  0.00  0.00    +0.136 A 
BRANCH   5  15
ATOM     11  C1  UNL     1       5.890  -2.698  37.579  0.00  0.00    +0.105 C 
ATOM     12  N1  UNL     1       6.870  -1.601  37.521  0.00  0.00    -0.302 NA
ATOM     13  C2  UNL     1       6.846  -0.981  36.193  0.00  0.00    +0.103 C 
ATOM     14  C3  UNL     1       7.974   0.044  36.059  0.00  0.00    +0.120 C 
ATOM     15  N2  UNL     1       8.224   0.847  37.278  0.00  0.00    -0.326 N 
ATOM     16  C21 UNL     1       7.624   0.490  38.584  0.00  0.00    +0.120 C 
ATOM     17  C22 UNL     1       6.524  -0.572  38.509  0.00  0.00    +0.103 C 
ENDBRANCH   5  15
ENDBRANCH   1   8
BRANCH   2  18
ATOM     18  C9  UNL     1      14.483   5.955  37.119  0.00  0.00    +0.126 A 
ATOM     19  C10 UNL     1      15.603   6.037  37.962  0.00  0.00    +0.033 A 
ATOM     20  C11 UNL     1      16.465   7.130  37.859  0.00  0.00    +0.012 A 
ATOM     21  C12 UNL     1      16.215   8.144  36.921  0.00  0.00    +0.000 A 
ATOM     22  C19 UNL     1      15.083   8.023  36.099  0.00  0.00    +0.120 A 
ATOM     23  N4  UNL     1      14.260   6.949  36.216  0.00  0.00    -0.250 NA
BRANCH  21  24
ATOM     24  C13 UNL     1      17.124   9.313  36.803  0.00  0.00    -0.016 A 
ATOM     25  C14 UNL     1      18.518   9.131  36.737  0.00  0.00    +0.011 A 
ATOM     26  C15 UNL     1      19.372  10.234  36.625  0.00  0.00    +0.039 A 
ATOM     27  C16 UNL     1      18.846  11.527  36.578  0.00  0.00    +0.123 A 
ATOM     28  F1  UNL     1      19.676  12.594  36.470  0.00  0.00    -0.205 F 
ATOM     29  C17 UNL     1      17.464  11.720  36.643  0.00  0.00    +0.039 A 
ATOM     30  C18 UNL     1      16.606  10.621  36.754  0.00  0.00    +0.011 A 
ENDBRANCH  21  24
ENDBRANCH   2  18
TORSDOF 4
ENDMDL
MODEL 8
REMARK VINA RESULT:    -5.756     10.807     14.978
REMARK INTER + INTRA:          -7.684
REMARK INTER:                  -7.028
REMARK INTRA:                  -0.656
REMARK UNBOUND:                -0.582
REMARK  Name = /home/qwerty/github/datacon2025hack/step_04_hit_selection/docking/ligands/lig_303.pdb
REMARK  5 active torsions:
REMARK  status: ('A' for Active; 'I' for Inactive)
REMARK    1  A    between atoms: C1_1  and  N1_2
REMARK    2  A    between atoms: N2_5  and  C4_6
REMARK    3  A    between atoms: C7_9  and  N3_10
REMARK    4  A    between atoms: C8_11  and  C9_13
REMARK    5  A    between atoms: C12_16  and  C13_17
REMARK                            x       y       z     vdW  Elec       q    Type
REMARK                         _______ _______ _______ _____ _____    ______ ____
ROOT
ATOM      1  N3  UNL     1      17.439  10.184  20.475  0.00  0.00    -0.265 N 
ATOM      2  C8  UNL     1      17.778   8.800  20.686  0.00  0.00    +0.268 C 
ATOM      3  O1  UNL     1      18.985   8.453  20.808  0.00  0.00    -0.268 OA
ATOM      4  H10 UNL     1      16.430  10.437  20.385  0.00  0.00    +0.157 HD
ENDROOT
BRANCH   1   8
ATOM      5  C4  UNL     1      20.278  13.341  20.201  0.00  0.00    +0.048 A 
ATOM      6  C5  UNL     1      19.855  12.643  19.046  0.00  0.00    +0.028 A 
ATOM      7  C6  UNL     1      18.923  11.610  19.135  0.00  0.00    +0.045 A 
ATOM      8  C7  UNL     1      18.401  11.251  20.380  0.00  0.00    +0.125 A 
ATOM      9  N5  UNL     1      18.818  11.918  21.488  0.00  0.00    -0.238 NA
ATOM     10  C20 UNL     1      19.723  12.929  21.435  0.00  0.00    +0.136 A 
BRANCH   5  15
ATOM     11  C1  UNL     1      24.582  17.058  19.802  0.00  0.00    +0.105 C 
ATOM     12  N1  UNL     1      23.577  15.986  19.884  0.00  0.00    -0.302 NA
ATOM     13  C2  UNL     1      22.897  16.039  21.183  0.00  0.00    +0.103 C 
ATOM     14  C3  UNL     1      21.974  14.831  21.353  0.00  0.00    +0.120 C 
ATOM     15  N2  UNL     1      21.253  14.428  20.124  0.00  0.00    -0.326 N 
ATOM     16  C21 UNL     1      21.614  14.972  18.795  0.00  0.00    +0.120 C 
ATOM     17  C22 UNL     1      22.567  16.169  18.835  0.00  0.00    +0.103 C 
ENDBRANCH   5  15
ENDBRANCH   1   8
BRANCH   2  18
ATOM     18  C9  UNL     1      16.715   7.772  20.764  0.00  0.00    +0.126 A 
ATOM     19  C10 UNL     1      16.772   6.611  19.977  0.00  0.00    +0.033 A 
ATOM     20  C11 UNL     1      15.754   5.661  20.074  0.00  0.00    +0.012 A 
ATOM     21  C12 UNL     1      14.676   5.864  20.951  0.00  0.00    +0.000 A 
ATOM     22  C19 UNL     1      14.658   7.040  21.719  0.00  0.00    +0.120 A 
ATOM     23  N4  UNL     1      15.663   7.949  21.609  0.00  0.00    -0.250 NA
BRANCH  21  24
ATOM     24  C13 UNL     1      13.586   4.862  21.063  0.00  0.00    -0.016 A 
ATOM     25  C14 UNL     1      12.352   5.209  21.646  0.00  0.00    +0.011 A 
ATOM     26  C15 UNL     1      11.327   4.264  21.750  0.00  0.00    +0.039 A 
ATOM     27  C16 UNL     1      11.520   2.964  21.276  0.00  0.00    +0.123 A 
ATOM     28  F1  UNL     1      10.524   2.050  21.379  0.00  0.00    -0.205 F 
ATOM     29  C17 UNL     1      12.739   2.607  20.696  0.00  0.00    +0.039 A 
ATOM     30  C18 UNL     1      13.768   3.549  20.589  0.00  0.00    +0.011 A 
ENDBRANCH  21  24
ENDBRANCH   2  18
TORSDOF 4
ENDMDL
MODEL 9
REMARK VINA RESULT:    -5.732     15.311     16.506
REMARK INTER + INTRA:          -7.654
REMARK INTER:                  -7.018
REMARK INTRA:                  -0.636
REMARK UNBOUND:                -0.582
REMARK  Name = /home/qwerty/github/datacon2025hack/step_04_hit_selection/docking/ligands/lig_303.pdb
REMARK  5 active torsions:
REMARK  status: ('A' for Active; 'I' for Inactive)
REMARK    1  A    between atoms: C1_1  and  N1_2
REMARK    2  A    between atoms: N2_5  and  C4_6
REMARK    3  A    between atoms: C7_9  and  N3_10
REMARK    4  A    between atoms: C8_11  and  C9_13
REMARK    5  A    between atoms: C12_16  and  C13_17
REMARK                            x       y       z     vdW  Elec       q    Type
REMARK                         _______ _______ _______ _____ _____    ______ ____
ROOT
ATOM      1  N3  UNL     1       8.553   4.093  27.367  0.00  0.00    -0.265 N 
ATOM      2  C8  UNL     1       8.082   3.946  26.014  0.00  0.00    +0.268 C 
ATOM      3  O1  UNL     1       7.479   2.895  25.662  0.00  0.00    -0.268 OA
ATOM      4  H10 UNL     1       9.042   4.979  27.626  0.00  0.00    +0.157 HD
ENDROOT
BRANCH   1   8
ATOM      5  C4  UNL     1       8.087   1.148  30.401  0.00  0.00    +0.048 A 
ATOM      6  C5  UNL     1       7.154   2.201  30.263  0.00  0.00    +0.028 A 
ATOM      7  C6  UNL     1       7.305   3.165  29.267  0.00  0.00    +0.045 A 
ATOM      8  C7  UNL     1       8.394   3.099  28.395  0.00  0.00    +0.125 A 
ATOM      9  N5  UNL     1       9.293   2.090  28.538  0.00  0.00    -0.238 NA
ATOM     10  C20 UNL     1       9.174   1.135  29.497  0.00  0.00    +0.136 A 
BRANCH   5  15
ATOM     11  C1  UNL     1       8.230  -2.731  34.577  0.00  0.00    +0.105 C 
ATOM     12  N1  UNL     1       8.345  -1.708  33.525  0.00  0.00    -0.302 NA
ATOM     13  C2  UNL     1       7.961  -2.279  32.230  0.00  0.00    +0.103 C 
ATOM     14  C3  UNL     1       8.238  -1.283  31.102  0.00  0.00    +0.120 C 
ATOM     15  N2  UNL     1       7.941   0.128  31.439  0.00  0.00    -0.326 N 
ATOM     16  C21 UNL     1       7.670   0.557  32.830  0.00  0.00    +0.120 C 
ATOM     17  C22 UNL     1       7.439  -0.590  33.816  0.00  0.00    +0.103 C 
ENDBRANCH   5  15
ENDBRANCH   1   8
BRANCH   2  18
ATOM     18  C9  UNL     1       8.298   5.026  25.023  0.00  0.00    +0.126 A 
ATOM     19  C10 UNL     1       8.024   4.824  23.661  0.00  0.00    +0.033 A 
ATOM     20  C11 UNL     1       8.239   5.862  22.754  0.00  0.00    +0.012 A 
ATOM     21  C12 UNL     1       8.729   7.101  23.197  0.00  0.00    +0.000 A 
ATOM     22  C19 UNL     1       8.990   7.260  24.567  0.00  0.00    +0.120 A 
ATOM     23  N4  UNL     1       8.770   6.235  25.432  0.00  0.00    -0.250 NA
BRANCH  21  24
ATOM     24  C13 UNL     1       8.963   8.214  22.241  0.00  0.00    -0.016 A 
ATOM     25  C14 UNL     1       8.226   9.410  22.341  0.00  0.00    +0.011 A 
ATOM     26  C15 UNL     1       8.449  10.456  21.440  0.00  0.00    +0.039 A 
ATOM     27  C16 UNL     1       9.407  10.322  20.431  0.00  0.00    +0.123 A 
ATOM     28  F1  UNL     1       9.620  11.338  19.559  0.00  0.00    -0.205 F 
ATOM     29  C17 UNL     1      10.144   9.141  20.322  0.00  0.00    +0.039 A 
ATOM     30  C18 UNL     1       9.925   8.091  21.221  0.00  0.00    +0.011 A 
ENDBRANCH  21  24
ENDBRANCH   2  18
TORSDOF 4
ENDMDL
