REMARK  Name = /home/qwerty/github/datacon2025hack/step_04_hit_selection/docking/ligands/lig_743.pdb
REMARK  6 active torsions:
REMARK  status: ('A' for Active; 'I' for Inactive)
REMARK    1  A    between atoms: C1_1  and  C2_2
REMARK    2  A    between atoms: C2_2  and  C3_3
REMARK    3  A    between atoms: C2_2  and  C4_4
REMARK    4  A    between atoms: C2_2  and  C5_5
REMARK    5  A    between atoms: N1_7  and  C6_8
REMARK    6  A    between atoms: C9_11  and  C10_12
REMARK                            x       y       z     vdW  Elec       q    Type
REMARK                         _______ _______ _______ _____ _____    ______ ____
ROOT
ATOM      1  C10 UNL     1      -1.710  -0.905   0.107  0.00  0.00    -0.017 A 
ATOM      2  C11 UNL     1      -2.114  -2.201   0.529  0.00  0.00    +0.010 A 
ATOM      3  C12 UNL     1      -3.475  -2.524   0.675  0.00  0.00    +0.027 A 
ATOM      4  C13 UNL     1      -4.414  -1.534   0.402  0.00  0.00    +0.047 A 
ATOM      5  N2  UNL     1      -5.757  -1.648   0.447  0.00  0.00    -0.350 N 
ATOM      6  C14 UNL     1      -6.217  -0.436   0.068  0.00  0.00    +0.106 A 
ATOM      7  C15 UNL     1      -5.191   0.443  -0.199  0.00  0.00    -0.008 A 
ATOM      8  C16 UNL     1      -4.032  -0.274  -0.001  0.00  0.00    +0.004 A 
ATOM      9  C17 UNL     1      -2.694   0.075  -0.167  0.00  0.00    +0.018 A 
ATOM     10  C18 UNL     1      -5.409   1.808  -0.785  0.00  0.00    +0.057 C 
ATOM     11  C19 UNL     1      -6.804   2.347  -0.386  0.00  0.00    +0.109 C 
ATOM     12  N3  UNL     1      -7.855   1.324  -0.516  0.00  0.00    -0.310 N 
ATOM     13  C20 UNL     1      -7.606  -0.034  -0.126  0.00  0.00    +0.261 C 
ATOM     14  O2  UNL     1      -8.553  -0.853   0.011  0.00  0.00    -0.269 OA
ATOM     15  H15 UNL     1      -6.317  -2.496   0.691  0.00  0.00    +0.166 HD
ATOM     16  H21 UNL     1      -8.821   1.614  -0.789  0.00  0.00    +0.149 HD
ENDROOT
BRANCH   1  20
ATOM     17  C6  UNL     1       2.473   0.022  -0.351  0.00  0.00    +0.033 A 
ATOM     18  C7  UNL     1       2.029  -0.741   0.742  0.00  0.00    +0.024 A 
ATOM     19  C8  UNL     1       0.672  -1.045   0.888  0.00  0.00    +0.010 A 
ATOM     20  C9  UNL     1      -0.269  -0.582  -0.049  0.00  0.00    -0.018 A 
ATOM     21  C21 UNL     1       0.177   0.200  -1.129  0.00  0.00    +0.010 A 
ATOM     22  C22 UNL     1       1.534   0.504  -1.273  0.00  0.00    +0.024 A 
BRANCH  17  25
ATOM     23  C5  UNL     1       4.948  -0.479  -0.101  0.00  0.00    +0.223 C 
ATOM     24  O1  UNL     1       4.740  -1.710   0.089  0.00  0.00    -0.275 OA
ATOM     25  N1  UNL     1       3.860   0.368  -0.510  0.00  0.00    -0.285 N 
ATOM     26  H10 UNL     1       4.083   1.249  -1.026  0.00  0.00    +0.155 HD
BRANCH  23  28
ATOM     27  C1  UNL     1       7.293  -0.931   0.721  0.00  0.00    +0.020 C 
ATOM     28  C2  UNL     1       6.361   0.080   0.016  0.00  0.00    +0.039 C 
ATOM     29  C3  UNL     1       6.342   1.382   0.843  0.00  0.00    +0.020 C 
ATOM     30  C4  UNL     1       6.912   0.368  -1.392  0.00  0.00    +0.020 C 
ENDBRANCH  23  28
ENDBRANCH  17  25
ENDBRANCH   1  20
TORSDOF 3
