MODEL 1
REMARK VINA RESULT:    -6.705      0.000      0.000
REMARK INTER + INTRA:          -8.894
REMARK INTER:                  -8.273
REMARK INTRA:                  -0.621
REMARK UNBOUND:                -0.621
REMARK  Name = /home/qwerty/github/datacon2025hack/step_04_hit_selection/docking/ligands/lig_165.pdb
REMARK  6 active torsions:
REMARK  status: ('A' for Active; 'I' for Inactive)
REMARK    1  A    between atoms: C1_1  and  C2_2
REMARK    2  A    between atoms: C8_8  and  C9_9
REMARK    3  A    between atoms: C9_9  and  N1_10
REMARK    4  A    between atoms: C13_15  and  O1_16
REMARK    5  A    between atoms: O1_16  and  C14_17
REMARK    6  A    between atoms: N5_27  and  C22_28
REMARK                            x       y       z     vdW  Elec       q    Type
REMARK                         _______ _______ _______ _____ _____    ______ ____
ROOT
ATOM      1  N1  UNL     1       8.537  10.042  24.130  0.00  0.00    -0.295 NA
ATOM      2  C10 UNL     1       7.679  10.357  22.960  0.00  0.00    +0.100 C 
ATOM      3  C11 UNL     1       8.472  10.367  21.651  0.00  0.00    +0.100 C 
ATOM      4  N2  UNL     1       9.021   9.022  21.400  0.00  0.00    -0.293 NA
ATOM      5  C12 UNL     1      10.018   9.013  20.325  0.00  0.00    +0.129 C 
ATOM      6  C13 UNL     1      10.961   7.860  20.619  0.00  0.00    +0.189 C 
ATOM      7  C18 UNL     1      10.986   7.800  22.136  0.00  0.00    +0.066 C 
ATOM      8  C19 UNL     1       9.642   8.386  22.581  0.00  0.00    +0.074 C 
ATOM      9  C20 UNL     1       9.803   9.350  23.782  0.00  0.00    +0.103 C 
ENDROOT
BRANCH   1  10
ATOM     10  C9  UNL     1       7.773   9.326  25.172  0.00  0.00    +0.121 C 
BRANCH  10  18
ATOM     11  C1  UNL     1       6.792   6.547  29.986  0.00  0.00    +0.044 C 
ATOM     12  C2  UNL     1       7.174   7.919  29.517  0.00  0.00    -0.050 A 
ATOM     13  C3  UNL     1       7.438   8.943  30.462  0.00  0.00    +0.005 A 
ATOM     14  C4  UNL     1       7.827  10.227  30.039  0.00  0.00    +0.026 A 
ATOM     15  C5  UNL     1       7.960  10.453  28.667  0.00  0.00    +0.049 A 
ATOM     16  C6  UNL     1       7.719   9.460  27.752  0.00  0.00    +0.004 A 
ATOM     17  C7  UNL     1       7.330   8.178  28.139  0.00  0.00    +0.013 A 
ATOM     18  C8  UNL     1       7.928  10.006  26.500  0.00  0.00    -0.008 A 
ATOM     19  C21 UNL     1       8.291  11.332  26.717  0.00  0.00    +0.091 A 
ATOM     20  N5  UNL     1       8.316  11.595  28.045  0.00  0.00    -0.349 N 
ATOM     21  C22 UNL     1       8.616  12.881  28.664  0.00  0.00    +0.149 C 
ENDBRANCH  10  18
ENDBRANCH   1  10
BRANCH   6  22
ATOM     22  O1  UNL     1      10.420   6.655  20.069  0.00  0.00    -0.484 OA
BRANCH  22  23
ATOM     23  C14 UNL     1      10.907   5.363  20.323  0.00  0.00    +0.157 A 
ATOM     24  C15 UNL     1      12.220   5.053  19.961  0.00  0.00    +0.159 A 
ATOM     25  N3  UNL     1      12.719   3.812  20.195  0.00  0.00    -0.240 NA
ATOM     26  C16 UNL     1      11.958   2.853  20.779  0.00  0.00    +0.221 A 
ATOM     27  N4  UNL     1      10.678   3.128  21.142  0.00  0.00    -0.240 NA
ATOM     28  C17 UNL     1      10.138   4.356  20.929  0.00  0.00    +0.159 A 
ENDBRANCH  22  23
ENDBRANCH   6  22
TORSDOF 4
ENDMDL
MODEL 2
REMARK VINA RESULT:    -6.490      8.592     13.389
REMARK INTER + INTRA:          -8.628
REMARK INTER:                  -8.008
REMARK INTRA:                  -0.620
REMARK UNBOUND:                -0.621
REMARK  Name = /home/qwerty/github/datacon2025hack/step_04_hit_selection/docking/ligands/lig_165.pdb
REMARK  6 active torsions:
REMARK  status: ('A' for Active; 'I' for Inactive)
REMARK    1  A    between atoms: C1_1  and  C2_2
REMARK    2  A    between atoms: C8_8  and  C9_9
REMARK    3  A    between atoms: C9_9  and  N1_10
REMARK    4  A    between atoms: C13_15  and  O1_16
REMARK    5  A    between atoms: O1_16  and  C14_17
REMARK    6  A    between atoms: N5_27  and  C22_28
REMARK                            x       y       z     vdW  Elec       q    Type
REMARK                         _______ _______ _______ _____ _____    ______ ____
ROOT
ATOM      1  N1  UNL     1      11.613  13.342  33.220  0.00  0.00    -0.295 NA
ATOM      2  C10 UNL     1      11.094  14.082  34.398  0.00  0.00    +0.100 C 
ATOM      3  C11 UNL     1      11.167  13.248  35.679  0.00  0.00    +0.100 C 
ATOM      4  N2  UNL     1      12.576  12.938  35.984  0.00  0.00    -0.293 NA
ATOM      5  C12 UNL     1      12.715  11.916  37.026  0.00  0.00    +0.129 C 
ATOM      6  C13 UNL     1      14.031  11.206  36.764  0.00  0.00    +0.189 C 
ATOM      7  C18 UNL     1      14.164  11.253  35.251  0.00  0.00    +0.066 C 
ATOM      8  C19 UNL     1      13.368  12.488  34.819  0.00  0.00    +0.074 C 
ATOM      9  C20 UNL     1      12.505  12.206  33.565  0.00  0.00    +0.103 C 
ENDROOT
BRANCH   1  10
ATOM     10  C9  UNL     1      12.226  14.263  32.242  0.00  0.00    +0.121 C 
BRANCH  10  18
ATOM     11  C1  UNL     1      15.209  15.309  27.566  0.00  0.00    +0.044 C 
ATOM     12  C2  UNL     1      13.831  14.875  27.968  0.00  0.00    -0.050 A 
ATOM     13  C3  UNL     1      12.870  14.559  26.975  0.00  0.00    +0.005 A 
ATOM     14  C4  UNL     1      11.584  14.121  27.336  0.00  0.00    +0.026 A 
ATOM     15  C5  UNL     1      11.292  13.993  28.695  0.00  0.00    +0.049 A 
ATOM     16  C6  UNL     1      12.225  14.284  29.657  0.00  0.00    +0.004 A 
ATOM     17  C7  UNL     1      13.508  14.722  29.333  0.00  0.00    +0.013 A 
ATOM     18  C8  UNL     1      11.623  14.066  30.882  0.00  0.00    -0.008 A 
ATOM     19  C21 UNL     1      10.327  13.645  30.602  0.00  0.00    +0.091 A 
ATOM     20  N5  UNL     1      10.134  13.596  29.263  0.00  0.00    -0.349 N 
ATOM     21  C22 UNL     1       8.896  13.236  28.581  0.00  0.00    +0.149 C 
ENDBRANCH  10  18
ENDBRANCH   1  10
BRANCH   6  22
ATOM     22  O1  UNL     1      15.092  11.931  37.392  0.00  0.00    -0.484 OA
BRANCH  22  23
ATOM     23  C14 UNL     1      16.461  11.716  37.166  0.00  0.00    +0.157 A 
ATOM     24  C15 UNL     1      17.038  10.521  37.603  0.00  0.00    +0.159 A 
ATOM     25  N3  UNL     1      18.359  10.284  37.397  0.00  0.00    -0.240 NA
ATOM     26  C16 UNL     1      19.142  11.197  36.768  0.00  0.00    +0.221 A 
ATOM     27  N4  UNL     1      18.605  12.367  36.331  0.00  0.00    -0.240 NA
ATOM     28  C17 UNL     1      17.288  12.644  36.514  0.00  0.00    +0.159 A 
ENDBRANCH  22  23
ENDBRANCH   6  22
TORSDOF 4
ENDMDL
MODEL 3
REMARK VINA RESULT:    -6.364      8.509     13.129
REMARK INTER + INTRA:          -8.473
REMARK INTER:                  -7.949
REMARK INTRA:                  -0.524
REMARK UNBOUND:                -0.621
REMARK  Name = /home/qwerty/github/datacon2025hack/step_04_hit_selection/docking/ligands/lig_165.pdb
REMARK  6 active torsions:
REMARK  status: ('A' for Active; 'I' for Inactive)
REMARK    1  A    between atoms: C1_1  and  C2_2
REMARK    2  A    between atoms: C8_8  and  C9_9
REMARK    3  A    between atoms: C9_9  and  N1_10
REMARK    4  A    between atoms: C13_15  and  O1_16
REMARK    5  A    between atoms: O1_16  and  C14_17
REMARK    6  A    between atoms: N5_27  and  C22_28
REMARK                            x       y       z     vdW  Elec       q    Type
REMARK                         _______ _______ _______ _____ _____    ______ ____
ROOT
ATOM      1  N1  UNL     1      11.547  13.704  33.255  0.00  0.00    -0.295 NA
ATOM      2  C10 UNL     1      10.931  14.114  34.542  0.00  0.00    +0.100 C 
ATOM      3  C11 UNL     1      11.027  13.014  35.602  0.00  0.00    +0.100 C 
ATOM      4  N2  UNL     1      12.446  12.742  35.900  0.00  0.00    -0.293 NA
ATOM      5  C12 UNL     1      12.631  11.520  36.688  0.00  0.00    +0.129 C 
ATOM      6  C13 UNL     1      14.007  10.984  36.340  0.00  0.00    +0.189 C 
ATOM      7  C18 UNL     1      14.188  11.387  34.886  0.00  0.00    +0.066 C 
ATOM      8  C19 UNL     1      13.310  12.630  34.705  0.00  0.00    +0.074 C 
ATOM      9  C20 UNL     1      12.515  12.585  33.377  0.00  0.00    +0.103 C 
ENDROOT
BRANCH   1  10
ATOM     10  C9  UNL     1      12.117  14.866  32.544  0.00  0.00    +0.121 C 
BRANCH  10  18
ATOM     11  C1  UNL     1       8.013  12.773  29.284  0.00  0.00    +0.044 C 
ATOM     12  C2  UNL     1       9.468  13.125  29.202  0.00  0.00    -0.050 A 
ATOM     13  C3  UNL     1      10.166  12.973  27.978  0.00  0.00    +0.005 A 
ATOM     14  C4  UNL     1      11.523  13.327  27.877  0.00  0.00    +0.026 A 
ATOM     15  C5  UNL     1      12.151  13.848  29.010  0.00  0.00    +0.049 A 
ATOM     16  C6  UNL     1      11.473  14.010  30.192  0.00  0.00    +0.004 A 
ATOM     17  C7  UNL     1      10.129  13.666  30.325  0.00  0.00    +0.013 A 
ATOM     18  C8  UNL     1      12.372  14.530  31.104  0.00  0.00    -0.008 A 
ATOM     19  C21 UNL     1      13.577  14.660  30.422  0.00  0.00    +0.091 A 
ATOM     20  N5  UNL     1      13.432  14.248  29.140  0.00  0.00    -0.349 N 
ATOM     21  C22 UNL     1      14.479  14.200  28.125  0.00  0.00    +0.149 C 
ENDBRANCH  10  18
ENDBRANCH   1  10
BRANCH   6  22
ATOM     22  O1  UNL     1      14.985  11.617  37.170  0.00  0.00    -0.484 OA
BRANCH  22  23
ATOM     23  C14 UNL     1      16.333  11.234  37.265  0.00  0.00    +0.157 A 
ATOM     24  C15 UNL     1      16.659  10.086  37.989  0.00  0.00    +0.159 A 
ATOM     25  N3  UNL     1      17.954   9.689  38.097  0.00  0.00    -0.240 NA
ATOM     26  C16 UNL     1      18.951  10.398  37.510  0.00  0.00    +0.221 A 
ATOM     27  N4  UNL     1      18.661  11.519  36.798  0.00  0.00    -0.240 NA
ATOM     28  C17 UNL     1      17.380  11.950  36.663  0.00  0.00    +0.159 A 
ENDBRANCH  22  23
ENDBRANCH   6  22
TORSDOF 4
ENDMDL
MODEL 4
REMARK VINA RESULT:    -6.356     12.176     14.666
REMARK INTER + INTRA:          -8.463
REMARK INTER:                  -7.785
REMARK INTRA:                  -0.678
REMARK UNBOUND:                -0.621
REMARK  Name = /home/qwerty/github/datacon2025hack/step_04_hit_selection/docking/ligands/lig_165.pdb
REMARK  6 active torsions:
REMARK  status: ('A' for Active; 'I' for Inactive)
REMARK    1  A    between atoms: C1_1  and  C2_2
REMARK    2  A    between atoms: C8_8  and  C9_9
REMARK    3  A    between atoms: C9_9  and  N1_10
REMARK    4  A    between atoms: C13_15  and  O1_16
REMARK    5  A    between atoms: O1_16  and  C14_17
REMARK    6  A    between atoms: N5_27  and  C22_28
REMARK                            x       y       z     vdW  Elec       q    Type
REMARK                         _______ _______ _______ _____ _____    ______ ____
ROOT
ATOM      1  N1  UNL     1      16.104  11.686  35.183  0.00  0.00    -0.295 NA
ATOM      2  C10 UNL     1      17.396  11.912  34.488  0.00  0.00    +0.100 C 
ATOM      3  C11 UNL     1      18.595  11.619  35.392  0.00  0.00    +0.100 C 
ATOM      4  N2  UNL     1      18.584  10.194  35.773  0.00  0.00    -0.293 NA
ATOM      5  C12 UNL     1      19.528   9.895  36.855  0.00  0.00    +0.129 C 
ATOM      6  C13 UNL     1      18.966   8.698  37.601  0.00  0.00    +0.189 C 
ATOM      7  C18 UNL     1      17.462   8.878  37.478  0.00  0.00    +0.066 C 
ATOM      8  C19 UNL     1      17.261   9.684  36.191  0.00  0.00    +0.074 C 
ATOM      9  C20 UNL     1      16.203  10.800  36.370  0.00  0.00    +0.103 C 
ENDROOT
BRANCH   1  10
ATOM     10  C9  UNL     1      15.061  11.242  34.236  0.00  0.00    +0.121 C 
BRANCH  10  18
ATOM     11  C1  UNL     1      10.770  11.348  37.902  0.00  0.00    +0.044 C 
ATOM     12  C2  UNL     1      11.243  12.071  36.677  0.00  0.00    -0.050 A 
ATOM     13  C3  UNL     1      10.507  13.175  36.177  0.00  0.00    +0.005 A 
ATOM     14  C4  UNL     1      10.954  13.883  35.047  0.00  0.00    +0.026 A 
ATOM     15  C5  UNL     1      12.147  13.477  34.449  0.00  0.00    +0.049 A 
ATOM     16  C6  UNL     1      12.869  12.419  34.939  0.00  0.00    +0.004 A 
ATOM     17  C7  UNL     1      12.453  11.695  36.056  0.00  0.00    +0.013 A 
ATOM     18  C8  UNL     1      13.976  12.273  34.125  0.00  0.00    -0.008 A 
ATOM     19  C21 UNL     1      13.873  13.268  33.157  0.00  0.00    +0.091 A 
ATOM     20  N5  UNL     1      12.756  14.005  33.367  0.00  0.00    -0.349 N 
ATOM     21  C22 UNL     1      12.286  15.113  32.543  0.00  0.00    +0.149 C 
ENDBRANCH  10  18
ENDBRANCH   1  10
BRANCH   6  22
ATOM     22  O1  UNL     1      19.391   7.495  36.954  0.00  0.00    -0.484 OA
BRANCH  22  23
ATOM     23  C14 UNL     1      20.728   7.105  36.772  0.00  0.00    +0.157 A 
ATOM     24  C15 UNL     1      21.146   6.698  35.503  0.00  0.00    +0.159 A 
ATOM     25  N3  UNL     1      22.433   6.317  35.297  0.00  0.00    -0.240 NA
ATOM     26  C16 UNL     1      23.333   6.322  36.312  0.00  0.00    +0.221 A 
ATOM     27  N4  UNL     1      22.953   6.714  37.556  0.00  0.00    -0.240 NA
ATOM     28  C17 UNL     1      21.676   7.105  37.807  0.00  0.00    +0.159 A 
ENDBRANCH  22  23
ENDBRANCH   6  22
TORSDOF 4
ENDMDL
MODEL 5
REMARK VINA RESULT:    -6.316      8.527     12.734
REMARK INTER + INTRA:          -8.414
REMARK INTER:                  -7.797
REMARK INTRA:                  -0.618
REMARK UNBOUND:                -0.621
REMARK  Name = /home/qwerty/github/datacon2025hack/step_04_hit_selection/docking/ligands/lig_165.pdb
REMARK  6 active torsions:
REMARK  status: ('A' for Active; 'I' for Inactive)
REMARK    1  A    between atoms: C1_1  and  C2_2
REMARK    2  A    between atoms: C8_8  and  C9_9
REMARK    3  A    between atoms: C9_9  and  N1_10
REMARK    4  A    between atoms: C13_15  and  O1_16
REMARK    5  A    between atoms: O1_16  and  C14_17
REMARK    6  A    between atoms: N5_27  and  C22_28
REMARK                            x       y       z     vdW  Elec       q    Type
REMARK                         _______ _______ _______ _____ _____    ______ ____
ROOT
ATOM      1  N1  UNL     1      18.208  -0.017  25.320  0.00  0.00    -0.295 NA
ATOM      2  C10 UNL     1      17.983  -1.420  24.889  0.00  0.00    +0.100 C 
ATOM      3  C11 UNL     1      16.509  -1.821  24.982  0.00  0.00    +0.100 C 
ATOM      4  N2  UNL     1      15.714  -0.983  24.065  0.00  0.00    -0.293 NA
ATOM      5  C12 UNL     1      14.272  -1.109  24.297  0.00  0.00    +0.129 C 
ATOM      6  C13 UNL     1      13.648   0.205  23.863  0.00  0.00    +0.189 C 
ATOM      7  C18 UNL     1      14.723   1.230  24.180  0.00  0.00    +0.066 C 
ATOM      8  C19 UNL     1      16.044   0.457  24.113  0.00  0.00    +0.074 C 
ATOM      9  C20 UNL     1      16.989   0.830  25.282  0.00  0.00    +0.103 C 
ENDROOT
BRANCH   1  10
ATOM     10  C9  UNL     1      19.337   0.590  24.587  0.00  0.00    +0.121 C 
BRANCH  10  18
ATOM     11  C1  UNL     1      21.770   5.539  23.385  0.00  0.00    +0.044 C 
ATOM     12  C2  UNL     1      21.784   4.491  24.456  0.00  0.00    -0.050 A 
ATOM     13  C3  UNL     1      22.585   4.670  25.612  0.00  0.00    +0.005 A 
ATOM     14  C4  UNL     1      22.586   3.710  26.640  0.00  0.00    +0.026 A 
ATOM     15  C5  UNL     1      21.764   2.591  26.493  0.00  0.00    +0.049 A 
ATOM     16  C6  UNL     1      20.977   2.423  25.383  0.00  0.00    +0.004 A 
ATOM     17  C7  UNL     1      20.955   3.355  24.345  0.00  0.00    +0.013 A 
ATOM     18  C8  UNL     1      20.304   1.227  25.542  0.00  0.00    -0.008 A 
ATOM     19  C21 UNL     1      20.723   0.712  26.765  0.00  0.00    +0.091 A 
ATOM     20  N5  UNL     1      21.610   1.556  27.344  0.00  0.00    -0.349 N 
ATOM     21  C22 UNL     1      22.298   1.347  28.613  0.00  0.00    +0.149 C 
ENDBRANCH  10  18
ENDBRANCH   1  10
BRANCH   6  22
ATOM     22  O1  UNL     1      13.383   0.161  22.458  0.00  0.00    -0.484 OA
BRANCH  22  23
ATOM     23  C14 UNL     1      13.218   1.285  21.632  0.00  0.00    +0.157 A 
ATOM     24  C15 UNL     1      12.030   2.015  21.714  0.00  0.00    +0.159 A 
ATOM     25  N3  UNL     1      11.844   3.108  20.929  0.00  0.00    -0.240 NA
ATOM     26  C16 UNL     1      12.800   3.509  20.054  0.00  0.00    +0.221 A 
ATOM     27  N4  UNL     1      13.965   2.818  19.955  0.00  0.00    -0.240 NA
ATOM     28  C17 UNL     1      14.195   1.721  20.722  0.00  0.00    +0.159 A 
ENDBRANCH  22  23
ENDBRANCH   6  22
TORSDOF 4
ENDMDL
MODEL 6
REMARK VINA RESULT:    -6.316     14.787     17.313
REMARK INTER + INTRA:          -8.414
REMARK INTER:                  -7.867
REMARK INTRA:                  -0.547
REMARK UNBOUND:                -0.621
REMARK  Name = /home/qwerty/github/datacon2025hack/step_04_hit_selection/docking/ligands/lig_165.pdb
REMARK  6 active torsions:
REMARK  status: ('A' for Active; 'I' for Inactive)
REMARK    1  A    between atoms: C1_1  and  C2_2
REMARK    2  A    between atoms: C8_8  and  C9_9
REMARK    3  A    between atoms: C9_9  and  N1_10
REMARK    4  A    between atoms: C13_15  and  O1_16
REMARK    5  A    between atoms: O1_16  and  C14_17
REMARK    6  A    between atoms: N5_27  and  C22_28
REMARK                            x       y       z     vdW  Elec       q    Type
REMARK                         _______ _______ _______ _____ _____    ______ ____
ROOT
ATOM      1  N1  UNL     1      22.248   5.049  32.634  0.00  0.00    -0.295 NA
ATOM      2  C10 UNL     1      23.558   5.740  32.732  0.00  0.00    +0.100 C 
ATOM      3  C11 UNL     1      23.450   7.229  32.396  0.00  0.00    +0.100 C 
ATOM      4  N2  UNL     1      22.568   7.891  33.376  0.00  0.00    -0.293 NA
ATOM      5  C12 UNL     1      22.189   9.247  32.965  0.00  0.00    +0.129 C 
ATOM      6  C13 UNL     1      20.837   9.527  33.595  0.00  0.00    +0.189 C 
ATOM      7  C18 UNL     1      20.168   8.163  33.622  0.00  0.00    +0.066 C 
ATOM      8  C19 UNL     1      21.320   7.155  33.669  0.00  0.00    +0.074 C 
ATOM      9  C20 UNL     1      21.077   5.958  32.716  0.00  0.00    +0.103 C 
ENDROOT
BRANCH   1  10
ATOM     10  C9  UNL     1      22.162   3.933  33.598  0.00  0.00    +0.121 C 
BRANCH  10  18
ATOM     11  C1  UNL     1      23.424   1.286  28.776  0.00  0.00    +0.044 C 
ATOM     12  C2  UNL     1      22.355   1.295  29.827  0.00  0.00    -0.050 A 
ATOM     13  C3  UNL     1      21.269   0.388  29.741  0.00  0.00    +0.005 A 
ATOM     14  C4  UNL     1      20.275   0.363  30.735  0.00  0.00    +0.026 A 
ATOM     15  C5  UNL     1      20.401   1.244  31.811  0.00  0.00    +0.049 A 
ATOM     16  C6  UNL     1      21.458   2.113  31.903  0.00  0.00    +0.004 A 
ATOM     17  C7  UNL     1      22.459   2.164  30.934  0.00  0.00    +0.013 A 
ATOM     18  C8  UNL     1      21.282   2.842  33.064  0.00  0.00    -0.008 A 
ATOM     19  C21 UNL     1      20.101   2.374  33.633  0.00  0.00    +0.091 A 
ATOM     20  N5  UNL     1      19.573   1.392  32.865  0.00  0.00    -0.349 N 
ATOM     21  C22 UNL     1      18.323   0.681  33.112  0.00  0.00    +0.149 C 
ENDBRANCH  10  18
ENDBRANCH   1  10
BRANCH   6  22
ATOM     22  O1  UNL     1      21.028  10.027  34.922  0.00  0.00    -0.484 OA
BRANCH  22  23
ATOM     23  C14 UNL     1      20.099   9.914  35.969  0.00  0.00    +0.157 A 
ATOM     24  C15 UNL     1      19.069  10.852  36.063  0.00  0.00    +0.159 A 
ATOM     25  N3  UNL     1      18.155  10.766  37.063  0.00  0.00    -0.240 NA
ATOM     26  C16 UNL     1      18.224   9.776  37.988  0.00  0.00    +0.221 A 
ATOM     27  N4  UNL     1      19.215   8.849  37.920  0.00  0.00    -0.240 NA
ATOM     28  C17 UNL     1      20.149   8.895  36.935  0.00  0.00    +0.159 A 
ENDBRANCH  22  23
ENDBRANCH   6  22
TORSDOF 4
ENDMDL
MODEL 7
REMARK VINA RESULT:    -6.296      4.149     10.060
REMARK INTER + INTRA:          -8.389
REMARK INTER:                  -7.920
REMARK INTRA:                  -0.469
REMARK UNBOUND:                -0.621
REMARK  Name = /home/qwerty/github/datacon2025hack/step_04_hit_selection/docking/ligands/lig_165.pdb
REMARK  6 active torsions:
REMARK  status: ('A' for Active; 'I' for Inactive)
REMARK    1  A    between atoms: C1_1  and  C2_2
REMARK    2  A    between atoms: C8_8  and  C9_9
REMARK    3  A    between atoms: C9_9  and  N1_10
REMARK    4  A    between atoms: C13_15  and  O1_16
REMARK    5  A    between atoms: O1_16  and  C14_17
REMARK    6  A    between atoms: N5_27  and  C22_28
REMARK                            x       y       z     vdW  Elec       q    Type
REMARK                         _______ _______ _______ _____ _____    ______ ____
ROOT
ATOM      1  N1  UNL     1      13.381   2.777  21.786  0.00  0.00    -0.295 NA
ATOM      2  C10 UNL     1      13.952   3.897  22.576  0.00  0.00    +0.100 C 
ATOM      3  C11 UNL     1      13.668   5.257  21.936  0.00  0.00    +0.100 C 
ATOM      4  N2  UNL     1      12.212   5.488  21.900  0.00  0.00    -0.293 NA
ATOM      5  C12 UNL     1      11.844   6.629  21.055  0.00  0.00    +0.129 C 
ATOM      6  C13 UNL     1      10.443   6.353  20.540  0.00  0.00    +0.189 C 
ATOM      7  C18 UNL     1      10.403   4.840  20.414  0.00  0.00    +0.066 C 
ATOM      8  C19 UNL     1      11.421   4.327  21.439  0.00  0.00    +0.074 C 
ATOM      9  C20 UNL     1      12.291   3.184  20.863  0.00  0.00    +0.103 C 
ENDROOT
BRANCH   1  10
ATOM     10  C9  UNL     1      12.987   1.655  22.661  0.00  0.00    +0.121 C 
BRANCH  10  18
ATOM     11  C1  UNL     1      13.563  -1.873  27.029  0.00  0.00    +0.044 C 
ATOM     12  C2  UNL     1      14.207  -1.577  25.708  0.00  0.00    -0.050 A 
ATOM     13  C3  UNL     1      15.295  -2.367  25.258  0.00  0.00    +0.005 A 
ATOM     14  C4  UNL     1      15.890  -2.122  24.007  0.00  0.00    +0.026 A 
ATOM     15  C5  UNL     1      15.366  -1.093  23.223  0.00  0.00    +0.049 A 
ATOM     16  C6  UNL     1      14.305  -0.337  23.650  0.00  0.00    +0.004 A 
ATOM     17  C7  UNL     1      13.694  -0.553  24.884  0.00  0.00    +0.013 A 
ATOM     18  C8  UNL     1      14.043   0.588  22.657  0.00  0.00    -0.008 A 
ATOM     19  C21 UNL     1      14.977   0.348  21.654  0.00  0.00    +0.091 A 
ATOM     20  N5  UNL     1      15.778  -0.687  22.004  0.00  0.00    -0.349 N 
ATOM     21  C22 UNL     1      16.897  -1.212  21.230  0.00  0.00    +0.149 C 
ENDBRANCH  10  18
ENDBRANCH   1  10
BRANCH   6  22
ATOM     22  O1  UNL     1       9.488   6.810  21.502  0.00  0.00    -0.484 OA
BRANCH  22  23
ATOM     23  C14 UNL     1       9.068   8.142  21.653  0.00  0.00    +0.157 A 
ATOM     24  C15 UNL     1       9.404   9.072  20.666  0.00  0.00    +0.159 A 
ATOM     25  N3  UNL     1       9.011  10.366  20.784  0.00  0.00    -0.240 NA
ATOM     26  C16 UNL     1       8.289  10.781  21.856  0.00  0.00    +0.221 A 
ATOM     27  N4  UNL     1       7.948   9.897  22.829  0.00  0.00    -0.240 NA
ATOM     28  C17 UNL     1       8.319   8.593  22.751  0.00  0.00    +0.159 A 
ENDBRANCH  22  23
ENDBRANCH   6  22
TORSDOF 4
ENDMDL
MODEL 8
REMARK VINA RESULT:    -6.296      1.291      2.677
REMARK INTER + INTRA:          -8.389
REMARK INTER:                  -7.790
REMARK INTRA:                  -0.599
REMARK UNBOUND:                -0.621
REMARK  Name = /home/qwerty/github/datacon2025hack/step_04_hit_selection/docking/ligands/lig_165.pdb
REMARK  6 active torsions:
REMARK  status: ('A' for Active; 'I' for Inactive)
REMARK    1  A    between atoms: C1_1  and  C2_2
REMARK    2  A    between atoms: C8_8  and  C9_9
REMARK    3  A    between atoms: C9_9  and  N1_10
REMARK    4  A    between atoms: C13_15  and  O1_16
REMARK    5  A    between atoms: O1_16  and  C14_17
REMARK    6  A    between atoms: N5_27  and  C22_28
REMARK                            x       y       z     vdW  Elec       q    Type
REMARK                         _______ _______ _______ _____ _____    ______ ____
ROOT
ATOM      1  N1  UNL     1       8.366   9.926  24.442  0.00  0.00    -0.295 NA
ATOM      2  C10 UNL     1       7.510  10.350  23.306  0.00  0.00    +0.100 C 
ATOM      3  C11 UNL     1       8.303  10.473  22.003  0.00  0.00    +0.100 C 
ATOM      4  N2  UNL     1       8.845   9.152  21.632  0.00  0.00    -0.293 NA
ATOM      5  C12 UNL     1       9.842   9.235  20.560  0.00  0.00    +0.129 C 
ATOM      6  C13 UNL     1      10.779   8.055  20.749  0.00  0.00    +0.189 C 
ATOM      7  C18 UNL     1      10.804   7.859  22.255  0.00  0.00    +0.066 C 
ATOM      8  C19 UNL     1       9.463   8.410  22.751  0.00  0.00    +0.074 C 
ATOM      9  C20 UNL     1       9.629   9.262  24.033  0.00  0.00    +0.103 C 
ENDROOT
BRANCH   1  10
ATOM     10  C9  UNL     1       7.598   9.124  25.416  0.00  0.00    +0.121 C 
BRANCH  10  18
ATOM     11  C1  UNL     1       8.217  14.149  27.912  0.00  0.00    +0.044 C 
ATOM     12  C2  UNL     1       8.517  12.702  28.168  0.00  0.00    -0.050 A 
ATOM     13  C3  UNL     1       9.112  12.308  29.393  0.00  0.00    +0.005 A 
ATOM     14  C4  UNL     1       9.372  10.952  29.661  0.00  0.00    +0.026 A 
ATOM     15  C5  UNL     1       9.010  10.012  28.694  0.00  0.00    +0.049 A 
ATOM     16  C6  UNL     1       8.421  10.390  27.515  0.00  0.00    +0.004 A 
ATOM     17  C7  UNL     1       8.152  11.725  27.218  0.00  0.00    +0.013 A 
ATOM     18  C8  UNL     1       8.202   9.236  26.785  0.00  0.00    -0.008 A 
ATOM     19  C21 UNL     1       8.680   8.191  27.569  0.00  0.00    +0.091 A 
ATOM     20  N5  UNL     1       9.166   8.673  28.738  0.00  0.00    -0.349 N 
ATOM     21  C22 UNL     1       9.784   7.891  29.804  0.00  0.00    +0.149 C 
ENDBRANCH  10  18
ENDBRANCH   1  10
BRANCH   6  22
ATOM     22  O1  UNL     1      10.232   6.907  20.095  0.00  0.00    -0.484 OA
BRANCH  22  23
ATOM     23  C14 UNL     1      10.562   5.575  20.391  0.00  0.00    +0.157 A 
ATOM     24  C15 UNL     1       9.609   4.765  21.012  0.00  0.00    +0.159 A 
ATOM     25  N3  UNL     1       9.900   3.472  21.309  0.00  0.00    -0.240 NA
ATOM     26  C16 UNL     1      11.114   2.944  21.013  0.00  0.00    +0.221 A 
ATOM     27  N4  UNL     1      12.059   3.709  20.407  0.00  0.00    -0.240 NA
ATOM     28  C17 UNL     1      11.810   5.007  20.090  0.00  0.00    +0.159 A 
ENDBRANCH  22  23
ENDBRANCH   6  22
TORSDOF 4
ENDMDL
MODEL 9
REMARK VINA RESULT:    -6.212      8.426     12.360
REMARK INTER + INTRA:          -8.285
REMARK INTER:                  -7.660
REMARK INTRA:                  -0.625
REMARK UNBOUND:                -0.621
REMARK  Name = /home/qwerty/github/datacon2025hack/step_04_hit_selection/docking/ligands/lig_165.pdb
REMARK  6 active torsions:
REMARK  status: ('A' for Active; 'I' for Inactive)
REMARK    1  A    between atoms: C1_1  and  C2_2
REMARK    2  A    between atoms: C8_8  and  C9_9
REMARK    3  A    between atoms: C9_9  and  N1_10
REMARK    4  A    between atoms: C13_15  and  O1_16
REMARK    5  A    between atoms: O1_16  and  C14_17
REMARK    6  A    between atoms: N5_27  and  C22_28
REMARK                            x       y       z     vdW  Elec       q    Type
REMARK                         _______ _______ _______ _____ _____    ______ ____
ROOT
ATOM      1  N1  UNL     1      18.322   0.043  25.178  0.00  0.00    -0.295 NA
ATOM      2  C10 UNL     1      18.034  -1.368  24.815  0.00  0.00    +0.100 C 
ATOM      3  C11 UNL     1      16.556  -1.718  24.999  0.00  0.00    +0.100 C 
ATOM      4  N2  UNL     1      15.739  -0.892  24.091  0.00  0.00    -0.293 NA
ATOM      5  C12 UNL     1      14.307  -0.962  24.402  0.00  0.00    +0.129 C 
ATOM      6  C13 UNL     1      13.701   0.353  23.948  0.00  0.00    +0.189 C 
ATOM      7  C18 UNL     1      14.821   1.355  24.169  0.00  0.00    +0.066 C 
ATOM      8  C19 UNL     1      16.113   0.538  24.065  0.00  0.00    +0.074 C 
ATOM      9  C20 UNL     1      17.128   0.925  25.168  0.00  0.00    +0.103 C 
ENDROOT
BRANCH   1  10
ATOM     10  C9  UNL     1      19.430   0.585  24.365  0.00  0.00    +0.121 C 
BRANCH  10  18
ATOM     11  C1  UNL     1      22.149  -0.083  29.266  0.00  0.00    +0.044 C 
ATOM     12  C2  UNL     1      21.770   1.008  28.309  0.00  0.00    -0.050 A 
ATOM     13  C3  UNL     1      22.181   2.342  28.559  0.00  0.00    +0.005 A 
ATOM     14  C4  UNL     1      21.860   3.372  27.656  0.00  0.00    +0.026 A 
ATOM     15  C5  UNL     1      21.144   3.035  26.506  0.00  0.00    +0.049 A 
ATOM     16  C6  UNL     1      20.759   1.743  26.255  0.00  0.00    +0.004 A 
ATOM     17  C7  UNL     1      21.059   0.700  27.131  0.00  0.00    +0.013 A 
ATOM     18  C8  UNL     1      20.070   1.752  25.057  0.00  0.00    -0.008 A 
ATOM     19  C21 UNL     1      20.066   3.076  24.628  0.00  0.00    +0.091 A 
ATOM     20  N5  UNL     1      20.732   3.853  25.515  0.00  0.00    -0.349 N 
ATOM     21  C22 UNL     1      20.912   5.298  25.432  0.00  0.00    +0.149 C 
ENDBRANCH  10  18
ENDBRANCH   1  10
BRANCH   6  22
ATOM     22  O1  UNL     1      13.362   0.264  22.561  0.00  0.00    -0.484 OA
BRANCH  22  23
ATOM     23  C14 UNL     1      13.125   1.360  21.716  0.00  0.00    +0.157 A 
ATOM     24  C15 UNL     1      14.071   1.675  20.737  0.00  0.00    +0.159 A 
ATOM     25  N3  UNL     1      13.868   2.728  19.904  0.00  0.00    -0.240 NA
ATOM     26  C16 UNL     1      12.752   3.493  20.006  0.00  0.00    +0.221 A 
ATOM     27  N4  UNL     1      11.816   3.208  20.948  0.00  0.00    -0.240 NA
ATOM     28  C17 UNL     1      11.976   2.163  21.800  0.00  0.00    +0.159 A 
ENDBRANCH  22  23
ENDBRANCH   6  22
TORSDOF 4
ENDMDL
