REMARK  Name = /home/qwerty/github/datacon2025hack/step_04_hit_selection/docking/ligands/lig_282.pdb
REMARK  2 active torsions:
REMARK  status: ('A' for Active; 'I' for Inactive)
REMARK    1  A    between atoms: N1_3  and  C2_4
REMARK    2  A    between atoms: N4_20  and  C13_21
REMARK                            x       y       z     vdW  Elec       q    Type
REMARK                         _______ _______ _______ _____ _____    ______ ____
ROOT
ATOM      1  O1  UNL     1       2.274  -1.825  -0.163  0.00  0.00    -0.252 OA
ATOM      2  C1  UNL     1       1.718  -0.868  -0.769  0.00  0.00    +0.307 C 
ATOM      3  N1  UNL     1       2.521   0.226  -1.252  0.00  0.00    -0.269 N 
ATOM      4  N2  UNL     1       0.291  -0.900  -0.993  0.00  0.00    -0.282 N 
ATOM      5  C10 UNL     1      -0.542  -1.881  -0.283  0.00  0.00    +0.128 C 
ATOM      6  C11 UNL     1      -1.864  -1.240   0.151  0.00  0.00    +0.128 C 
ATOM      7  N3  UNL     1      -2.511  -0.521  -0.958  0.00  0.00    -0.282 N 
ATOM      8  C12 UNL     1      -3.899  -0.141  -0.849  0.00  0.00    +0.307 C 
ATOM      9  O4  UNL     1      -4.545   0.179  -1.885  0.00  0.00    -0.252 OA
ATOM     10  N4  UNL     1      -4.547  -0.093   0.434  0.00  0.00    -0.267 N 
ATOM     11  C19 UNL     1      -1.801  -0.354  -2.234  0.00  0.00    +0.128 C 
ATOM     12  C20 UNL     1      -0.326  -0.013  -1.992  0.00  0.00    +0.128 C 
ATOM     13  H1  UNL     1       2.149   0.830  -2.017  0.00  0.00    +0.156 HD
ATOM     14  H13 UNL     1      -3.956   0.051   1.283  0.00  0.00    +0.156 HD
ENDROOT
BRANCH   3  15
ATOM     15  C2  UNL     1       3.868   0.480  -0.814  0.00  0.00    +0.038 A 
ATOM     16  C3  UNL     1       4.787   1.052  -1.710  0.00  0.00    +0.027 A 
ATOM     17  C4  UNL     1       6.099   1.323  -1.306  0.00  0.00    +0.051 A 
ATOM     18  C5  UNL     1       6.496   1.038   0.002  0.00  0.00    +0.162 A 
ATOM     19  C6  UNL     1       5.574   0.516   0.917  0.00  0.00    +0.164 A 
ATOM     20  C7  UNL     1       4.267   0.228   0.513  0.00  0.00    +0.072 A 
ATOM     21  O2  UNL     1       5.980   0.292   2.237  0.00  0.00    -0.485 OA
ATOM     22  C8  UNL     1       7.209   0.828   2.733  0.00  0.00    +0.270 C 
ATOM     23  C9  UNL     1       8.298   0.746   1.655  0.00  0.00    +0.270 C 
ATOM     24  O3  UNL     1       7.810   1.273   0.419  0.00  0.00    -0.485 OA
ENDBRANCH   3  15
BRANCH  10  25
ATOM     25  C13 UNL     1      -5.973  -0.027   0.594  0.00  0.00    +0.070 A 
ATOM     26  C14 UNL     1      -6.516   0.821   1.572  0.00  0.00    +0.026 A 
ATOM     27  C15 UNL     1      -7.900   0.892   1.758  0.00  0.00    +0.002 A 
ATOM     28  C16 UNL     1      -8.752   0.106   0.979  0.00  0.00    +0.003 A 
ATOM     29  C17 UNL     1      -8.221  -0.761   0.021  0.00  0.00    +0.040 A 
ATOM     30  C18 UNL     1      -6.837  -0.837  -0.171  0.00  0.00    +0.145 A 
ATOM     31  F1  UNL     1      -6.344  -1.732  -1.064  0.00  0.00    -0.204 F 
ENDBRANCH  10  25
TORSDOF 2
