MODEL 1
REMARK VINA RESULT:    -6.242      0.000      0.000
REMARK INTER + INTRA:          -8.077
REMARK INTER:                  -7.702
REMARK INTRA:                  -0.375
REMARK UNBOUND:                -0.375
REMARK  Name = /home/qwerty/github/datacon2025hack/step_04_hit_selection/docking/ligands/lig_451.pdb
REMARK  7 active torsions:
REMARK  status: ('A' for Active; 'I' for Inactive)
REMARK    1  A    between atoms: C1_1  and  O1_2
REMARK    2  A    between atoms: O1_2  and  C2_3
REMARK    3  A    between atoms: C5_6  and  C6_7
REMARK    4  A    between atoms: C9_12  and  C10_14
REMARK    5  A    between atoms: C13_17  and  N2_18
REMARK    6  A    between atoms: N2_18  and  C14_19
REMARK    7  A    between atoms: N2_18  and  C15_20
REMARK                            x       y       z     vdW  Elec       q    Type
REMARK                         _______ _______ _______ _____ _____    ______ ____
ROOT
ATOM      1  C6  UNL     1      21.957   6.197  21.898  0.00  0.00    +0.080 A 
ATOM      2  C7  UNL     1      20.896   5.600  21.208  0.00  0.00    +0.076 A 
ATOM      3  S1  UNL     1      20.228   4.410  22.192  0.00  0.00    -0.060 S 
ATOM      4  C8  UNL     1      21.309   4.694  23.444  0.00  0.00    +0.165 A 
ATOM      5  N1  UNL     1      21.296   3.988  24.691  0.00  0.00    -0.261 N 
ATOM      6  C9  UNL     1      22.282   4.181  25.721  0.00  0.00    +0.250 C 
ATOM      7  O2  UNL     1      23.351   4.796  25.460  0.00  0.00    -0.270 OA
ATOM      8  N3  UNL     1      22.176   5.684  23.141  0.00  0.00    -0.225 NA
ATOM      9  H7  UNL     1      20.549   3.270  24.827  0.00  0.00    +0.157 HD
ENDROOT
BRANCH   1  13
ATOM     10  C2  UNL     1      24.450   9.355  20.341  0.00  0.00    +0.120 A 
ATOM     11  C3  UNL     1      23.057   9.464  20.280  0.00  0.00    +0.046 A 
ATOM     12  C4  UNL     1      22.240   8.448  20.782  0.00  0.00    +0.013 A 
ATOM     13  C5  UNL     1      22.804   7.292  21.355  0.00  0.00    +0.001 A 
ATOM     14  C18 UNL     1      24.206   7.188  21.420  0.00  0.00    +0.013 A 
ATOM     15  C19 UNL     1      25.022   8.207  20.917  0.00  0.00    +0.046 A 
BRANCH  10  17
ATOM     16  C1  UNL     1      25.085  10.933  18.509  0.00  0.00    +0.277 C 
ATOM     17  O1  UNL     1      25.225  10.403  19.823  0.00  0.00    -0.495 OA
ENDBRANCH  10  17
ENDBRANCH   1  13
BRANCH   6  18
ATOM     18  C10 UNL     1      22.074   3.636  27.085  0.00  0.00    +0.037 A 
ATOM     19  C11 UNL     1      21.367   4.363  28.057  0.00  0.00    +0.015 A 
ATOM     20  C12 UNL     1      21.184   3.843  29.341  0.00  0.00    +0.024 A 
ATOM     21  C13 UNL     1      21.709   2.583  29.693  0.00  0.00    +0.029 A 
ATOM     22  C16 UNL     1      22.427   1.865  28.717  0.00  0.00    +0.024 A 
ATOM     23  C17 UNL     1      22.611   2.387  27.434  0.00  0.00    +0.015 A 
BRANCH  21  24
ATOM     24  N2  UNL     1      21.517   2.041  31.027  0.00  0.00    -0.336 N 
ATOM     25  C14 UNL     1      20.863   0.740  31.217  0.00  0.00    +0.129 C 
ATOM     26  C15 UNL     1      21.973   2.784  32.208  0.00  0.00    +0.129 C 
ENDBRANCH  21  24
ENDBRANCH   6  18
TORSDOF 4
ENDMDL
MODEL 2
REMARK VINA RESULT:    -6.073      3.500      4.818
REMARK INTER + INTRA:          -7.868
REMARK INTER:                  -7.474
REMARK INTRA:                  -0.393
REMARK UNBOUND:                -0.375
REMARK  Name = /home/qwerty/github/datacon2025hack/step_04_hit_selection/docking/ligands/lig_451.pdb
REMARK  7 active torsions:
REMARK  status: ('A' for Active; 'I' for Inactive)
REMARK    1  A    between atoms: C1_1  and  O1_2
REMARK    2  A    between atoms: O1_2  and  C2_3
REMARK    3  A    between atoms: C5_6  and  C6_7
REMARK    4  A    between atoms: C9_12  and  C10_14
REMARK    5  A    between atoms: C13_17  and  N2_18
REMARK    6  A    between atoms: N2_18  and  C14_19
REMARK    7  A    between atoms: N2_18  and  C15_20
REMARK                            x       y       z     vdW  Elec       q    Type
REMARK                         _______ _______ _______ _____ _____    ______ ____
ROOT
ATOM      1  C6  UNL     1      19.299   8.635  19.339  0.00  0.00    +0.080 A 
ATOM      2  C7  UNL     1      18.493   7.890  18.471  0.00  0.00    +0.076 A 
ATOM      3  S1  UNL     1      18.492   6.290  18.993  0.00  0.00    -0.060 S 
ATOM      4  C8  UNL     1      19.512   6.604  20.287  0.00  0.00    +0.165 A 
ATOM      5  N1  UNL     1      19.941   5.613  21.229  0.00  0.00    -0.261 N 
ATOM      6  C9  UNL     1      20.885   5.877  22.283  0.00  0.00    +0.250 C 
ATOM      7  O2  UNL     1      21.573   6.934  22.260  0.00  0.00    -0.270 OA
ATOM      8  N3  UNL     1      19.860   7.907  20.345  0.00  0.00    -0.225 NA
ATOM      9  H7  UNL     1      19.572   4.644  21.107  0.00  0.00    +0.157 HD
ENDROOT
BRANCH   1  13
ATOM     10  C2  UNL     1      20.089  12.857  18.944  0.00  0.00    +0.120 A 
ATOM     11  C3  UNL     1      18.837  12.414  19.380  0.00  0.00    +0.046 A 
ATOM     12  C4  UNL     1      18.570  11.049  19.512  0.00  0.00    +0.013 A 
ATOM     13  C5  UNL     1      19.557  10.093  19.204  0.00  0.00    +0.001 A 
ATOM     14  C18 UNL     1      20.818  10.542  18.772  0.00  0.00    +0.013 A 
ATOM     15  C19 UNL     1      21.083  11.909  18.640  0.00  0.00    +0.046 A 
BRANCH  10  17
ATOM     16  C1  UNL     1      20.100  15.175  19.881  0.00  0.00    +0.277 C 
ATOM     17  O1  UNL     1      20.306  14.238  18.829  0.00  0.00    -0.495 OA
ENDBRANCH  10  17
ENDBRANCH   1  13
BRANCH   6  18
ATOM     18  C10 UNL     1      21.087   4.905  23.386  0.00  0.00    +0.037 A 
ATOM     19  C11 UNL     1      21.927   5.202  24.471  0.00  0.00    +0.015 A 
ATOM     20  C12 UNL     1      22.115   4.276  25.500  0.00  0.00    +0.024 A 
ATOM     21  C13 UNL     1      21.472   3.022  25.472  0.00  0.00    +0.029 A 
ATOM     22  C16 UNL     1      20.639   2.726  24.375  0.00  0.00    +0.024 A 
ATOM     23  C17 UNL     1      20.453   3.653  23.345  0.00  0.00    +0.015 A 
BRANCH  21  24
ATOM     24  N2  UNL     1      21.664   2.060  26.542  0.00  0.00    -0.336 N 
ATOM     25  C14 UNL     1      22.713   2.265  27.550  0.00  0.00    +0.129 C 
ATOM     26  C15 UNL     1      20.815   0.866  26.636  0.00  0.00    +0.129 C 
ENDBRANCH  21  24
ENDBRANCH   6  18
TORSDOF 4
ENDMDL
MODEL 3
REMARK VINA RESULT:    -6.031     11.565     12.649
REMARK INTER + INTRA:          -7.816
REMARK INTER:                  -7.422
REMARK INTRA:                  -0.394
REMARK UNBOUND:                -0.375
REMARK  Name = /home/qwerty/github/datacon2025hack/step_04_hit_selection/docking/ligands/lig_451.pdb
REMARK  7 active torsions:
REMARK  status: ('A' for Active; 'I' for Inactive)
REMARK    1  A    between atoms: C1_1  and  O1_2
REMARK    2  A    between atoms: O1_2  and  C2_3
REMARK    3  A    between atoms: C5_6  and  C6_7
REMARK    4  A    between atoms: C9_12  and  C10_14
REMARK    5  A    between atoms: C13_17  and  N2_18
REMARK    6  A    between atoms: N2_18  and  C14_19
REMARK    7  A    between atoms: N2_18  and  C15_20
REMARK                            x       y       z     vdW  Elec       q    Type
REMARK                         _______ _______ _______ _____ _____    ______ ____
ROOT
ATOM      1  C6  UNL     1      20.936  16.039  28.305  0.00  0.00    +0.080 A 
ATOM      2  C7  UNL     1      21.271  16.426  29.608  0.00  0.00    +0.076 A 
ATOM      3  S1  UNL     1      19.855  16.513  30.513  0.00  0.00    -0.060 S 
ATOM      4  C8  UNL     1      18.881  16.065  29.223  0.00  0.00    +0.165 A 
ATOM      5  N1  UNL     1      17.458  15.916  29.306  0.00  0.00    -0.261 N 
ATOM      6  C9  UNL     1      16.625  15.617  28.172  0.00  0.00    +0.250 C 
ATOM      7  O2  UNL     1      17.089  15.730  27.005  0.00  0.00    -0.270 OA
ATOM      8  N3  UNL     1      19.603  15.842  28.105  0.00  0.00    -0.225 NA
ATOM      9  H7  UNL     1      17.013  16.075  30.238  0.00  0.00    +0.157 HD
ENDROOT
BRANCH   1  13
ATOM     10  C2  UNL     1      23.766  15.549  25.086  0.00  0.00    +0.120 A 
ATOM     11  C3  UNL     1      23.646  14.565  26.072  0.00  0.00    +0.046 A 
ATOM     12  C4  UNL     1      22.733  14.713  27.120  0.00  0.00    +0.013 A 
ATOM     13  C5  UNL     1      21.918  15.859  27.203  0.00  0.00    +0.001 A 
ATOM     14  C18 UNL     1      22.037  16.844  26.206  0.00  0.00    +0.013 A 
ATOM     15  C19 UNL     1      22.952  16.694  25.159  0.00  0.00    +0.046 A 
BRANCH  10  17
ATOM     16  C1  UNL     1      24.724  14.213  23.202  0.00  0.00    +0.277 C 
ATOM     17  O1  UNL     1      24.698  15.352  24.057  0.00  0.00    -0.495 OA
ENDBRANCH  10  17
ENDBRANCH   1  13
BRANCH   6  18
ATOM     18  C10 UNL     1      15.211  15.206  28.353  0.00  0.00    +0.037 A 
ATOM     19  C11 UNL     1      14.343  15.086  27.255  0.00  0.00    +0.015 A 
ATOM     20  C12 UNL     1      13.011  14.705  27.439  0.00  0.00    +0.024 A 
ATOM     21  C13 UNL     1      12.506  14.439  28.728  0.00  0.00    +0.029 A 
ATOM     22  C16 UNL     1      13.379  14.573  29.825  0.00  0.00    +0.024 A 
ATOM     23  C17 UNL     1      14.710  14.956  29.640  0.00  0.00    +0.015 A 
BRANCH  21  24
ATOM     24  N2  UNL     1      11.123  14.041  28.919  0.00  0.00    -0.336 N 
ATOM     25  C14 UNL     1      10.611  13.742  30.263  0.00  0.00    +0.129 C 
ATOM     26  C15 UNL     1      10.212  13.930  27.773  0.00  0.00    +0.129 C 
ENDBRANCH  21  24
ENDBRANCH   6  18
TORSDOF 4
ENDMDL
MODEL 4
REMARK VINA RESULT:    -5.878      1.531      2.182
REMARK INTER + INTRA:          -7.627
REMARK INTER:                  -7.237
REMARK INTRA:                  -0.391
REMARK UNBOUND:                -0.375
REMARK  Name = /home/qwerty/github/datacon2025hack/step_04_hit_selection/docking/ligands/lig_451.pdb
REMARK  7 active torsions:
REMARK  status: ('A' for Active; 'I' for Inactive)
REMARK    1  A    between atoms: C1_1  and  O1_2
REMARK    2  A    between atoms: O1_2  and  C2_3
REMARK    3  A    between atoms: C5_6  and  C6_7
REMARK    4  A    between atoms: C9_12  and  C10_14
REMARK    5  A    between atoms: C13_17  and  N2_18
REMARK    6  A    between atoms: N2_18  and  C14_19
REMARK    7  A    between atoms: N2_18  and  C15_20
REMARK                            x       y       z     vdW  Elec       q    Type
REMARK                         _______ _______ _______ _____ _____    ______ ____
ROOT
ATOM      1  C6  UNL     1      20.715   4.835  22.318  0.00  0.00    +0.080 A 
ATOM      2  C7  UNL     1      19.424   4.506  21.890  0.00  0.00    +0.076 A 
ATOM      3  S1  UNL     1      18.676   3.616  23.106  0.00  0.00    -0.060 S 
ATOM      4  C8  UNL     1      20.013   3.679  24.118  0.00  0.00    +0.165 A 
ATOM      5  N1  UNL     1      20.059   3.093  25.424  0.00  0.00    -0.261 N 
ATOM      6  C9  UNL     1      21.241   3.079  26.245  0.00  0.00    +0.250 C 
ATOM      7  O2  UNL     1      22.361   3.358  25.738  0.00  0.00    -0.270 OA
ATOM      8  N3  UNL     1      21.030   4.370  23.559  0.00  0.00    -0.225 NA
ATOM      9  H7  UNL     1      19.194   2.619  25.768  0.00  0.00    +0.157 HD
ENDROOT
BRANCH   1  13
ATOM     10  C2  UNL     1      23.548   7.071  19.953  0.00  0.00    +0.120 A 
ATOM     11  C3  UNL     1      23.498   7.244  21.340  0.00  0.00    +0.046 A 
ATOM     12  C4  UNL     1      22.585   6.525  22.116  0.00  0.00    +0.013 A 
ATOM     13  C5  UNL     1      21.695   5.615  21.515  0.00  0.00    +0.001 A 
ATOM     14  C18 UNL     1      21.751   5.439  20.120  0.00  0.00    +0.013 A 
ATOM     15  C19 UNL     1      22.666   6.159  19.345  0.00  0.00    +0.046 A 
BRANCH  10  17
ATOM     16  C1  UNL     1      25.485   8.644  19.803  0.00  0.00    +0.277 C 
ATOM     17  O1  UNL     1      24.483   7.817  19.221  0.00  0.00    -0.495 OA
ENDBRANCH  10  17
ENDBRANCH   1  13
BRANCH   6  18
ATOM     18  C10 UNL     1      21.167   2.709  27.680  0.00  0.00    +0.037 A 
ATOM     19  C11 UNL     1      20.791   1.417  28.079  0.00  0.00    +0.015 A 
ATOM     20  C12 UNL     1      20.717   1.083  29.434  0.00  0.00    +0.024 A 
ATOM     21  C13 UNL     1      21.012   2.034  30.431  0.00  0.00    +0.029 A 
ATOM     22  C16 UNL     1      21.377   3.333  30.024  0.00  0.00    +0.024 A 
ATOM     23  C17 UNL     1      21.448   3.666  28.669  0.00  0.00    +0.015 A 
BRANCH  21  24
ATOM     24  N2  UNL     1      20.938   1.687  31.839  0.00  0.00    -0.336 N 
ATOM     25  C14 UNL     1      20.327   0.421  32.265  0.00  0.00    +0.129 C 
ATOM     26  C15 UNL     1      21.472   2.595  32.861  0.00  0.00    +0.129 C 
ENDBRANCH  21  24
ENDBRANCH   6  18
TORSDOF 4
ENDMDL
MODEL 5
REMARK VINA RESULT:    -5.818     15.544     18.221
REMARK INTER + INTRA:          -7.553
REMARK INTER:                  -7.171
REMARK INTRA:                  -0.382
REMARK UNBOUND:                -0.375
REMARK  Name = /home/qwerty/github/datacon2025hack/step_04_hit_selection/docking/ligands/lig_451.pdb
REMARK  7 active torsions:
REMARK  status: ('A' for Active; 'I' for Inactive)
REMARK    1  A    between atoms: C1_1  and  O1_2
REMARK    2  A    between atoms: O1_2  and  C2_3
REMARK    3  A    between atoms: C5_6  and  C6_7
REMARK    4  A    between atoms: C9_12  and  C10_14
REMARK    5  A    between atoms: C13_17  and  N2_18
REMARK    6  A    between atoms: N2_18  and  C14_19
REMARK    7  A    between atoms: N2_18  and  C15_20
REMARK                            x       y       z     vdW  Elec       q    Type
REMARK                         _______ _______ _______ _____ _____    ______ ____
ROOT
ATOM      1  C6  UNL     1       7.276   0.477  29.125  0.00  0.00    +0.080 A 
ATOM      2  C7  UNL     1       6.871   0.064  27.851  0.00  0.00    +0.076 A 
ATOM      3  S1  UNL     1       6.549   1.434  26.929  0.00  0.00    -0.060 S 
ATOM      4  C8  UNL     1       6.928   2.489  28.177  0.00  0.00    +0.165 A 
ATOM      5  N1  UNL     1       6.881   3.917  28.064  0.00  0.00    -0.261 N 
ATOM      6  C9  UNL     1       7.124   4.808  29.167  0.00  0.00    +0.250 C 
ATOM      7  O2  UNL     1       7.135   4.360  30.346  0.00  0.00    -0.270 OA
ATOM      8  N3  UNL     1       7.303   1.828  29.294  0.00  0.00    -0.225 NA
ATOM      9  H7  UNL     1       6.617   4.315  27.135  0.00  0.00    +0.157 HD
ENDROOT
BRANCH   1  13
ATOM     10  C2  UNL     1       8.372  -2.216  32.312  0.00  0.00    +0.120 A 
ATOM     11  C3  UNL     1       7.122  -1.590  32.320  0.00  0.00    +0.046 A 
ATOM     12  C4  UNL     1       6.756  -0.716  31.293  0.00  0.00    +0.013 A 
ATOM     13  C5  UNL     1       7.642  -0.447  30.232  0.00  0.00    +0.001 A 
ATOM     14  C18 UNL     1       8.896  -1.083  30.224  0.00  0.00    +0.013 A 
ATOM     15  C19 UNL     1       9.261  -1.958  31.253  0.00  0.00    +0.046 A 
BRANCH  10  17
ATOM     16  C1  UNL     1       9.393  -2.697  34.543  0.00  0.00    +0.277 C 
ATOM     17  O1  UNL     1       8.690  -3.085  33.367  0.00  0.00    -0.495 OA
ENDBRANCH  10  17
ENDBRANCH   1  13
BRANCH   6  18
ATOM     18  C10 UNL     1       7.333   6.259  28.942  0.00  0.00    +0.037 A 
ATOM     19  C11 UNL     1       7.844   6.739  27.725  0.00  0.00    +0.015 A 
ATOM     20  C12 UNL     1       8.043   8.108  27.527  0.00  0.00    +0.024 A 
ATOM     21  C13 UNL     1       7.744   9.038  28.544  0.00  0.00    +0.029 A 
ATOM     22  C16 UNL     1       7.243   8.548  29.766  0.00  0.00    +0.024 A 
ATOM     23  C17 UNL     1       7.045   7.179  29.963  0.00  0.00    +0.015 A 
BRANCH  21  24
ATOM     24  N2  UNL     1       7.949  10.460  28.338  0.00  0.00    -0.336 N 
ATOM     25  C14 UNL     1       7.795  11.406  29.451  0.00  0.00    +0.129 C 
ATOM     26  C15 UNL     1       8.313  10.979  27.014  0.00  0.00    +0.129 C 
ENDBRANCH  21  24
ENDBRANCH   6  18
TORSDOF 4
ENDMDL
MODEL 6
REMARK VINA RESULT:    -5.754     11.605     15.355
REMARK INTER + INTRA:          -7.474
REMARK INTER:                  -7.081
REMARK INTRA:                  -0.392
REMARK UNBOUND:                -0.375
REMARK  Name = /home/qwerty/github/datacon2025hack/step_04_hit_selection/docking/ligands/lig_451.pdb
REMARK  7 active torsions:
REMARK  status: ('A' for Active; 'I' for Inactive)
REMARK    1  A    between atoms: C1_1  and  O1_2
REMARK    2  A    between atoms: O1_2  and  C2_3
REMARK    3  A    between atoms: C5_6  and  C6_7
REMARK    4  A    between atoms: C9_12  and  C10_14
REMARK    5  A    between atoms: C13_17  and  N2_18
REMARK    6  A    between atoms: N2_18  and  C14_19
REMARK    7  A    between atoms: N2_18  and  C15_20
REMARK                            x       y       z     vdW  Elec       q    Type
REMARK                         _______ _______ _______ _____ _____    ______ ____
ROOT
ATOM      1  C6  UNL     1      18.529   6.848  37.120  0.00  0.00    +0.080 A 
ATOM      2  C7  UNL     1      17.855   5.856  37.842  0.00  0.00    +0.076 A 
ATOM      3  S1  UNL     1      16.287   6.390  38.135  0.00  0.00    -0.060 S 
ATOM      4  C8  UNL     1      16.525   7.850  37.345  0.00  0.00    +0.165 A 
ATOM      5  N1  UNL     1      15.515   8.855  37.193  0.00  0.00    -0.261 N 
ATOM      6  C9  UNL     1      15.758  10.139  36.589  0.00  0.00    +0.250 C 
ATOM      7  O2  UNL     1      16.942  10.530  36.400  0.00  0.00    -0.270 OA
ATOM      8  N3  UNL     1      17.777   7.952  36.849  0.00  0.00    -0.225 NA
ATOM      9  H7  UNL     1      14.569   8.646  37.582  0.00  0.00    +0.157 HD
ENDROOT
BRANCH   1  13
ATOM     10  C2  UNL     1      22.649   6.585  35.868  0.00  0.00    +0.120 A 
ATOM     11  C3  UNL     1      21.621   6.279  34.971  0.00  0.00    +0.046 A 
ATOM     12  C4  UNL     1      20.283   6.361  35.365  0.00  0.00    +0.013 A 
ATOM     13  C5  UNL     1      19.945   6.750  36.676  0.00  0.00    +0.001 A 
ATOM     14  C18 UNL     1      20.981   7.062  37.574  0.00  0.00    +0.013 A 
ATOM     15  C19 UNL     1      22.320   6.980  37.178  0.00  0.00    +0.046 A 
BRANCH  10  17
ATOM     16  C1  UNL     1      24.382   6.650  34.068  0.00  0.00    +0.277 C 
ATOM     17  O1  UNL     1      23.975   6.486  35.422  0.00  0.00    -0.495 OA
ENDBRANCH  10  17
ENDBRANCH   1  13
BRANCH   6  18
ATOM     18  C10 UNL     1      14.633  11.028  36.211  0.00  0.00    +0.037 A 
ATOM     19  C11 UNL     1      13.394  10.951  36.868  0.00  0.00    +0.015 A 
ATOM     20  C12 UNL     1      12.339  11.789  36.498  0.00  0.00    +0.024 A 
ATOM     21  C13 UNL     1      12.489  12.725  35.454  0.00  0.00    +0.029 A 
ATOM     22  C16 UNL     1      13.731  12.788  34.792  0.00  0.00    +0.024 A 
ATOM     23  C17 UNL     1      14.785  11.948  35.162  0.00  0.00    +0.015 A 
BRANCH  21  24
ATOM     24  N2  UNL     1      11.394  13.597  35.071  0.00  0.00    -0.336 N 
ATOM     25  C14 UNL     1      11.312  14.138  33.708  0.00  0.00    +0.129 C 
ATOM     26  C15 UNL     1      10.349  13.954  36.038  0.00  0.00    +0.129 C 
ENDBRANCH  21  24
ENDBRANCH   6  18
TORSDOF 4
ENDMDL
MODEL 7
REMARK VINA RESULT:    -5.743      8.221     12.201
REMARK INTER + INTRA:          -7.460
REMARK INTER:                  -7.079
REMARK INTRA:                  -0.381
REMARK UNBOUND:                -0.375
REMARK  Name = /home/qwerty/github/datacon2025hack/step_04_hit_selection/docking/ligands/lig_451.pdb
REMARK  7 active torsions:
REMARK  status: ('A' for Active; 'I' for Inactive)
REMARK    1  A    between atoms: C1_1  and  O1_2
REMARK    2  A    between atoms: O1_2  and  C2_3
REMARK    3  A    between atoms: C5_6  and  C6_7
REMARK    4  A    between atoms: C9_12  and  C10_14
REMARK    5  A    between atoms: C13_17  and  N2_18
REMARK    6  A    between atoms: N2_18  and  C14_19
REMARK    7  A    between atoms: N2_18  and  C15_20
REMARK                            x       y       z     vdW  Elec       q    Type
REMARK                         _______ _______ _______ _____ _____    ______ ____
ROOT
ATOM      1  C6  UNL     1      21.136   7.330  35.887  0.00  0.00    +0.080 A 
ATOM      2  C7  UNL     1      22.447   7.463  36.359  0.00  0.00    +0.076 A 
ATOM      3  S1  UNL     1      23.396   6.287  35.618  0.00  0.00    -0.060 S 
ATOM      4  C8  UNL     1      22.112   5.658  34.740  0.00  0.00    +0.165 A 
ATOM      5  N1  UNL     1      22.228   4.564  33.821  0.00  0.00    -0.261 N 
ATOM      6  C9  UNL     1      21.104   3.978  33.141  0.00  0.00    +0.250 C 
ATOM      7  O2  UNL     1      19.931   4.238  33.525  0.00  0.00    -0.270 OA
ATOM      8  N3  UNL     1      20.964   6.322  34.987  0.00  0.00    -0.225 NA
ATOM      9  H7  UNL     1      23.179   4.156  33.680  0.00  0.00    +0.157 HD
ENDROOT
BRANCH   1  13
ATOM     10  C2  UNL     1      17.838   9.837  37.091  0.00  0.00    +0.120 A 
ATOM     11  C3  UNL     1      18.449   8.987  38.017  0.00  0.00    +0.046 A 
ATOM     12  C4  UNL     1      19.518   8.171  37.639  0.00  0.00    +0.013 A 
ATOM     13  C5  UNL     1      19.998   8.187  36.315  0.00  0.00    +0.001 A 
ATOM     14  C18 UNL     1      19.384   9.048  35.387  0.00  0.00    +0.013 A 
ATOM     15  C19 UNL     1      18.314   9.864  35.768  0.00  0.00    +0.046 A 
BRANCH  10  17
ATOM     16  C1  UNL     1      16.542  11.975  37.096  0.00  0.00    +0.277 C 
ATOM     17  O1  UNL     1      16.768  10.636  37.522  0.00  0.00    -0.495 OA
ENDBRANCH  10  17
ENDBRANCH   1  13
BRANCH   6  18
ATOM     18  C10 UNL     1      21.304   3.042  32.007  0.00  0.00    +0.037 A 
ATOM     19  C11 UNL     1      22.582   2.802  31.479  0.00  0.00    +0.015 A 
ATOM     20  C12 UNL     1      22.757   1.924  30.406  0.00  0.00    +0.024 A 
ATOM     21  C13 UNL     1      21.655   1.263  29.825  0.00  0.00    +0.029 A 
ATOM     22  C16 UNL     1      20.374   1.518  30.352  0.00  0.00    +0.024 A 
ATOM     23  C17 UNL     1      20.201   2.397  31.424  0.00  0.00    +0.015 A 
BRANCH  21  24
ATOM     24  N2  UNL     1      21.836   0.349  28.712  0.00  0.00    -0.336 N 
ATOM     25  C14 UNL     1      22.593  -0.897  28.885  0.00  0.00    +0.129 C 
ATOM     26  C15 UNL     1      21.265   0.655  27.394  0.00  0.00    +0.129 C 
ENDBRANCH  21  24
ENDBRANCH   6  18
TORSDOF 4
ENDMDL
MODEL 8
REMARK VINA RESULT:    -5.696      6.218      8.867
REMARK INTER + INTRA:          -7.402
REMARK INTER:                  -7.022
REMARK INTRA:                  -0.380
REMARK UNBOUND:                -0.375
REMARK  Name = /home/qwerty/github/datacon2025hack/step_04_hit_selection/docking/ligands/lig_451.pdb
REMARK  7 active torsions:
REMARK  status: ('A' for Active; 'I' for Inactive)
REMARK    1  A    between atoms: C1_1  and  O1_2
REMARK    2  A    between atoms: O1_2  and  C2_3
REMARK    3  A    between atoms: C5_6  and  C6_7
REMARK    4  A    between atoms: C9_12  and  C10_14
REMARK    5  A    between atoms: C13_17  and  N2_18
REMARK    6  A    between atoms: N2_18  and  C14_19
REMARK    7  A    between atoms: N2_18  and  C15_20
REMARK                            x       y       z     vdW  Elec       q    Type
REMARK                         _______ _______ _______ _____ _____    ______ ____
ROOT
ATOM      1  C6  UNL     1      19.466   1.306  25.876  0.00  0.00    +0.080 A 
ATOM      2  C7  UNL     1      20.279   1.682  24.800  0.00  0.00    +0.076 A 
ATOM      3  S1  UNL     1      21.385   2.825  25.349  0.00  0.00    -0.060 S 
ATOM      4  C8  UNL     1      20.789   2.800  26.917  0.00  0.00    +0.165 A 
ATOM      5  N1  UNL     1      21.323   3.585  27.991  0.00  0.00    -0.261 N 
ATOM      6  C9  UNL     1      20.747   3.619  29.309  0.00  0.00    +0.250 C 
ATOM      7  O2  UNL     1      19.590   3.156  29.502  0.00  0.00    -0.270 OA
ATOM      8  N3  UNL     1      19.761   1.935  27.047  0.00  0.00    -0.225 NA
ATOM      9  H7  UNL     1      22.149   4.188  27.779  0.00  0.00    +0.157 HD
ENDROOT
BRANCH   1  13
ATOM     10  C2  UNL     1      16.241  -1.550  25.658  0.00  0.00    +0.120 A 
ATOM     11  C3  UNL     1      17.304  -1.621  24.753  0.00  0.00    +0.046 A 
ATOM     12  C4  UNL     1      18.354  -0.701  24.814  0.00  0.00    +0.013 A 
ATOM     13  C5  UNL     1      18.359   0.317  25.787  0.00  0.00    +0.001 A 
ATOM     14  C18 UNL     1      17.291   0.381  26.700  0.00  0.00    +0.013 A 
ATOM     15  C19 UNL     1      16.240  -0.540  26.637  0.00  0.00    +0.046 A 
BRANCH  10  17
ATOM     16  C1  UNL     1      13.907  -2.332  26.101  0.00  0.00    +0.277 C 
ATOM     17  O1  UNL     1      15.211  -2.497  25.553  0.00  0.00    -0.495 OA
ENDBRANCH  10  17
ENDBRANCH   1  13
BRANCH   6  18
ATOM     18  C10 UNL     1      21.485   4.223  30.447  0.00  0.00    +0.037 A 
ATOM     19  C11 UNL     1      21.911   3.441  31.532  0.00  0.00    +0.015 A 
ATOM     20  C12 UNL     1      22.598   4.022  32.601  0.00  0.00    +0.024 A 
ATOM     21  C13 UNL     1      22.874   5.405  32.619  0.00  0.00    +0.029 A 
ATOM     22  C16 UNL     1      22.432   6.185  31.532  0.00  0.00    +0.024 A 
ATOM     23  C17 UNL     1      21.744   5.602  30.464  0.00  0.00    +0.015 A 
BRANCH  21  24
ATOM     24  N2  UNL     1      23.590   6.008  33.729  0.00  0.00    -0.336 N 
ATOM     25  C14 UNL     1      24.888   6.660  33.513  0.00  0.00    +0.129 C 
ATOM     26  C15 UNL     1      23.028   5.979  35.085  0.00  0.00    +0.129 C 
ENDBRANCH  21  24
ENDBRANCH   6  18
TORSDOF 4
ENDMDL
MODEL 9
REMARK VINA RESULT:    -5.683      7.488      9.244
REMARK INTER + INTRA:          -7.387
REMARK INTER:                  -7.009
REMARK INTRA:                  -0.378
REMARK UNBOUND:                -0.375
REMARK  Name = /home/qwerty/github/datacon2025hack/step_04_hit_selection/docking/ligands/lig_451.pdb
REMARK  7 active torsions:
REMARK  status: ('A' for Active; 'I' for Inactive)
REMARK    1  A    between atoms: C1_1  and  O1_2
REMARK    2  A    between atoms: O1_2  and  C2_3
REMARK    3  A    between atoms: C5_6  and  C6_7
REMARK    4  A    between atoms: C9_12  and  C10_14
REMARK    5  A    between atoms: C13_17  and  N2_18
REMARK    6  A    between atoms: N2_18  and  C14_19
REMARK    7  A    between atoms: N2_18  and  C15_20
REMARK                            x       y       z     vdW  Elec       q    Type
REMARK                         _______ _______ _______ _____ _____    ______ ____
ROOT
ATOM      1  C6  UNL     1      21.457   3.506  31.757  0.00  0.00    +0.080 A 
ATOM      2  C7  UNL     1      21.294   2.626  32.833  0.00  0.00    +0.076 A 
ATOM      3  S1  UNL     1      20.369   1.321  32.312  0.00  0.00    -0.060 S 
ATOM      4  C8  UNL     1      20.209   1.923  30.755  0.00  0.00    +0.165 A 
ATOM      5  N1  UNL     1      19.499   1.254  29.705  0.00  0.00    -0.261 N 
ATOM      6  C9  UNL     1      19.295   1.823  28.399  0.00  0.00    +0.250 C 
ATOM      7  O2  UNL     1      19.513   3.050  28.207  0.00  0.00    -0.270 OA
ATOM      8  N3  UNL     1      20.848   3.103  30.607  0.00  0.00    -0.225 NA
ATOM      9  H7  UNL     1      19.080   0.324  29.927  0.00  0.00    +0.157 HD
ENDROOT
BRANCH   1  13
ATOM     10  C2  UNL     1      23.663   7.206  31.988  0.00  0.00    +0.120 A 
ATOM     11  C3  UNL     1      22.629   7.062  31.059  0.00  0.00    +0.046 A 
ATOM     12  C4  UNL     1      21.907   5.868  30.975  0.00  0.00    +0.013 A 
ATOM     13  C5  UNL     1      22.212   4.786  31.824  0.00  0.00    +0.001 A 
ATOM     14  C18 UNL     1      23.249   4.937  32.762  0.00  0.00    +0.013 A 
ATOM     15  C19 UNL     1      23.970   6.133  32.843  0.00  0.00    +0.046 A 
BRANCH  10  17
ATOM     16  C1  UNL     1      23.792   9.684  31.677  0.00  0.00    +0.277 C 
ATOM     17  O1  UNL     1      24.357   8.425  32.031  0.00  0.00    -0.495 OA
ENDBRANCH  10  17
ENDBRANCH   1  13
BRANCH   6  18
ATOM     18  C10 UNL     1      18.801   0.990  27.275  0.00  0.00    +0.037 A 
ATOM     19  C11 UNL     1      17.464   0.565  27.220  0.00  0.00    +0.015 A 
ATOM     20  C12 UNL     1      17.011  -0.225  26.159  0.00  0.00    +0.024 A 
ATOM     21  C13 UNL     1      17.885  -0.619  25.125  0.00  0.00    +0.029 A 
ATOM     22  C16 UNL     1      19.228  -0.199  25.194  0.00  0.00    +0.024 A 
ATOM     23  C17 UNL     1      19.679   0.590  26.256  0.00  0.00    +0.015 A 
BRANCH  21  24
ATOM     24  N2  UNL     1      17.415  -1.438  24.023  0.00  0.00    -0.336 N 
ATOM     25  C14 UNL     1      17.056  -0.825  22.737  0.00  0.00    +0.129 C 
ATOM     26  C15 UNL     1      17.291  -2.893  24.173  0.00  0.00    +0.129 C 
ENDBRANCH  21  24
ENDBRANCH   6  18
TORSDOF 4
ENDMDL
