REMARK  Name = /home/qwerty/github/datacon2025hack/step_04_hit_selection/docking/ligands/lig_695.pdb
REMARK  2 active torsions:
REMARK  status: ('A' for Active; 'I' for Inactive)
REMARK    1  A    between atoms: C1_1  and  C2_2
REMARK    2  A    between atoms: C9_11  and  C10_12
REMARK                            x       y       z     vdW  Elec       q    Type
REMARK                         _______ _______ _______ _____ _____    ______ ____
ROOT
ATOM      1  C1  UNL     1      -0.123   4.205  -1.258  0.00  0.00    +0.066 C 
ATOM      2  C2  UNL     1      -0.085   2.771  -0.836  0.00  0.00    +0.044 A 
ATOM      3  C3  UNL     1      -1.126   2.228  -0.077  0.00  0.00    +0.066 A 
ATOM      4  C4  UNL     1      -1.050   0.881   0.305  0.00  0.00    +0.125 A 
ATOM      5  N1  UNL     1      -2.089   0.260   1.087  0.00  0.00    -0.315 N 
ATOM      6  C5  UNL     1      -3.327   0.911   1.482  0.00  0.00    +0.106 C 
ATOM      7  C6  UNL     1      -4.168  -0.172   2.146  0.00  0.00    +0.020 C 
ATOM      8  C7  UNL     1      -3.205  -1.311   2.470  0.00  0.00    +0.020 C 
ATOM      9  C8  UNL     1      -2.001  -1.111   1.561  0.00  0.00    +0.106 C 
ATOM     10  N2  UNL     1       0.033   0.149  -0.071  0.00  0.00    -0.212 NA
ATOM     11  C9  UNL     1       1.043   0.685  -0.807  0.00  0.00    +0.166 A 
ATOM     12  N3  UNL     1       0.973   1.991  -1.181  0.00  0.00    -0.232 NA
ENDROOT
BRANCH  11  13
ATOM     13  C10 UNL     1       2.207  -0.144  -1.197  0.00  0.00    +0.065 A 
ATOM     14  C11 UNL     1       3.269   0.391  -1.966  0.00  0.00    +0.015 A 
ATOM     15  C12 UNL     1       4.372  -0.412  -2.329  0.00  0.00    +0.004 A 
ATOM     16  C13 UNL     1       4.432  -1.758  -1.931  0.00  0.00    +0.049 A 
ATOM     17  C14 UNL     1       3.377  -2.260  -1.177  0.00  0.00    +0.167 A 
ATOM     18  C15 UNL     1       2.312  -1.492  -0.824  0.00  0.00    +0.177 A 
ATOM     19  O1  UNL     1       1.431  -2.260  -0.082  0.00  0.00    -0.452 OA
ATOM     20  C16 UNL     1       1.974  -3.581   0.036  0.00  0.00    +0.466 C 
ATOM     21  O2  UNL     1       3.216  -3.538  -0.677  0.00  0.00    -0.453 OA
ENDBRANCH  11  13
TORSDOF 1
