REMARK  Name = /home/qwerty/github/datacon2025hack/step_04_hit_selection/docking/ligands/lig_386.pdb
REMARK  9 active torsions:
REMARK  status: ('A' for Active; 'I' for Inactive)
REMARK    1  A    between atoms: C1_1  and  N1_2
REMARK    2  A    between atoms: C4_6  and  C5_7
REMARK    3  A    between atoms: C5_7  and  N3_8
REMARK    4  A    between atoms: N3_8  and  C6_9
REMARK    5  A    between atoms: C6_9  and  C7_10
REMARK    6  A    between atoms: C7_10  and  N4_11
REMARK    7  A    between atoms: C8_12  and  C9_14
REMARK    8  A    between atoms: N5_16  and  C11_17
REMARK    9  A    between atoms: N6_20  and  C13_21
REMARK                            x       y       z     vdW  Elec       q    Type
REMARK                         _______ _______ _______ _____ _____    ______ ____
ROOT
ATOM      1  C6  UNL     1      -1.458  -1.556  -0.428  0.00  0.00    +0.035 C 
ATOM      2  C14 UNL     1      -1.729  -1.777   1.074  0.00  0.00    +0.024 C 
ATOM      3  C15 UNL     1      -1.869  -3.280   1.271  0.00  0.00    +0.002 C 
ATOM      4  C16 UNL     1      -2.244  -3.864  -0.085  0.00  0.00    +0.002 C 
ATOM      5  C17 UNL     1      -2.269  -2.699  -1.068  0.00  0.00    +0.024 C 
ENDROOT
BRANCH   1   6
ATOM      6  N3  UNL     1      -2.022  -0.275  -0.921  0.00  0.00    -0.304 NA
ATOM      7  H8  UNL     1      -1.874  -0.210  -1.957  0.00  0.00    +0.123 HD
BRANCH   6   8
ATOM      8  C5  UNL     1      -1.482   0.942  -0.302  0.00  0.00    +0.136 C 
BRANCH   8  14
ATOM      9  C1  UNL     1      -4.296   1.392   0.942  0.00  0.00    +0.150 C 
ATOM     10  N1  UNL     1      -3.624   2.258  -0.022  0.00  0.00    -0.336 N 
ATOM     11  C2  UNL     1      -4.135   3.356  -0.611  0.00  0.00    +0.199 A 
ATOM     12  N2  UNL     1      -3.293   3.898  -1.518  0.00  0.00    -0.244 NA
ATOM     13  C3  UNL     1      -2.209   3.094  -1.495  0.00  0.00    +0.135 A 
ATOM     14  C4  UNL     1      -2.409   2.087  -0.576  0.00  0.00    +0.052 A 
ENDBRANCH   8  14
ENDBRANCH   6   8
ENDBRANCH   1   6
BRANCH   1  15
ATOM     15  C7  UNL     1       0.047  -1.741  -0.822  0.00  0.00    +0.126 C 
BRANCH  15  16
ATOM     16  N4  UNL     1       0.979  -0.876  -0.092  0.00  0.00    -0.308 N 
ATOM     17  C8  UNL     1       2.368  -0.818  -0.450  0.00  0.00    +0.262 C 
ATOM     18  O1  UNL     1       2.827  -1.632  -1.296  0.00  0.00    -0.269 OA
ATOM     19  H11 UNL     1       0.659  -0.313   0.722  0.00  0.00    +0.149 HD
BRANCH  17  20
ATOM     20  C9  UNL     1       3.263   0.194   0.158  0.00  0.00    +0.124 A 
ATOM     21  C10 UNL     1       2.855   1.320   0.860  0.00  0.00    +0.121 A 
ATOM     22  N5  UNL     1       3.951   2.010   1.229  0.00  0.00    -0.301 N 
ATOM     23  C11 UNL     1       3.988   3.219   2.045  0.00  0.00    +0.153 C 
ATOM     24  C12 UNL     1       4.998   1.297   0.772  0.00  0.00    +0.329 A 
ATOM     25  O2  UNL     1       6.201   1.630   0.954  0.00  0.00    -0.246 OA
ATOM     26  N6  UNL     1       4.618   0.186   0.107  0.00  0.00    -0.291 N 
ATOM     27  C13 UNL     1       5.493  -0.803  -0.521  0.00  0.00    +0.154 C 
ENDBRANCH  17  20
ENDBRANCH  15  16
ENDBRANCH   1  15
TORSDOF 6
