REMARK  Name = /home/qwerty/github/datacon2025hack/step_04_hit_selection/docking/ligands/lig_11.pdb
REMARK  7 active torsions:
REMARK  status: ('A' for Active; 'I' for Inactive)
REMARK    1  A    between atoms: C1_1  and  C2_2
REMARK    2  A    between atoms: C2_2  and  C3_3
REMARK    3  A    between atoms: C2_2  and  C4_4
REMARK    4  A    between atoms: C10_10  and  N1_11
REMARK    5  A    between atoms: N2_14  and  C12_15
REMARK    6  A    between atoms: N4_18  and  C14_19
REMARK    7  A    between atoms: C15_20  and  C16_21
REMARK                            x       y       z     vdW  Elec       q    Type
REMARK                         _______ _______ _______ _____ _____    ______ ____
ROOT
ATOM      1  N1  UNL     1       0.300   0.099  -0.163  0.00  0.00    -0.292 N 
ATOM      2  C11 UNL     1       1.636  -0.374   0.043  0.00  0.00    +0.304 C 
ATOM      3  O1  UNL     1       2.262  -0.062   1.092  0.00  0.00    -0.252 OA
ATOM      4  N2  UNL     1       2.248  -1.225  -0.936  0.00  0.00    -0.266 N 
ATOM      5  H12 UNL     1      -0.199  -0.186  -1.037  0.00  0.00    +0.151 HD
ATOM      6  H13 UNL     1       1.629  -1.698  -1.632  0.00  0.00    +0.156 HD
ENDROOT
BRANCH   1  13
ATOM      7  C4  UNL     1      -4.104   0.390   0.202  0.00  0.00    -0.044 A 
ATOM      8  C5  UNL     1      -4.453   1.721  -0.127  0.00  0.00    +0.004 A 
ATOM      9  C6  UNL     1      -3.480   2.731  -0.139  0.00  0.00    +0.004 A 
ATOM     10  C7  UNL     1      -2.162   2.401   0.177  0.00  0.00    -0.042 A 
ATOM     11  C8  UNL     1      -1.810   1.115   0.492  0.00  0.00    -0.024 A 
ATOM     12  C9  UNL     1      -2.760   0.091   0.517  0.00  0.00    +0.009 A 
ATOM     13  C10 UNL     1      -0.361   0.990   0.795  0.00  0.00    +0.105 C 
ATOM     14  C17 UNL     1       0.171   2.437   0.669  0.00  0.00    +0.032 C 
ATOM     15  C18 UNL     1      -1.006   3.326   0.219  0.00  0.00    +0.037 C 
BRANCH   7  17
ATOM     16  C1  UNL     1      -4.859  -1.773  -0.835  0.00  0.00    +0.012 C 
ATOM     17  C2  UNL     1      -5.167  -0.692   0.208  0.00  0.00    +0.013 C 
ATOM     18  C3  UNL     1      -5.324  -1.302   1.606  0.00  0.00    +0.012 C 
ENDBRANCH   7  17
ENDBRANCH   1  13
BRANCH   4  19
ATOM     19  C12 UNL     1       3.608  -1.665  -0.838  0.00  0.00    +0.084 A 
ATOM     20  C13 UNL     1       4.033  -2.971  -0.945  0.00  0.00    +0.158 A 
ATOM     21  N3  UNL     1       5.370  -3.008  -0.783  0.00  0.00    -0.177 NA
ATOM     22  N4  UNL     1       5.796  -1.767  -0.593  0.00  0.00    -0.261 N 
ATOM     23  C14 UNL     1       7.204  -1.434  -0.402  0.00  0.00    +0.173 C 
ATOM     24  C15 UNL     1       4.753  -0.905  -0.655  0.00  0.00    +0.163 A 
BRANCH  24  25
ATOM     25  C16 UNL     1       4.859   0.597  -0.558  0.00  0.00    +0.436 C 
ATOM     26  F1  UNL     1       5.991   1.041  -1.216  0.00  0.00    -0.164 F 
ATOM     27  F2  UNL     1       3.763   1.205  -1.142  0.00  0.00    -0.164 F 
ATOM     28  F3  UNL     1       4.935   0.969   0.771  0.00  0.00    -0.164 F 
ENDBRANCH  24  25
ENDBRANCH   4  19
TORSDOF 4
