REMARK  Name = /home/qwerty/github/datacon2025hack/step_04_hit_selection/docking/ligands/lig_208.pdb
REMARK  8 active torsions:
REMARK  status: ('A' for Active; 'I' for Inactive)
REMARK    1  A    between atoms: C1_1  and  C2_2
REMARK    2  A    between atoms: C3_4  and  C4_5
REMARK    3  A    between atoms: C10_12  and  C11_13
REMARK    4  A    between atoms: C11_13  and  C12_14
REMARK    5  A    between atoms: C11_13  and  N2_15
REMARK    6  A    between atoms: N2_15  and  C13_16
REMARK    7  A    between atoms: N3_19  and  C15_20
REMARK    8  A    between atoms: C15_20  and  C16_21
REMARK                            x       y       z     vdW  Elec       q    Type
REMARK                         _______ _______ _______ _____ _____    ______ ____
ROOT
ATOM      1  C11 UNL     1       0.822  -0.053   2.307  0.00  0.00    +0.113 C 
ATOM      2  C12 UNL     1       0.514   0.673   3.618  0.00  0.00    +0.034 C 
ENDROOT
BRANCH   1   8
ATOM      3  C1  UNL     1       3.146   2.211   2.948  0.00  0.00    +0.066 C 
ATOM      4  C2  UNL     1       3.249   1.035   2.025  0.00  0.00    +0.051 A 
ATOM      5  N1  UNL     1       4.402   0.831   1.328  0.00  0.00    -0.244 NA
ATOM      6  C3  UNL     1       4.357  -0.261   0.536  0.00  0.00    +0.109 A 
ATOM      7  S1  UNL     1       2.866  -1.023   0.673  0.00  0.00    -0.070 S 
ATOM      8  C10 UNL     1       2.247   0.068   1.797  0.00  0.00    +0.033 A 
BRANCH   6   9
ATOM      9  C4  UNL     1       5.480  -0.698  -0.324  0.00  0.00    +0.007 A 
ATOM     10  C5  UNL     1       5.374  -1.851  -1.124  0.00  0.00    +0.010 A 
ATOM     11  C6  UNL     1       6.443  -2.253  -1.932  0.00  0.00    +0.001 A 
ATOM     12  C7  UNL     1       7.626  -1.511  -1.951  0.00  0.00    +0.000 A 
ATOM     13  C8  UNL     1       7.743  -0.366  -1.161  0.00  0.00    +0.001 A 
ATOM     14  C9  UNL     1       6.678   0.041  -0.352  0.00  0.00    +0.010 A 
ENDBRANCH   6   9
ENDBRANCH   1   8
BRANCH   1  15
ATOM     15  N2  UNL     1      -0.147   0.329   1.260  0.00  0.00    -0.281 N 
ATOM     16  C13 UNL     1      -0.034   1.628   0.585  0.00  0.00    +0.134 C 
ATOM     17  C14 UNL     1      -1.283  -0.521   0.980  0.00  0.00    +0.303 C 
ATOM     18  O1  UNL     1      -1.575  -1.455   1.776  0.00  0.00    -0.253 OA
ATOM     19  N3  UNL     1      -2.093  -0.319  -0.191  0.00  0.00    -0.298 N 
ATOM     20  H16 UNL     1      -1.831   0.419  -0.879  0.00  0.00    +0.150 HD
BRANCH  19  21
ATOM     21  C15 UNL     1      -3.250  -1.175  -0.467  0.00  0.00    +0.124 C 
BRANCH  21  22
ATOM     22  C16 UNL     1      -4.019  -0.705  -1.723  0.00  0.00    +0.071 C 
ATOM     23  C17 UNL     1      -4.604   0.722  -1.527  0.00  0.00    +0.020 C 
ATOM     24  C18 UNL     1      -5.897   0.902  -2.323  0.00  0.00    +0.003 C 
ATOM     25  C19 UNL     1      -6.959  -0.123  -1.892  0.00  0.00    +0.015 C 
ATOM     26  C20 UNL     1      -6.338  -1.458  -1.443  0.00  0.00    +0.081 C 
ATOM     27  N4  UNL     1      -5.057  -1.685  -2.123  0.00  0.00    -0.312 NA
ATOM     28  H28 UNL     1      -4.737  -2.662  -1.927  0.00  0.00    +0.122 HD
ENDBRANCH  21  22
ENDBRANCH  19  21
ENDBRANCH   1  15
TORSDOF 5
