REMARK  Name = /home/qwerty/github/datacon2025hack/step_04_hit_selection/docking/ligands/lig_99.pdb
REMARK  8 active torsions:
REMARK  status: ('A' for Active; 'I' for Inactive)
REMARK    1  A    between atoms: C1_1  and  C2_2
REMARK    2  A    between atoms: C2_2  and  C3_3
REMARK    3  A    between atoms: C2_2  and  N1_4
REMARK    4  A    between atoms: N2_7  and  C5_8
REMARK    5  A    between atoms: C8_11  and  C9_12
REMARK    6  A    between atoms: C9_12  and  N3_13
REMARK    7  A    between atoms: N4_16  and  C11_17
REMARK    8  A    between atoms: C14_20  and  C15_21
REMARK                            x       y       z     vdW  Elec       q    Type
REMARK                         _______ _______ _______ _____ _____    ______ ____
ROOT
ATOM      1  N3  UNL     1       0.029  -3.234  -2.541  0.00  0.00    -0.295 N 
ATOM      2  C10 UNL     1      -0.935  -2.913  -1.528  0.00  0.00    +0.304 C 
ATOM      3  O2  UNL     1      -0.890  -3.490  -0.410  0.00  0.00    -0.252 OA
ATOM      4  N4  UNL     1      -1.975  -1.970  -1.816  0.00  0.00    -0.269 N 
ATOM      5  H14 UNL     1      -0.062  -2.778  -3.475  0.00  0.00    +0.151 HD
ATOM      6  H15 UNL     1      -2.139  -1.734  -2.818  0.00  0.00    +0.156 HD
ENDROOT
BRANCH   4   7
ATOM      7  C11 UNL     1      -2.849  -1.380  -0.835  0.00  0.00    +0.035 A 
ATOM      8  C12 UNL     1      -2.431  -1.151   0.489  0.00  0.00    +0.024 A 
ATOM      9  C13 UNL     1      -3.289  -0.534   1.405  0.00  0.00    +0.015 A 
ATOM     10  C14 UNL     1      -4.566  -0.104   1.006  0.00  0.00    +0.037 A 
ATOM     11  C20 UNL     1      -4.982  -0.330  -0.317  0.00  0.00    +0.015 A 
ATOM     12  C21 UNL     1      -4.127  -0.955  -1.228  0.00  0.00    +0.024 A 
BRANCH  10  13
ATOM     13  C15 UNL     1      -5.461   0.581   1.965  0.00  0.00    +0.247 C 
ATOM     14  O3  UNL     1      -5.391   0.296   3.192  0.00  0.00    -0.270 OA
ATOM     15  N5  UNL     1      -6.416   1.560   1.519  0.00  0.00    -0.293 N 
ATOM     16  C16 UNL     1      -5.979   2.678   0.676  0.00  0.00    +0.136 C 
ATOM     17  C17 UNL     1      -7.156   3.160  -0.178  0.00  0.00    +0.179 C 
ATOM     18  O4  UNL     1      -8.279   3.455   0.637  0.00  0.00    -0.377 OA
ATOM     19  C18 UNL     1      -8.747   2.272   1.257  0.00  0.00    +0.179 C 
ATOM     20  C19 UNL     1      -7.693   1.708   2.221  0.00  0.00    +0.136 C 
ENDBRANCH  10  13
ENDBRANCH   4   7
BRANCH   1  21
ATOM     21  C9  UNL     1       1.275  -3.937  -2.248  0.00  0.00    +0.141 C 
BRANCH  21  25
ATOM     22  C5  UNL     1       4.303  -0.989  -1.348  0.00  0.00    +0.035 A 
ATOM     23  C6  UNL     1       4.047  -1.364  -2.676  0.00  0.00    +0.023 A 
ATOM     24  C7  UNL     1       3.082  -2.335  -2.966  0.00  0.00    +0.007 A 
ATOM     25  C8  UNL     1       2.353  -2.939  -1.930  0.00  0.00    -0.030 A 
ATOM     26  C22 UNL     1       2.579  -2.539  -0.605  0.00  0.00    +0.007 A 
ATOM     27  C23 UNL     1       3.549  -1.573  -0.314  0.00  0.00    +0.023 A 
BRANCH  22  31
ATOM     28  N1  UNL     1       6.824   1.264   0.414  0.00  0.00    -0.297 N 
ATOM     29  C4  UNL     1       6.097   0.071   0.099  0.00  0.00    +0.304 C 
ATOM     30  O1  UNL     1       6.205  -0.950   0.833  0.00  0.00    -0.253 OA
ATOM     31  N2  UNL     1       5.278   0.032  -1.080  0.00  0.00    -0.269 N 
ATOM     32  H8  UNL     1       6.775   2.066  -0.255  0.00  0.00    +0.151 HD
ATOM     33  H9  UNL     1       5.458   0.747  -1.820  0.00  0.00    +0.156 HD
BRANCH  28  35
ATOM     34  C1  UNL     1       7.729   2.756   2.137  0.00  0.00    +0.027 C 
ATOM     35  C2  UNL     1       7.751   1.345   1.544  0.00  0.00    +0.068 C 
ATOM     36  C3  UNL     1       9.158   0.967   1.082  0.00  0.00    +0.027 C 
ENDBRANCH  28  35
ENDBRANCH  22  31
ENDBRANCH  21  25
ENDBRANCH   1  21
TORSDOF 6
