MODEL 1
REMARK VINA RESULT:    -6.321      0.000      0.000
REMARK INTER + INTRA:          -7.554
REMARK INTER:                  -7.061
REMARK INTRA:                  -0.494
REMARK UNBOUND:                -0.494
REMARK  Name = /home/qwerty/github/datacon2025hack/step_04_hit_selection/docking/ligands/lig_618.pdb
REMARK  3 active torsions:
REMARK  status: ('A' for Active; 'I' for Inactive)
REMARK    1  A    between atoms: C1_1  and  C2_2
REMARK    2  A    between atoms: C8_8  and  N1_9
REMARK    3  A    between atoms: N1_9  and  C9_10
REMARK                            x       y       z     vdW  Elec       q    Type
REMARK                         _______ _______ _______ _____ _____    ______ ____
ROOT
ATOM      1  C1  UNL     1      11.155  10.225  36.918  0.00  0.00    +0.044 C 
ATOM      2  C2  UNL     1      11.733  11.560  36.552  0.00  0.00    -0.050 A 
ATOM      3  C3  UNL     1      10.896  12.576  36.032  0.00  0.00    +0.005 A 
ATOM      4  C4  UNL     1      11.419  13.842  35.723  0.00  0.00    +0.024 A 
ATOM      5  C5  UNL     1      12.775  14.071  35.952  0.00  0.00    +0.039 A 
ATOM      6  C6  UNL     1      13.595  13.093  36.471  0.00  0.00    +0.003 A 
ATOM      7  C7  UNL     1      13.097  11.829  36.790  0.00  0.00    +0.011 A 
ATOM      8  C8  UNL     1      14.996  13.607  36.633  0.00  0.00    +0.190 C 
ATOM      9  C15 UNL     1      14.807  15.012  36.130  0.00  0.00    +0.242 C 
ATOM     10  O1  UNL     1      15.721  15.877  36.082  0.00  0.00    -0.273 OA
ATOM     11  N5  UNL     1      13.472  15.280  35.718  0.00  0.00    -0.283 N 
ATOM     12  H13 UNL     1      13.088  16.176  35.344  0.00  0.00    +0.155 HD
ENDROOT
BRANCH   8  13
ATOM     13  N1  UNL     1      15.930  12.865  35.779  0.00  0.00    -0.328 N 
ATOM     14  H8  UNL     1      15.914  13.052  34.750  0.00  0.00    +0.147 HD
BRANCH  13  15
ATOM     15  C9  UNL     1      16.927  11.954  36.279  0.00  0.00    +0.048 A 
ATOM     16  C10 UNL     1      18.282  12.379  36.351  0.00  0.00    +0.136 A 
ATOM     17  N2  UNL     1      19.259  11.544  36.819  0.00  0.00    -0.234 NA
ATOM     18  C11 UNL     1      18.911  10.298  37.217  0.00  0.00    +0.158 A 
ATOM     19  N3  UNL     1      19.718   9.350  37.702  0.00  0.00    -0.329 N 
ATOM     20  C12 UNL     1      18.878   8.314  37.943  0.00  0.00    +0.198 A 
ATOM     21  N4  UNL     1      17.580   8.578  37.629  0.00  0.00    -0.234 NA
ATOM     22  C13 UNL     1      17.637   9.842  37.172  0.00  0.00    +0.109 A 
ATOM     23  C14 UNL     1      16.601  10.642  36.706  0.00  0.00    +0.056 A 
ATOM     24  H10 UNL     1      20.750   9.396  37.859  0.00  0.00    +0.168 HD
ENDBRANCH  13  15
ENDBRANCH   8  13
TORSDOF 2
ENDMDL
MODEL 2
REMARK VINA RESULT:    -6.302      7.789     10.402
REMARK INTER + INTRA:          -7.533
REMARK INTER:                  -7.098
REMARK INTRA:                  -0.435
REMARK UNBOUND:                -0.494
REMARK  Name = /home/qwerty/github/datacon2025hack/step_04_hit_selection/docking/ligands/lig_618.pdb
REMARK  3 active torsions:
REMARK  status: ('A' for Active; 'I' for Inactive)
REMARK    1  A    between atoms: C1_1  and  C2_2
REMARK    2  A    between atoms: C8_8  and  N1_9
REMARK    3  A    between atoms: N1_9  and  C9_10
REMARK                            x       y       z     vdW  Elec       q    Type
REMARK                         _______ _______ _______ _____ _____    ______ ____
ROOT
ATOM      1  C1  UNL     1      11.389  11.848  33.977  0.00  0.00    +0.044 C 
ATOM      2  C2  UNL     1      11.657  12.819  32.867  0.00  0.00    -0.050 A 
ATOM      3  C3  UNL     1      12.382  14.007  33.124  0.00  0.00    +0.005 A 
ATOM      4  C4  UNL     1      12.673  14.904  32.084  0.00  0.00    +0.024 A 
ATOM      5  C5  UNL     1      12.237  14.589  30.798  0.00  0.00    +0.039 A 
ATOM      6  C6  UNL     1      11.543  13.428  30.534  0.00  0.00    +0.003 A 
ATOM      7  C7  UNL     1      11.247  12.519  31.551  0.00  0.00    +0.011 A 
ATOM      8  C8  UNL     1      11.213  13.328  29.074  0.00  0.00    +0.190 C 
ATOM      9  C15 UNL     1      11.841  14.605  28.586  0.00  0.00    +0.242 C 
ATOM     10  O1  UNL     1      11.847  14.979  27.384  0.00  0.00    -0.273 OA
ATOM     11  N5  UNL     1      12.449  15.359  29.630  0.00  0.00    -0.283 N 
ATOM     12  H13 UNL     1      12.954  16.268  29.547  0.00  0.00    +0.155 HD
ENDROOT
BRANCH   8  13
ATOM     13  N1  UNL     1       9.762  13.341  28.860  0.00  0.00    -0.328 N 
ATOM     14  H8  UNL     1       9.277  14.268  28.818  0.00  0.00    +0.147 HD
BRANCH  13  15
ATOM     15  C9  UNL     1       8.972  12.161  28.622  0.00  0.00    +0.048 A 
ATOM     16  C10 UNL     1       8.162  11.646  29.670  0.00  0.00    +0.136 A 
ATOM     17  N2  UNL     1       7.397  10.527  29.485  0.00  0.00    -0.234 NA
ATOM     18  C11 UNL     1       7.425   9.915  28.278  0.00  0.00    +0.158 A 
ATOM     19  N3  UNL     1       6.750   8.822  27.910  0.00  0.00    -0.329 N 
ATOM     20  C12 UNL     1       7.129   8.636  26.622  0.00  0.00    +0.198 A 
ATOM     21  N4  UNL     1       8.012   9.569  26.172  0.00  0.00    -0.234 NA
ATOM     22  C13 UNL     1       8.178  10.362  27.245  0.00  0.00    +0.109 A 
ATOM     23  C14 UNL     1       8.976  11.493  27.371  0.00  0.00    +0.056 A 
ATOM     24  H10 UNL     1       6.088   8.248  28.479  0.00  0.00    +0.168 HD
ENDBRANCH  13  15
ENDBRANCH   8  13
TORSDOF 2
ENDMDL
MODEL 3
REMARK VINA RESULT:    -6.213     17.412     18.029
REMARK INTER + INTRA:          -7.433
REMARK INTER:                  -7.006
REMARK INTRA:                  -0.427
REMARK UNBOUND:                -0.494
REMARK  Name = /home/qwerty/github/datacon2025hack/step_04_hit_selection/docking/ligands/lig_618.pdb
REMARK  3 active torsions:
REMARK  status: ('A' for Active; 'I' for Inactive)
REMARK    1  A    between atoms: C1_1  and  C2_2
REMARK    2  A    between atoms: C8_8  and  N1_9
REMARK    3  A    between atoms: N1_9  and  C9_10
REMARK                            x       y       z     vdW  Elec       q    Type
REMARK                         _______ _______ _______ _____ _____    ______ ____
ROOT
ATOM      1  C1  UNL     1      11.196  10.387  19.626  0.00  0.00    +0.044 C 
ATOM      2  C2  UNL     1      10.331   9.341  20.262  0.00  0.00    -0.050 A 
ATOM      3  C3  UNL     1       9.128   9.713  20.909  0.00  0.00    +0.005 A 
ATOM      4  C4  UNL     1       8.291   8.737  21.474  0.00  0.00    +0.024 A 
ATOM      5  C5  UNL     1       8.671   7.400  21.370  0.00  0.00    +0.039 A 
ATOM      6  C6  UNL     1       9.832   7.026  20.729  0.00  0.00    +0.003 A 
ATOM      7  C7  UNL     1      10.677   7.978  20.157  0.00  0.00    +0.011 A 
ATOM      8  C8  UNL     1       9.991   5.534  20.746  0.00  0.00    +0.190 C 
ATOM      9  C15 UNL     1       8.736   5.157  21.485  0.00  0.00    +0.242 C 
ATOM     10  O1  UNL     1       8.392   3.973  21.743  0.00  0.00    -0.273 OA
ATOM     11  N5  UNL     1       7.952   6.284  21.861  0.00  0.00    -0.283 N 
ATOM     12  H13 UNL     1       7.040   6.285  22.369  0.00  0.00    +0.155 HD
ENDROOT
BRANCH   8  13
ATOM     13  N1  UNL     1      11.183   5.139  21.502  0.00  0.00    -0.328 N 
ATOM     14  H8  UNL     1      11.216   5.361  22.525  0.00  0.00    +0.147 HD
BRANCH  13  15
ATOM     15  C9  UNL     1      12.281   4.392  20.944  0.00  0.00    +0.048 A 
ATOM     16  C10 UNL     1      13.241   5.066  20.141  0.00  0.00    +0.136 A 
ATOM     17  N2  UNL     1      14.297   4.392  19.592  0.00  0.00    -0.234 NA
ATOM     18  C11 UNL     1      14.413   3.065  19.828  0.00  0.00    +0.158 A 
ATOM     19  N3  UNL     1      15.371   2.245  19.383  0.00  0.00    -0.329 N 
ATOM     20  C12 UNL     1      15.023   1.043  19.904  0.00  0.00    +0.198 A 
ATOM     21  N4  UNL     1      13.889   1.079  20.655  0.00  0.00    -0.234 NA
ATOM     22  C13 UNL     1      13.529   2.373  20.586  0.00  0.00    +0.109 A 
ATOM     23  C14 UNL     1      12.436   3.001  21.170  0.00  0.00    +0.056 A 
ATOM     24  H10 UNL     1      16.192   2.476  18.780  0.00  0.00    +0.168 HD
ENDBRANCH  13  15
ENDBRANCH   8  13
TORSDOF 2
ENDMDL
MODEL 4
REMARK VINA RESULT:    -6.191     12.572     14.445
REMARK INTER + INTRA:          -7.409
REMARK INTER:                  -6.921
REMARK INTRA:                  -0.488
REMARK UNBOUND:                -0.494
REMARK  Name = /home/qwerty/github/datacon2025hack/step_04_hit_selection/docking/ligands/lig_618.pdb
REMARK  3 active torsions:
REMARK  status: ('A' for Active; 'I' for Inactive)
REMARK    1  A    between atoms: C1_1  and  C2_2
REMARK    2  A    between atoms: C8_8  and  N1_9
REMARK    3  A    between atoms: N1_9  and  C9_10
REMARK                            x       y       z     vdW  Elec       q    Type
REMARK                         _______ _______ _______ _____ _____    ______ ____
ROOT
ATOM      1  C1  UNL     1       8.840  13.692  27.785  0.00  0.00    +0.044 C 
ATOM      2  C2  UNL     1       8.407  12.280  28.045  0.00  0.00    -0.050 A 
ATOM      3  C3  UNL     1       8.055  11.877  29.355  0.00  0.00    +0.005 A 
ATOM      4  C4  UNL     1       7.612  10.568  29.604  0.00  0.00    +0.024 A 
ATOM      5  C5  UNL     1       7.520   9.686  28.528  0.00  0.00    +0.039 A 
ATOM      6  C6  UNL     1       7.846  10.073  27.247  0.00  0.00    +0.003 A 
ATOM      7  C7  UNL     1       8.285  11.369  26.975  0.00  0.00    +0.011 A 
ATOM      8  C8  UNL     1       7.640   8.941  26.283  0.00  0.00    +0.190 C 
ATOM      9  C15 UNL     1       7.145   7.887  27.235  0.00  0.00    +0.242 C 
ATOM     10  O1  UNL     1       6.807   6.724  26.893  0.00  0.00    -0.273 OA
ATOM     11  N5  UNL     1       7.081   8.342  28.582  0.00  0.00    -0.283 N 
ATOM     12  H13 UNL     1       6.764   7.807  29.421  0.00  0.00    +0.155 HD
ENDROOT
BRANCH   8  13
ATOM     13  N1  UNL     1       8.907   8.537  25.666  0.00  0.00    -0.328 N 
ATOM     14  H8  UNL     1       9.683   8.221  26.293  0.00  0.00    +0.147 HD
BRANCH  13  15
ATOM     15  C9  UNL     1       9.125   8.470  24.244  0.00  0.00    +0.048 A 
ATOM     16  C10 UNL     1       8.653   7.340  23.522  0.00  0.00    +0.136 A 
ATOM     17  N2  UNL     1       8.839   7.238  22.171  0.00  0.00    -0.234 NA
ATOM     18  C11 UNL     1       9.486   8.239  21.529  0.00  0.00    +0.158 A 
ATOM     19  N3  UNL     1       9.757   8.317  20.222  0.00  0.00    -0.329 N 
ATOM     20  C12 UNL     1      10.406   9.502  20.106  0.00  0.00    +0.198 A 
ATOM     21  N4  UNL     1      10.549  10.165  21.287  0.00  0.00    -0.234 NA
ATOM     22  C13 UNL     1       9.956   9.337  22.165  0.00  0.00    +0.109 A 
ATOM     23  C14 UNL     1       9.798   9.499  23.536  0.00  0.00    +0.056 A 
ATOM     24  H10 UNL     1       9.525   7.631  19.470  0.00  0.00    +0.168 HD
ENDBRANCH  13  15
ENDBRANCH   8  13
TORSDOF 2
ENDMDL
MODEL 5
REMARK VINA RESULT:    -6.122     10.568     12.378
REMARK INTER + INTRA:          -7.332
REMARK INTER:                  -6.859
REMARK INTRA:                  -0.473
REMARK UNBOUND:                -0.494
REMARK  Name = /home/qwerty/github/datacon2025hack/step_04_hit_selection/docking/ligands/lig_618.pdb
REMARK  3 active torsions:
REMARK  status: ('A' for Active; 'I' for Inactive)
REMARK    1  A    between atoms: C1_1  and  C2_2
REMARK    2  A    between atoms: C8_8  and  N1_9
REMARK    3  A    between atoms: N1_9  and  C9_10
REMARK                            x       y       z     vdW  Elec       q    Type
REMARK                         _______ _______ _______ _____ _____    ______ ____
ROOT
ATOM      1  C1  UNL     1      23.120   1.374  28.848  0.00  0.00    +0.044 C 
ATOM      2  C2  UNL     1      22.140   1.355  29.983  0.00  0.00    -0.050 A 
ATOM      3  C3  UNL     1      21.083   0.414  29.992  0.00  0.00    +0.005 A 
ATOM      4  C4  UNL     1      20.183   0.362  31.069  0.00  0.00    +0.024 A 
ATOM      5  C5  UNL     1      20.365   1.253  32.125  0.00  0.00    +0.039 A 
ATOM      6  C6  UNL     1      21.399   2.163  32.133  0.00  0.00    +0.003 A 
ATOM      7  C7  UNL     1      22.309   2.230  31.077  0.00  0.00    +0.011 A 
ATOM      8  C8  UNL     1      21.375   2.983  33.390  0.00  0.00    +0.190 C 
ATOM      9  C15 UNL     1      20.177   2.372  34.065  0.00  0.00    +0.242 C 
ATOM     10  O1  UNL     1      19.746   2.719  35.196  0.00  0.00    -0.273 OA
ATOM     11  N5  UNL     1      19.574   1.338  33.295  0.00  0.00    -0.283 N 
ATOM     12  H13 UNL     1      18.743   0.758  33.547  0.00  0.00    +0.155 HD
ENDROOT
BRANCH   8  13
ATOM     13  N1  UNL     1      21.143   4.399  33.091  0.00  0.00    -0.328 N 
ATOM     14  H8  UNL     1      20.179   4.694  32.813  0.00  0.00    +0.147 HD
BRANCH  13  15
ATOM     15  C9  UNL     1      22.143   5.427  33.235  0.00  0.00    +0.048 A 
ATOM     16  C10 UNL     1      22.909   5.486  34.431  0.00  0.00    +0.136 A 
ATOM     17  N2  UNL     1      23.867   6.446  34.608  0.00  0.00    -0.234 NA
ATOM     18  C11 UNL     1      24.075   7.344  33.617  0.00  0.00    +0.158 A 
ATOM     19  N3  UNL     1      24.961   8.344  33.606  0.00  0.00    -0.329 N 
ATOM     20  C12 UNL     1      24.763   8.927  32.398  0.00  0.00    +0.198 A 
ATOM     21  N4  UNL     1      23.790   8.331  31.656  0.00  0.00    -0.234 NA
ATOM     22  C13 UNL     1      23.376   7.334  32.457  0.00  0.00    +0.109 A 
ATOM     23  C14 UNL     1      22.389   6.384  32.219  0.00  0.00    +0.056 A 
ATOM     24  H10 UNL     1      25.644   8.612  34.349  0.00  0.00    +0.168 HD
ENDBRANCH  13  15
ENDBRANCH   8  13
TORSDOF 2
ENDMDL
MODEL 6
REMARK VINA RESULT:    -6.046     17.491     19.096
REMARK INTER + INTRA:          -7.246
REMARK INTER:                  -6.755
REMARK INTRA:                  -0.491
REMARK UNBOUND:                -0.494
REMARK  Name = /home/qwerty/github/datacon2025hack/step_04_hit_selection/docking/ligands/lig_618.pdb
REMARK  3 active torsions:
REMARK  status: ('A' for Active; 'I' for Inactive)
REMARK    1  A    between atoms: C1_1  and  C2_2
REMARK    2  A    between atoms: C8_8  and  N1_9
REMARK    3  A    between atoms: N1_9  and  C9_10
REMARK                            x       y       z     vdW  Elec       q    Type
REMARK                         _______ _______ _______ _____ _____    ______ ____
ROOT
ATOM      1  C1  UNL     1      16.227   5.420  19.579  0.00  0.00    +0.044 C 
ATOM      2  C2  UNL     1      15.214   4.365  19.908  0.00  0.00    -0.050 A 
ATOM      3  C3  UNL     1      15.549   2.996  19.779  0.00  0.00    +0.005 A 
ATOM      4  C4  UNL     1      14.621   1.999  20.122  0.00  0.00    +0.024 A 
ATOM      5  C5  UNL     1      13.373   2.394  20.599  0.00  0.00    +0.039 A 
ATOM      6  C6  UNL     1      13.041   3.724  20.741  0.00  0.00    +0.003 A 
ATOM      7  C7  UNL     1      13.949   4.732  20.411  0.00  0.00    +0.011 A 
ATOM      8  C8  UNL     1      11.651   3.869  21.288  0.00  0.00    +0.190 C 
ATOM      9  C15 UNL     1      11.284   2.416  21.427  0.00  0.00    +0.242 C 
ATOM     10  O1  UNL     1      10.184   2.002  21.878  0.00  0.00    -0.273 OA
ATOM     11  N5  UNL     1      12.322   1.538  21.006  0.00  0.00    -0.283 N 
ATOM     12  H13 UNL     1      12.316   0.494  21.013  0.00  0.00    +0.155 HD
ENDROOT
BRANCH   8  13
ATOM     13  N1  UNL     1      10.774   4.541  20.325  0.00  0.00    -0.328 N 
ATOM     14  H8  UNL     1      10.711   4.150  19.356  0.00  0.00    +0.147 HD
BRANCH  13  15
ATOM     15  C9  UNL     1       9.928   5.661  20.651  0.00  0.00    +0.048 A 
ATOM     16  C10 UNL     1       8.631   5.419  21.181  0.00  0.00    +0.136 A 
ATOM     17  N2  UNL     1       7.797   6.454  21.503  0.00  0.00    -0.234 NA
ATOM     18  C11 UNL     1       8.232   7.721  21.310  0.00  0.00    +0.158 A 
ATOM     19  N3  UNL     1       7.566   8.851  21.566  0.00  0.00    -0.329 N 
ATOM     20  C12 UNL     1       8.441   9.821  21.201  0.00  0.00    +0.198 A 
ATOM     21  N4  UNL     1       9.623   9.341  20.728  0.00  0.00    -0.234 NA
ATOM     22  C13 UNL     1       9.457   8.009  20.810  0.00  0.00    +0.109 A 
ATOM     23  C14 UNL     1      10.349   7.002  20.463  0.00  0.00    +0.056 A 
ATOM     24  H10 UNL     1       6.604   8.962  21.955  0.00  0.00    +0.168 HD
ENDBRANCH  13  15
ENDBRANCH   8  13
TORSDOF 2
ENDMDL
MODEL 7
REMARK VINA RESULT:    -6.019      2.033      6.455
REMARK INTER + INTRA:          -7.216
REMARK INTER:                  -6.723
REMARK INTRA:                  -0.493
REMARK UNBOUND:                -0.494
REMARK  Name = /home/qwerty/github/datacon2025hack/step_04_hit_selection/docking/ligands/lig_618.pdb
REMARK  3 active torsions:
REMARK  status: ('A' for Active; 'I' for Inactive)
REMARK    1  A    between atoms: C1_1  and  C2_2
REMARK    2  A    between atoms: C8_8  and  N1_9
REMARK    3  A    between atoms: N1_9  and  C9_10
REMARK                            x       y       z     vdW  Elec       q    Type
REMARK                         _______ _______ _______ _____ _____    ______ ____
ROOT
ATOM      1  C1  UNL     1      15.428   6.104  37.382  0.00  0.00    +0.044 C 
ATOM      2  C2  UNL     1      16.539   7.109  37.447  0.00  0.00    -0.050 A 
ATOM      3  C3  UNL     1      17.831   6.710  37.865  0.00  0.00    +0.005 A 
ATOM      4  C4  UNL     1      18.888   7.634  37.893  0.00  0.00    +0.024 A 
ATOM      5  C5  UNL     1      18.632   8.944  37.489  0.00  0.00    +0.039 A 
ATOM      6  C6  UNL     1      17.382   9.338  37.066  0.00  0.00    +0.003 A 
ATOM      7  C7  UNL     1      16.317   8.437  37.026  0.00  0.00    +0.011 A 
ATOM      8  C8  UNL     1      17.387  10.787  36.674  0.00  0.00    +0.190 C 
ATOM      9  C15 UNL     1      18.831  11.114  36.940  0.00  0.00    +0.242 C 
ATOM     10  O1  UNL     1      19.352  12.242  36.742  0.00  0.00    -0.273 OA
ATOM     11  N5  UNL     1      19.570  10.002  37.435  0.00  0.00    -0.283 N 
ATOM     12  H13 UNL     1      20.583   9.971  37.684  0.00  0.00    +0.155 HD
ENDROOT
BRANCH   8  13
ATOM     13  N1  UNL     1      16.503  11.571  37.542  0.00  0.00    -0.328 N 
ATOM     14  H8  UNL     1      16.722  11.610  38.565  0.00  0.00    +0.147 HD
BRANCH  13  15
ATOM     15  C9  UNL     1      15.396  12.359  37.064  0.00  0.00    +0.048 A 
ATOM     16  C10 UNL     1      15.609  13.726  36.737  0.00  0.00    +0.136 A 
ATOM     17  N2  UNL     1      14.584  14.508  36.280  0.00  0.00    -0.234 NA
ATOM     18  C11 UNL     1      13.357  13.954  36.142  0.00  0.00    +0.158 A 
ATOM     19  N3  UNL     1      12.244  14.555  35.710  0.00  0.00    -0.329 N 
ATOM     20  C12 UNL     1      11.315  13.568  35.760  0.00  0.00    +0.198 A 
ATOM     21  N4  UNL     1      11.804  12.379  36.204  0.00  0.00    -0.234 NA
ATOM     22  C13 UNL     1      13.099  12.659  36.437  0.00  0.00    +0.109 A 
ATOM     23  C14 UNL     1      14.097  11.813  36.906  0.00  0.00    +0.056 A 
ATOM     24  H10 UNL     1      12.119  15.546  35.406  0.00  0.00    +0.168 HD
ENDBRANCH  13  15
ENDBRANCH   8  13
TORSDOF 2
ENDMDL
MODEL 8
REMARK VINA RESULT:    -5.986      5.042      9.386
REMARK INTER + INTRA:          -7.180
REMARK INTER:                  -6.773
REMARK INTRA:                  -0.406
REMARK UNBOUND:                -0.494
REMARK  Name = /home/qwerty/github/datacon2025hack/step_04_hit_selection/docking/ligands/lig_618.pdb
REMARK  3 active torsions:
REMARK  status: ('A' for Active; 'I' for Inactive)
REMARK    1  A    between atoms: C1_1  and  C2_2
REMARK    2  A    between atoms: C8_8  and  N1_9
REMARK    3  A    between atoms: N1_9  and  C9_10
REMARK                            x       y       z     vdW  Elec       q    Type
REMARK                         _______ _______ _______ _____ _____    ______ ____
ROOT
ATOM      1  C1  UNL     1      24.040   9.245  31.157  0.00  0.00    +0.044 C 
ATOM      2  C2  UNL     1      23.838   8.406  32.383  0.00  0.00    -0.050 A 
ATOM      3  C3  UNL     1      24.481   7.151  32.497  0.00  0.00    +0.005 A 
ATOM      4  C4  UNL     1      24.330   6.374  33.658  0.00  0.00    +0.024 A 
ATOM      5  C5  UNL     1      23.541   6.877  34.691  0.00  0.00    +0.039 A 
ATOM      6  C6  UNL     1      22.922   8.105  34.596  0.00  0.00    +0.003 A 
ATOM      7  C7  UNL     1      23.062   8.896  33.455  0.00  0.00    +0.011 A 
ATOM      8  C8  UNL     1      22.155   8.410  35.850  0.00  0.00    +0.190 C 
ATOM      9  C15 UNL     1      22.459   7.166  36.639  0.00  0.00    +0.242 C 
ATOM     10  O1  UNL     1      22.043   6.947  37.807  0.00  0.00    -0.273 OA
ATOM     11  N5  UNL     1      23.288   6.249  35.933  0.00  0.00    -0.283 N 
ATOM     12  H13 UNL     1      23.644   5.326  36.266  0.00  0.00    +0.155 HD
ENDROOT
BRANCH   8  13
ATOM     13  N1  UNL     1      20.719   8.518  35.574  0.00  0.00    -0.328 N 
ATOM     14  H8  UNL     1      20.231   7.689  35.163  0.00  0.00    +0.147 HD
BRANCH  13  15
ATOM     15  C9  UNL     1      19.919   9.668  35.910  0.00  0.00    +0.048 A 
ATOM     16  C10 UNL     1      20.476  10.967  35.763  0.00  0.00    +0.136 A 
ATOM     17  N2  UNL     1      19.750  12.085  36.071  0.00  0.00    -0.234 NA
ATOM     18  C11 UNL     1      18.483  11.930  36.522  0.00  0.00    +0.158 A 
ATOM     19  N3  UNL     1      17.625  12.895  36.868  0.00  0.00    -0.329 N 
ATOM     20  C12 UNL     1      16.515  12.212  37.238  0.00  0.00    +0.198 A 
ATOM     21  N4  UNL     1      16.645  10.861  37.135  0.00  0.00    -0.234 NA
ATOM     22  C13 UNL     1      17.902  10.718  36.680  0.00  0.00    +0.109 A 
ATOM     23  C14 UNL     1      18.588   9.546  36.384  0.00  0.00    +0.056 A 
ATOM     24  H10 UNL     1      17.774  13.929  36.856  0.00  0.00    +0.168 HD
ENDBRANCH  13  15
ENDBRANCH   8  13
TORSDOF 2
ENDMDL
MODEL 9
REMARK VINA RESULT:    -5.946     17.639     18.223
REMARK INTER + INTRA:          -7.135
REMARK INTER:                  -6.657
REMARK INTRA:                  -0.478
REMARK UNBOUND:                -0.494
REMARK  Name = /home/qwerty/github/datacon2025hack/step_04_hit_selection/docking/ligands/lig_618.pdb
REMARK  3 active torsions:
REMARK  status: ('A' for Active; 'I' for Inactive)
REMARK    1  A    between atoms: C1_1  and  C2_2
REMARK    2  A    between atoms: C8_8  and  N1_9
REMARK    3  A    between atoms: N1_9  and  C9_10
REMARK                            x       y       z     vdW  Elec       q    Type
REMARK                         _______ _______ _______ _____ _____    ______ ____
ROOT
ATOM      1  C1  UNL     1       8.288   2.879  24.650  0.00  0.00    +0.044 C 
ATOM      2  C2  UNL     1       8.872   3.347  23.351  0.00  0.00    -0.050 A 
ATOM      3  C3  UNL     1       8.125   4.201  22.505  0.00  0.00    +0.005 A 
ATOM      4  C4  UNL     1       8.677   4.676  21.304  0.00  0.00    +0.024 A 
ATOM      5  C5  UNL     1       9.976   4.293  20.977  0.00  0.00    +0.039 A 
ATOM      6  C6  UNL     1      10.717   3.474  21.801  0.00  0.00    +0.003 A 
ATOM      7  C7  UNL     1      10.192   2.993  23.000  0.00  0.00    +0.011 A 
ATOM      8  C8  UNL     1      12.082   3.235  21.223  0.00  0.00    +0.190 C 
ATOM      9  C15 UNL     1      11.969   4.056  19.967  0.00  0.00    +0.242 C 
ATOM     10  O1  UNL     1      12.894   4.194  19.124  0.00  0.00    -0.273 OA
ATOM     11  N5  UNL     1      10.700   4.683  19.825  0.00  0.00    -0.283 N 
ATOM     12  H13 UNL     1      10.380   5.307  19.051  0.00  0.00    +0.155 HD
ENDROOT
BRANCH   8  13
ATOM     13  N1  UNL     1      12.279   1.817  20.907  0.00  0.00    -0.328 N 
ATOM     14  H8  UNL     1      11.532   1.323  20.366  0.00  0.00    +0.147 HD
BRANCH  13  15
ATOM     15  C9  UNL     1      13.475   1.080  21.225  0.00  0.00    +0.048 A 
ATOM     16  C10 UNL     1      14.568   1.107  20.316  0.00  0.00    +0.136 A 
ATOM     17  N2  UNL     1      15.721   0.420  20.580  0.00  0.00    -0.234 NA
ATOM     18  C11 UNL     1      15.804  -0.288  21.730  0.00  0.00    +0.158 A 
ATOM     19  N3  UNL     1      16.842  -1.014  22.158  0.00  0.00    -0.329 N 
ATOM     20  C12 UNL     1      16.413  -1.506  23.347  0.00  0.00    +0.198 A 
ATOM     21  N4  UNL     1      15.151  -1.117  23.676  0.00  0.00    -0.234 NA
ATOM     22  C13 UNL     1      14.796  -0.348  22.631  0.00  0.00    +0.109 A 
ATOM     23  C14 UNL     1      13.599   0.327  22.420  0.00  0.00    +0.056 A 
ATOM     24  H10 UNL     1      17.764  -1.165  21.691  0.00  0.00    +0.168 HD
ENDBRANCH  13  15
ENDBRANCH   8  13
TORSDOF 2
ENDMDL
