REMARK  Name = /home/qwerty/github/datacon2025hack/step_04_hit_selection/docking/ligands/lig_357.pdb
REMARK  9 active torsions:
REMARK  status: ('A' for Active; 'I' for Inactive)
REMARK    1  A    between atoms: C1_1  and  C2_2
REMARK    2  A    between atoms: C2_2  and  C3_3
REMARK    3  A    between atoms: C2_2  and  N1_10
REMARK    4  A    between atoms: N1_10  and  C9_11
REMARK    5  A    between atoms: C10_12  and  C11_14
REMARK    6  A    between atoms: C11_14  and  S1_15
REMARK    7  A    between atoms: S1_15  and  C12_17
REMARK    8  A    between atoms: C12_17  and  C13_18
REMARK    9  A    between atoms: C15_21  and  C16_22
REMARK                            x       y       z     vdW  Elec       q    Type
REMARK                         _______ _______ _______ _____ _____    ______ ____
ROOT
ATOM      1  C11 UNL     1      -1.057   2.417  -1.090  0.00  0.00    +0.199 C 
ENDROOT
BRANCH   1   4
ATOM      2  N1  UNL     1      -1.704   2.111   1.400  0.00  0.00    -0.297 N 
ATOM      3  C9  UNL     1      -1.037   2.040   2.707  0.00  0.00    +0.132 C 
ATOM      4  C10 UNL     1      -1.023   2.840   0.353  0.00  0.00    +0.228 C 
ATOM      5  O1  UNL     1      -0.316   3.840   0.659  0.00  0.00    -0.275 OA
BRANCH   2   7
ATOM      6  C1  UNL     1      -4.025   2.649   0.666  0.00  0.00    +0.033 C 
ATOM      7  C2  UNL     1      -3.082   1.589   1.262  0.00  0.00    +0.103 C 
BRANCH   7   8
ATOM      8  C3  UNL     1      -3.093   0.230   0.572  0.00  0.00    -0.027 A 
ATOM      9  C4  UNL     1      -2.449  -0.849   1.207  0.00  0.00    +0.008 A 
ATOM     10  C5  UNL     1      -2.442  -2.120   0.625  0.00  0.00    +0.038 A 
ATOM     11  C6  UNL     1      -3.084  -2.334  -0.596  0.00  0.00    +0.123 A 
ATOM     12  F1  UNL     1      -3.072  -3.566  -1.162  0.00  0.00    -0.205 F 
ATOM     13  C7  UNL     1      -3.741  -1.279  -1.232  0.00  0.00    +0.038 A 
ATOM     14  C8  UNL     1      -3.755  -0.007  -0.652  0.00  0.00    +0.008 A 
ENDBRANCH   7   8
ENDBRANCH   2   7
ENDBRANCH   1   4
BRANCH   1  15
ATOM     15  S1  UNL     1       0.441   1.514  -1.557  0.00  0.00    +0.037 S 
ATOM     16  O2  UNL     1       1.584   2.284  -0.907  0.00  0.00    -0.256 OA
BRANCH  15  17
ATOM     17  C12 UNL     1       0.370  -0.037  -0.641  0.00  0.00    +0.162 C 
BRANCH  17  18
ATOM     18  C13 UNL     1       1.596  -0.846  -0.907  0.00  0.00    +0.092 A 
ATOM     19  C14 UNL     1       1.764  -1.751  -1.930  0.00  0.00    +0.221 A 
ATOM     20  O3  UNL     1       2.990  -2.204  -1.851  0.00  0.00    -0.443 OA
ATOM     21  C15 UNL     1       3.562  -1.602  -0.831  0.00  0.00    +0.234 A 
ATOM     22  N2  UNL     1       2.739  -0.734  -0.205  0.00  0.00    -0.213 NA
BRANCH  21  23
ATOM     23  C16 UNL     1       4.948  -1.843  -0.418  0.00  0.00    +0.074 A 
ATOM     24  C17 UNL     1       5.835  -2.722  -1.025  0.00  0.00    +0.021 A 
ATOM     25  C18 UNL     1       7.094  -2.743  -0.411  0.00  0.00    +0.008 A 
ATOM     26  C19 UNL     1       7.199  -1.884   0.675  0.00  0.00    +0.046 A 
ATOM     27  S2  UNL     1       5.725  -1.098   0.873  0.00  0.00    -0.092 S 
ENDBRANCH  21  23
ENDBRANCH  17  18
ENDBRANCH  15  17
ENDBRANCH   1  15
TORSDOF 7
