REMARK  Name = /home/qwerty/github/datacon2025hack/step_04_hit_selection/docking/ligands/lig_793.pdb
REMARK  3 active torsions:
REMARK  status: ('A' for Active; 'I' for Inactive)
REMARK    1  A    between atoms: C1_2  and  C15_20
REMARK    2  A    between atoms: N1_3  and  C2_4
REMARK    3  A    between atoms: C6_9  and  C7_10
REMARK                            x       y       z     vdW  Elec       q    Type
REMARK                         _______ _______ _______ _____ _____    ______ ____
ROOT
ATOM      1  C2  UNL     1       1.278   0.368   0.826  0.00  0.00    +0.036 A 
ATOM      2  C3  UNL     1       0.997   0.673   2.184  0.00  0.00    +0.025 A 
ATOM      3  C4  UNL     1      -0.327   0.699   2.658  0.00  0.00    +0.029 A 
ATOM      4  C5  UNL     1      -1.343   0.429   1.746  0.00  0.00    +0.067 A 
ATOM      5  N2  UNL     1      -2.665   0.411   1.955  0.00  0.00    -0.338 N 
ATOM      6  C6  UNL     1      -3.188   0.121   0.733  0.00  0.00    +0.139 A 
ATOM      7  N3  UNL     1      -2.238  -0.040  -0.230  0.00  0.00    -0.228 NA
ATOM      8  C13 UNL     1      -1.089   0.157   0.438  0.00  0.00    +0.091 A 
ATOM      9  C14 UNL     1       0.208   0.122  -0.069  0.00  0.00    +0.053 A 
ATOM     10  H4  UNL     1      -3.156   0.599   2.856  0.00  0.00    +0.167 HD
ENDROOT
BRANCH   6  11
ATOM     11  C7  UNL     1      -4.641  -0.003   0.451  0.00  0.00    +0.019 A 
ATOM     12  C8  UNL     1      -5.596   0.038   1.486  0.00  0.00    +0.011 A 
ATOM     13  C9  UNL     1      -6.958  -0.081   1.198  0.00  0.00    +0.002 A 
ATOM     14  C10 UNL     1      -7.386  -0.245  -0.121  0.00  0.00    +0.020 A 
ATOM     15  C11 UNL     1      -6.450  -0.291  -1.157  0.00  0.00    +0.042 A 
ATOM     16 CL1  UNL     1      -6.988  -0.497  -2.814  0.00  0.00    -0.084 Cl
ATOM     17  C12 UNL     1      -5.085  -0.172  -0.874  0.00  0.00    +0.031 A 
ENDBRANCH   6  11
BRANCH   1  20
ATOM     18  O1  UNL     1       2.447  -1.467  -1.052  0.00  0.00    -0.270 OA
ATOM     19  C1  UNL     1       3.169  -0.532  -0.611  0.00  0.00    +0.248 C 
ATOM     20  N1  UNL     1       2.642   0.378   0.374  0.00  0.00    -0.281 N 
ATOM     21  H1  UNL     1       3.284   1.062   0.832  0.00  0.00    +0.155 HD
BRANCH  19  22
ATOM     22  C15 UNL     1       4.556  -0.399  -1.117  0.00  0.00    +0.037 A 
ATOM     23  C16 UNL     1       5.586   0.129  -0.314  0.00  0.00    +0.016 A 
ATOM     24  C17 UNL     1       6.887   0.239  -0.813  0.00  0.00    +0.039 A 
ATOM     25  C18 UNL     1       7.179  -0.182  -2.112  0.00  0.00    +0.123 A 
ATOM     26  F1  UNL     1       8.443  -0.075  -2.593  0.00  0.00    -0.205 F 
ATOM     27  C19 UNL     1       6.170  -0.719  -2.914  0.00  0.00    +0.039 A 
ATOM     28  C20 UNL     1       4.867  -0.833  -2.420  0.00  0.00    +0.016 A 
ENDBRANCH  19  22
ENDBRANCH   1  20
TORSDOF 3
