REMARK  Name = /home/qwerty/github/datacon2025hack/step_04_hit_selection/docking/ligands/lig_726.pdb
REMARK  3 active torsions:
REMARK  status: ('A' for Active; 'I' for Inactive)
REMARK    1  A    between atoms: C1_2  and  C16_21
REMARK    2  A    between atoms: N1_3  and  C2_4
REMARK    3  A    between atoms: C10_13  and  C11_15
REMARK                            x       y       z     vdW  Elec       q    Type
REMARK                         _______ _______ _______ _____ _____    ______ ____
ROOT
ATOM      1  C2  UNL     1       1.467  -0.284  -0.049  0.00  0.00    +0.034 A 
ATOM      2  C3  UNL     1       0.765   0.619  -0.884  0.00  0.00    +0.025 A 
ATOM      3  C4  UNL     1      -0.637   0.577  -0.960  0.00  0.00    +0.025 A 
ATOM      4  C5  UNL     1      -1.317  -0.389  -0.213  0.00  0.00    +0.040 A 
ATOM      5  C6  UNL     1      -0.644  -1.269   0.587  0.00  0.00    -0.023 A 
ATOM      6  C7  UNL     1       0.747  -1.250   0.682  0.00  0.00    +0.028 A 
ATOM      7  C8  UNL     1      -1.595  -2.173   1.287  0.00  0.00    +0.056 C 
ATOM      8  C9  UNL     1      -2.979  -1.701   0.779  0.00  0.00    +0.119 C 
ATOM      9  N2  UNL     1      -2.721  -0.585  -0.138  0.00  0.00    -0.267 N 
ATOM     10  C10 UNL     1      -3.680  -0.109  -1.096  0.00  0.00    +0.252 C 
ATOM     11  O2  UNL     1      -3.334   0.049  -2.298  0.00  0.00    -0.270 OA
ENDROOT
BRANCH  10  12
ATOM     12  C11 UNL     1      -5.078   0.170  -0.701  0.00  0.00    +0.055 A 
ATOM     13  C12 UNL     1      -6.121   0.041  -1.632  0.00  0.00    +0.016 A 
ATOM     14  C13 UNL     1      -7.436   0.316  -1.253  0.00  0.00    +0.020 A 
ATOM     15  C14 UNL     1      -7.699   0.730   0.053  0.00  0.00    +0.111 A 
ATOM     16  N3  UNL     1      -6.679   0.870   0.941  0.00  0.00    -0.263 NA
ATOM     17  C15 UNL     1      -5.390   0.605   0.597  0.00  0.00    +0.123 A 
ENDBRANCH  10  12
BRANCH   1  20
ATOM     18  O1  UNL     1       3.135   2.053   0.053  0.00  0.00    -0.270 OA
ATOM     19  C1  UNL     1       3.699   0.925   0.020  0.00  0.00    +0.248 C 
ATOM     20  N1  UNL     1       2.903  -0.276   0.024  0.00  0.00    -0.281 N 
ATOM     21  H1  UNL     1       3.373  -1.200   0.135  0.00  0.00    +0.155 HD
BRANCH  19  22
ATOM     22  C16 UNL     1       5.180   0.866  -0.012  0.00  0.00    +0.037 A 
ATOM     23  C17 UNL     1       5.886  -0.209   0.562  0.00  0.00    +0.016 A 
ATOM     24  C18 UNL     1       7.284  -0.239   0.523  0.00  0.00    +0.039 A 
ATOM     25  C19 UNL     1       7.992   0.803  -0.081  0.00  0.00    +0.123 A 
ATOM     26  F1  UNL     1       9.347   0.771  -0.116  0.00  0.00    -0.205 F 
ATOM     27  C20 UNL     1       7.304   1.880  -0.642  0.00  0.00    +0.039 A 
ATOM     28  C21 UNL     1       5.906   1.916  -0.604  0.00  0.00    +0.016 A 
ENDBRANCH  19  22
ENDBRANCH   1  20
TORSDOF 3
