REMARK  Name = /home/qwerty/github/datacon2025hack/step_04_hit_selection/docking/ligands/lig_227.pdb
REMARK  4 active torsions:
REMARK  status: ('A' for Active; 'I' for Inactive)
REMARK    1  A    between atoms: C1_2  and  C9_16
REMARK    2  A    between atoms: N1_3  and  C2_4
REMARK    3  A    between atoms: C2_4  and  C3_5
REMARK    4  A    between atoms: C6_9  and  C7_11
REMARK                            x       y       z     vdW  Elec       q    Type
REMARK                         _______ _______ _______ _____ _____    ______ ____
ROOT
ATOM      1  O1  UNL     1       0.479  -1.224  -2.887  0.00  0.00    -0.270 OA
ATOM      2  C1  UNL     1       1.027  -1.003  -1.772  0.00  0.00    +0.247 C 
ATOM      3  N1  UNL     1       0.233  -1.009  -0.575  0.00  0.00    -0.309 N 
ATOM      4  H1  UNL     1       0.713  -0.991   0.352  0.00  0.00    +0.149 HD
ENDROOT
BRANCH   2   5
ATOM      5  C9  UNL     1       2.491  -0.785  -1.717  0.00  0.00    +0.075 A 
ATOM      6  C10 UNL     1       3.328  -1.482  -2.608  0.00  0.00    +0.054 A 
ATOM      7  C11 UNL     1       4.713  -1.295  -2.572  0.00  0.00    +0.124 A 
ATOM      8  F1  UNL     1       5.511  -1.981  -3.428  0.00  0.00    -0.205 F 
ATOM      9  C12 UNL     1       5.276  -0.404  -1.656  0.00  0.00    +0.041 A 
ATOM     10  C13 UNL     1       4.454   0.307  -0.780  0.00  0.00    +0.042 A 
ATOM     11  C14 UNL     1       3.067   0.126  -0.808  0.00  0.00    +0.136 A 
ATOM     12  F2  UNL     1       2.294   0.878   0.013  0.00  0.00    -0.205 F 
ENDBRANCH   2   5
BRANCH   3  13
ATOM     13  C2  UNL     1      -1.218  -1.190  -0.636  0.00  0.00    +0.127 C 
BRANCH  13  14
ATOM     14  C3  UNL     1      -1.850  -1.198   0.770  0.00  0.00    +0.095 C 
ATOM     15  C4  UNL     1      -3.302  -1.572   0.749  0.00  0.00    +0.043 C 
ATOM     16  C5  UNL     1      -3.485  -0.184   1.262  0.00  0.00    +0.110 C 
ATOM     17  N2  UNL     1      -2.053   0.171   1.294  0.00  0.00    -0.291 N 
ATOM     18  C6  UNL     1      -1.227   1.251   1.741  0.00  0.00    +0.270 C 
ATOM     19  O2  UNL     1       0.022   1.102   1.758  0.00  0.00    -0.268 OA
BRANCH  18  20
ATOM     20  C7  UNL     1      -1.793   2.533   2.199  0.00  0.00    +0.188 A 
ATOM     21  C8  UNL     1      -3.114   2.919   2.256  0.00  0.00    +0.192 A 
ATOM     22  N3  UNL     1      -3.139   4.174   2.737  0.00  0.00    -0.057 NA
ATOM     23  O3  UNL     1      -1.896   4.502   2.949  0.00  0.00    -0.242 OA
ATOM     24  N4  UNL     1      -1.049   3.560   2.645  0.00  0.00    -0.044 NA
ENDBRANCH  18  20
ENDBRANCH  13  14
ENDBRANCH   3  13
TORSDOF 4
