REMARK  Name = /home/qwerty/github/datacon2025hack/step_04_hit_selection/docking/ligands/lig_764.pdb
REMARK  9 active torsions:
REMARK  status: ('A' for Active; 'I' for Inactive)
REMARK    1  A    between atoms: C1_1  and  C2_2
REMARK    2  A    between atoms: C2_2  and  C3_3
REMARK    3  A    between atoms: C3_3  and  C4_4
REMARK    4  A    between atoms: C3_3  and  N4_16
REMARK    5  A    between atoms: C4_4  and  N1_5
REMARK    6  A    between atoms: C5_6  and  C6_8
REMARK    7  A    between atoms: N4_16  and  C12_17
REMARK    8  A    between atoms: C12_17  and  C13_18
REMARK    9  A    between atoms: C16_21  and  C17_22
REMARK                            x       y       z     vdW  Elec       q    Type
REMARK                         _______ _______ _______ _____ _____    ______ ____
ROOT
ATOM      1  C3  UNL     1       0.785   0.431   0.640  0.00  0.00    +0.071 C 
ENDROOT
BRANCH   1   3
ATOM      2  C1  UNL     1      -0.328   2.350  -0.714  0.00  0.00    +0.005 C 
ATOM      3  C2  UNL     1       0.416   1.935   0.561  0.00  0.00    +0.017 C 
ENDBRANCH   1   3
BRANCH   1   4
ATOM      4  N4  UNL     1       1.151  -0.089  -0.695  0.00  0.00    -0.308 NA
ATOM      5  H17 UNL     1       0.299  -0.416  -1.205  0.00  0.00    +0.123 HD
BRANCH   4   6
ATOM      6  C12 UNL     1       2.126  -1.188  -0.642  0.00  0.00    +0.116 C 
BRANCH   6   7
ATOM      7  C13 UNL     1       3.516  -0.643  -0.449  0.00  0.00    -0.034 A 
ATOM      8  C14 UNL     1       4.215  -0.872   0.747  0.00  0.00    +0.005 A 
ATOM      9  C15 UNL     1       5.498  -0.346   0.926  0.00  0.00    +0.003 A 
ATOM     10  C16 UNL     1       6.093   0.427  -0.082  0.00  0.00    -0.050 A 
ATOM     11  C17 UNL     1       7.484   0.959   0.096  0.00  0.00    +0.044 C 
ATOM     12  C18 UNL     1       5.401   0.644  -1.283  0.00  0.00    +0.003 A 
ATOM     13  C19 UNL     1       4.118   0.119  -1.462  0.00  0.00    +0.005 A 
ENDBRANCH   6   7
ENDBRANCH   4   6
ENDBRANCH   1   4
BRANCH   1  14
ATOM     14  C4  UNL     1      -0.302  -0.421   1.347  0.00  0.00    +0.123 C 
BRANCH  14  15
ATOM     15  N1  UNL     1      -1.601  -0.352   0.677  0.00  0.00    -0.309 N 
ATOM     16  C5  UNL     1      -2.079  -1.379  -0.206  0.00  0.00    +0.262 C 
ATOM     17  O1  UNL     1      -1.347  -2.370  -0.474  0.00  0.00    -0.269 OA
ATOM     18  H9  UNL     1      -2.176   0.501   0.835  0.00  0.00    +0.149 HD
BRANCH  16  19
ATOM     19  C6  UNL     1      -3.410  -1.285  -0.837  0.00  0.00    +0.124 A 
ATOM     20  C7  UNL     1      -3.870  -2.059  -1.895  0.00  0.00    +0.143 A 
ATOM     21  N2  UNL     1      -5.196  -1.844  -2.081  0.00  0.00    -0.240 NA
ATOM     22  C8  UNL     1      -5.479  -0.901  -1.161  0.00  0.00    +0.110 A 
ATOM     23  N3  UNL     1      -4.450  -0.547  -0.418  0.00  0.00    -0.324 N 
ATOM     24  C9  UNL     1      -4.837   0.090   0.821  0.00  0.00    +0.124 C 
ATOM     25  C10 UNL     1      -6.382   0.175   0.720  0.00  0.00    +0.029 C 
ATOM     26  C11 UNL     1      -6.790  -0.523  -0.603  0.00  0.00    +0.076 C 
ENDBRANCH  16  19
ENDBRANCH  14  15
ENDBRANCH   1  14
TORSDOF 7
