REMARK  Name = /home/qwerty/github/datacon2025hack/step_04_hit_selection/docking/ligands/lig_14.pdb
REMARK  5 active torsions:
REMARK  status: ('A' for Active; 'I' for Inactive)
REMARK    1  A    between atoms: C1_2  and  C2_3
REMARK    2  A    between atoms: C2_3  and  C3_4
REMARK    3  A    between atoms: C6_7  and  N1_8
REMARK    4  A    between atoms: C7_9  and  C8_11
REMARK    5  A    between atoms: N2_22  and  C18_23
REMARK                            x       y       z     vdW  Elec       q    Type
REMARK                         _______ _______ _______ _____ _____    ______ ____
ROOT
ATOM      1  C3  UNL     1       0.311  -0.214  -2.518  0.00  0.00    -0.039 A 
ATOM      2  C4  UNL     1       0.065  -1.487  -1.980  0.00  0.00    +0.006 A 
ATOM      3  C5  UNL     1      -1.137  -1.751  -1.315  0.00  0.00    +0.023 A 
ATOM      4  C6  UNL     1      -2.114  -0.753  -1.184  0.00  0.00    +0.034 A 
ATOM      5  C16 UNL     1      -1.851   0.531  -1.695  0.00  0.00    +0.023 A 
ATOM      6  C17 UNL     1      -0.649   0.797  -2.357  0.00  0.00    +0.006 A 
ENDROOT
BRANCH   4   7
ATOM      7  N1  UNL     1      -3.332  -1.044  -0.478  0.00  0.00    -0.279 N 
ATOM      8  C7  UNL     1      -4.597  -0.428  -0.777  0.00  0.00    +0.284 C 
ATOM      9  O2  UNL     1      -4.772   0.163  -1.876  0.00  0.00    -0.266 OA
ATOM     10  H5  UNL     1      -3.307  -1.805   0.238  0.00  0.00    +0.155 HD
BRANCH   8  11
ATOM     11  C8  UNL     1      -5.718  -0.495   0.175  0.00  0.00    +0.191 A 
ATOM     12  C9  UNL     1      -5.684  -1.048   1.456  0.00  0.00    +0.063 A 
ATOM     13  C10 UNL     1      -6.955  -0.852   1.945  0.00  0.00    +0.021 A 
ATOM     14  C11 UNL     1      -7.524  -1.187   3.173  0.00  0.00    +0.011 A 
ATOM     15  C12 UNL     1      -8.872  -0.844   3.385  0.00  0.00    +0.001 A 
ATOM     16  C13 UNL     1      -9.610  -0.186   2.374  0.00  0.00    +0.004 A 
ATOM     17  C14 UNL     1      -9.004   0.138   1.145  0.00  0.00    +0.047 A 
ATOM     18  C15 UNL     1      -7.668  -0.212   0.967  0.00  0.00    +0.136 A 
ATOM     19  O3  UNL     1      -6.917  -0.003  -0.086  0.00  0.00    -0.450 OA
ENDBRANCH   8  11
ENDBRANCH   4   7
BRANCH   1  20
ATOM     20  C2  UNL     1       1.621   0.084  -3.192  0.00  0.00    +0.131 C 
BRANCH  20  22
ATOM     21  O1  UNL     1       2.648   1.536  -1.604  0.00  0.00    -0.275 OA
ATOM     22  C1  UNL     1       2.664   0.404  -2.165  0.00  0.00    +0.222 C 
ATOM     23  N2  UNL     1       3.615  -0.601  -1.768  0.00  0.00    -0.284 N 
ATOM     24  H13 UNL     1       3.494  -1.565  -2.151  0.00  0.00    +0.155 HD
BRANCH  23  25
ATOM     25  C18 UNL     1       4.666  -0.372  -0.812  0.00  0.00    +0.051 A 
ATOM     26  C19 UNL     1       5.405   0.828  -0.835  0.00  0.00    +0.073 A 
ATOM     27  C20 UNL     1       6.451   1.028   0.068  0.00  0.00    +0.164 A 
ATOM     28  C21 UNL     1       6.761   0.043   1.014  0.00  0.00    +0.163 A 
ATOM     29  C22 UNL     1       6.052  -1.161   1.030  0.00  0.00    +0.066 A 
ATOM     30  C23 UNL     1       5.009  -1.375   0.121  0.00  0.00    +0.043 A 
ATOM     31 BR1  UNL     1       4.044  -3.032   0.217  0.00  0.00    -0.048 Br
ATOM     32  O4  UNL     1       7.790   0.279   1.931  0.00  0.00    -0.485 OA
ATOM     33  C24 UNL     1       8.354   1.583   2.093  0.00  0.00    +0.270 C 
ATOM     34  C25 UNL     1       8.452   2.297   0.736  0.00  0.00    +0.270 C 
ATOM     35  O5  UNL     1       7.208   2.205   0.037  0.00  0.00    -0.485 OA
ENDBRANCH  23  25
ENDBRANCH  20  22
ENDBRANCH   1  20
TORSDOF 5
