MODEL 1
REMARK VINA RESULT:    -5.498      0.000      0.000
REMARK INTER + INTRA:          -8.574
REMARK INTER:                  -7.426
REMARK INTRA:                  -1.148
REMARK UNBOUND:                -1.148
REMARK  Name = /home/qwerty/github/datacon2025hack/step_04_hit_selection/docking/ligands/lig_796.pdb
REMARK  8 active torsions:
REMARK  status: ('A' for Active; 'I' for Inactive)
REMARK    1  A    between atoms: C2_2  and  C3_3
REMARK    2  A    between atoms: C3_3  and  C4_4
REMARK    3  A    between atoms: C4_4  and  C5_5
REMARK    4  A    between atoms: C8_10  and  C9_11
REMARK    5  A    between atoms: C10_12  and  C11_13
REMARK    6  A    between atoms: C11_13  and  N2_14
REMARK    7  A    between atoms: C12_15  and  C13_17
REMARK    8  A    between atoms: C13_17  and  C14_18
REMARK                            x       y       z     vdW  Elec       q    Type
REMARK                         _______ _______ _______ _____ _____    ______ ____
ROOT
ATOM      1  C5  UNL     1      10.060   3.035  21.912  0.00  0.00    +0.216 C 
ATOM      2  O1  UNL     1       9.792   1.831  22.175  0.00  0.00    -0.276 OA
ATOM      3  N1  UNL     1      11.431   3.435  21.728  0.00  0.00    -0.301 N 
ATOM      4  C6  UNL     1      12.414   2.469  21.227  0.00  0.00    +0.108 C 
ATOM      5  C7  UNL     1      13.381   3.147  20.251  0.00  0.00    +0.022 C 
ATOM      6  C8  UNL     1      13.968   4.442  20.850  0.00  0.00    -0.007 C 
ATOM      7  C9  UNL     1      14.960   5.089  19.875  0.00  0.00    +0.008 C 
ATOM      8  C10 UNL     1      12.854   5.418  21.344  0.00  0.00    +0.026 C 
ATOM      9  C19 UNL     1      11.943   4.671  22.336  0.00  0.00    +0.113 C 
ENDROOT
BRANCH   1  10
ATOM     10  C4  UNL     1       8.940   4.038  21.812  0.00  0.00    +0.100 C 
BRANCH  10  11
ATOM     11  C3  UNL     1       8.047   4.016  23.059  0.00  0.00    +0.036 C 
BRANCH  11  13
ATOM     12  C1  UNL     1       8.666   6.393  23.415  0.00  0.00    +0.004 C 
ATOM     13  C2  UNL     1       8.295   5.217  23.929  0.00  0.00    -0.034 C 
ENDBRANCH  11  13
ENDBRANCH  10  11
ENDBRANCH   1  10
BRANCH   8  14
ATOM     14  C11 UNL     1      12.002   6.058  20.216  0.00  0.00    +0.109 C 
BRANCH  14  15
ATOM     15  N2  UNL     1      11.820   7.493  20.433  0.00  0.00    -0.315 N 
ATOM     16  C12 UNL     1      10.526   8.118  20.418  0.00  0.00    +0.220 C 
ATOM     17  O2  UNL     1       9.499   7.410  20.223  0.00  0.00    -0.275 OA
ATOM     18  H19 UNL     1      12.639   8.044  20.777  0.00  0.00    +0.149 HD
BRANCH  16  19
ATOM     19  C13 UNL     1      10.397   9.620  20.668  0.00  0.00    +0.051 C 
ATOM     20  C14 UNL     1      10.848  10.389  19.409  0.00  0.00    +0.021 C 
ATOM     21  C15 UNL     1      11.246  10.014  21.904  0.00  0.00    +0.043 C 
ATOM     22  C16 UNL     1      10.247  10.197  22.991  0.00  0.00    -0.030 C 
ATOM     23  C17 UNL     1       9.007  10.199  22.536  0.00  0.00    -0.030 C 
ATOM     24  C18 UNL     1       8.952  10.037  21.060  0.00  0.00    +0.043 C 
ENDBRANCH  16  19
ENDBRANCH  14  15
ENDBRANCH   8  14
TORSDOF 6
ENDMDL
MODEL 2
REMARK VINA RESULT:    -5.316      4.467      9.017
REMARK INTER + INTRA:          -8.328
REMARK INTER:                  -7.178
REMARK INTRA:                  -1.150
REMARK UNBOUND:                -1.148
REMARK  Name = /home/qwerty/github/datacon2025hack/step_04_hit_selection/docking/ligands/lig_796.pdb
REMARK  8 active torsions:
REMARK  status: ('A' for Active; 'I' for Inactive)
REMARK    1  A    between atoms: C2_2  and  C3_3
REMARK    2  A    between atoms: C3_3  and  C4_4
REMARK    3  A    between atoms: C4_4  and  C5_5
REMARK    4  A    between atoms: C8_10  and  C9_11
REMARK    5  A    between atoms: C10_12  and  C11_13
REMARK    6  A    between atoms: C11_13  and  N2_14
REMARK    7  A    between atoms: C12_15  and  C13_17
REMARK    8  A    between atoms: C13_17  and  C14_18
REMARK                            x       y       z     vdW  Elec       q    Type
REMARK                         _______ _______ _______ _____ _____    ______ ____
ROOT
ATOM      1  C5  UNL     1      13.856   3.447  20.091  0.00  0.00    +0.216 C 
ATOM      2  O1  UNL     1      13.673   4.470  19.376  0.00  0.00    -0.276 OA
ATOM      3  N1  UNL     1      12.943   3.158  21.167  0.00  0.00    -0.301 N 
ATOM      4  C6  UNL     1      11.546   3.599  21.078  0.00  0.00    +0.108 C 
ATOM      5  C7  UNL     1      10.610   2.528  21.649  0.00  0.00    +0.022 C 
ATOM      6  C8  UNL     1      11.074   2.063  23.045  0.00  0.00    -0.007 C 
ATOM      7  C9  UNL     1      10.108   1.016  23.616  0.00  0.00    +0.008 C 
ATOM      8  C10 UNL     1      12.564   1.598  23.044  0.00  0.00    +0.026 C 
ATOM      9  C19 UNL     1      13.439   2.735  22.483  0.00  0.00    +0.113 C 
ENDROOT
BRANCH   1  10
ATOM     10  C4  UNL     1      15.037   2.553  19.818  0.00  0.00    +0.100 C 
BRANCH  10  11
ATOM     11  C3  UNL     1      16.365   3.300  19.999  0.00  0.00    +0.036 C 
BRANCH  11  13
ATOM     12  C1  UNL     1      18.037   3.712  21.787  0.00  0.00    +0.004 C 
ATOM     13  C2  UNL     1      16.855   3.207  21.417  0.00  0.00    -0.034 C 
ENDBRANCH  11  13
ENDBRANCH  10  11
ENDBRANCH   1  10
BRANCH   8  14
ATOM     14  C11 UNL     1      12.836   0.283  22.268  0.00  0.00    +0.109 C 
BRANCH  14  15
ATOM     15  N2  UNL     1      14.270   0.032  22.126  0.00  0.00    -0.315 N 
ATOM     16  C12 UNL     1      15.018  -0.735  23.084  0.00  0.00    +0.220 C 
ATOM     17  O2  UNL     1      14.424  -1.226  24.084  0.00  0.00    -0.275 OA
ATOM     18  H19 UNL     1      14.723   0.275  21.215  0.00  0.00    +0.149 HD
BRANCH  16  19
ATOM     19  C13 UNL     1      16.512  -0.978  22.873  0.00  0.00    +0.051 C 
ATOM     20  C14 UNL     1      16.804  -1.094  21.362  0.00  0.00    +0.021 C 
ATOM     21  C15 UNL     1      16.941  -2.260  23.630  0.00  0.00    +0.043 C 
ATOM     22  C16 UNL     1      17.645  -1.753  24.839  0.00  0.00    -0.030 C 
ATOM     23  C17 UNL     1      17.880  -0.454  24.774  0.00  0.00    -0.030 C 
ATOM     24  C18 UNL     1      17.392   0.139  23.503  0.00  0.00    +0.043 C 
ENDBRANCH  16  19
ENDBRANCH  14  15
ENDBRANCH   8  14
TORSDOF 6
ENDMDL
MODEL 3
REMARK VINA RESULT:    -5.167     15.346     16.530
REMARK INTER + INTRA:          -8.127
REMARK INTER:                  -6.771
REMARK INTRA:                  -1.356
REMARK UNBOUND:                -1.148
REMARK  Name = /home/qwerty/github/datacon2025hack/step_04_hit_selection/docking/ligands/lig_796.pdb
REMARK  8 active torsions:
REMARK  status: ('A' for Active; 'I' for Inactive)
REMARK    1  A    between atoms: C2_2  and  C3_3
REMARK    2  A    between atoms: C3_3  and  C4_4
REMARK    3  A    between atoms: C4_4  and  C5_5
REMARK    4  A    between atoms: C8_10  and  C9_11
REMARK    5  A    between atoms: C10_12  and  C11_13
REMARK    6  A    between atoms: C11_13  and  N2_14
REMARK    7  A    between atoms: C12_15  and  C13_17
REMARK    8  A    between atoms: C13_17  and  C14_18
REMARK                            x       y       z     vdW  Elec       q    Type
REMARK                         _______ _______ _______ _____ _____    ______ ____
ROOT
ATOM      1  C5  UNL     1      19.086   3.932  34.533  0.00  0.00    +0.216 C 
ATOM      2  O1  UNL     1      17.949   3.622  34.982  0.00  0.00    -0.276 OA
ATOM      3  N1  UNL     1      19.764   3.036  33.632  0.00  0.00    -0.301 N 
ATOM      4  C6  UNL     1      18.986   2.150  32.760  0.00  0.00    +0.108 C 
ATOM      5  C7  UNL     1      19.639   2.051  31.377  0.00  0.00    +0.022 C 
ATOM      6  C8  UNL     1      21.142   1.723  31.488  0.00  0.00    -0.007 C 
ATOM      7  C9  UNL     1      21.772   1.594  30.094  0.00  0.00    +0.008 C 
ATOM      8  C10 UNL     1      21.894   2.723  32.420  0.00  0.00    +0.026 C 
ATOM      9  C19 UNL     1      21.195   2.745  33.793  0.00  0.00    +0.113 C 
ENDROOT
BRANCH   1  10
ATOM     10  C4  UNL     1      19.724   5.227  34.962  0.00  0.00    +0.100 C 
BRANCH  10  11
ATOM     11  C3  UNL     1      18.787   6.052  35.854  0.00  0.00    +0.036 C 
BRANCH  11  13
ATOM     12  C1  UNL     1      19.479   7.557  37.702  0.00  0.00    +0.004 C 
ATOM     13  C2  UNL     1      19.407   6.322  37.197  0.00  0.00    -0.034 C 
ENDBRANCH  11  13
ENDBRANCH  10  11
ENDBRANCH   1  10
BRANCH   8  14
ATOM     14  C11 UNL     1      22.019   4.166  31.863  0.00  0.00    +0.109 C 
BRANCH  14  15
ATOM     15  N2  UNL     1      22.829   5.010  32.741  0.00  0.00    -0.315 N 
ATOM     16  C12 UNL     1      22.730   6.444  32.739  0.00  0.00    +0.220 C 
ATOM     17  O2  UNL     1      21.910   7.007  31.962  0.00  0.00    -0.275 OA
ATOM     18  H19 UNL     1      23.366   4.546  33.508  0.00  0.00    +0.149 HD
BRANCH  16  19
ATOM     19  C13 UNL     1      23.590   7.273  33.693  0.00  0.00    +0.051 C 
ATOM     20  C14 UNL     1      24.622   8.082  32.880  0.00  0.00    +0.021 C 
ATOM     21  C15 UNL     1      24.286   6.334  34.711  0.00  0.00    +0.043 C 
ATOM     22  C16 UNL     1      23.506   6.513  35.965  0.00  0.00    -0.030 C 
ATOM     23  C17 UNL     1      22.666   7.530  35.892  0.00  0.00    -0.030 C 
ATOM     24  C18 UNL     1      22.744   8.227  34.582  0.00  0.00    +0.043 C 
ENDBRANCH  16  19
ENDBRANCH  14  15
ENDBRANCH   8  14
TORSDOF 6
ENDMDL
MODEL 4
REMARK VINA RESULT:    -5.160      8.063     11.497
REMARK INTER + INTRA:          -8.118
REMARK INTER:                  -6.948
REMARK INTRA:                  -1.170
REMARK UNBOUND:                -1.148
REMARK  Name = /home/qwerty/github/datacon2025hack/step_04_hit_selection/docking/ligands/lig_796.pdb
REMARK  8 active torsions:
REMARK  status: ('A' for Active; 'I' for Inactive)
REMARK    1  A    between atoms: C2_2  and  C3_3
REMARK    2  A    between atoms: C3_3  and  C4_4
REMARK    3  A    between atoms: C4_4  and  C5_5
REMARK    4  A    between atoms: C8_10  and  C9_11
REMARK    5  A    between atoms: C10_12  and  C11_13
REMARK    6  A    between atoms: C11_13  and  N2_14
REMARK    7  A    between atoms: C12_15  and  C13_17
REMARK    8  A    between atoms: C13_17  and  C14_18
REMARK                            x       y       z     vdW  Elec       q    Type
REMARK                         _______ _______ _______ _____ _____    ______ ____
ROOT
ATOM      1  C5  UNL     1      17.803   8.468  20.371  0.00  0.00    +0.216 C 
ATOM      2  O1  UNL     1      16.557   8.271  20.390  0.00  0.00    -0.276 OA
ATOM      3  N1  UNL     1      18.333   9.609  19.670  0.00  0.00    -0.301 N 
ATOM      4  C6  UNL     1      17.522  10.824  19.534  0.00  0.00    +0.108 C 
ATOM      5  C7  UNL     1      18.398  12.072  19.692  0.00  0.00    +0.022 C 
ATOM      6  C8  UNL     1      19.646  12.000  18.789  0.00  0.00    -0.007 C 
ATOM      7  C9  UNL     1      20.493  13.271  18.934  0.00  0.00    +0.008 C 
ATOM      8  C10 UNL     1      20.456  10.684  19.010  0.00  0.00    +0.026 C 
ATOM      9  C19 UNL     1      19.516   9.481  18.808  0.00  0.00    +0.113 C 
ENDROOT
BRANCH   1  10
ATOM     10  C4  UNL     1      18.717   7.494  21.067  0.00  0.00    +0.100 C 
BRANCH  10  11
ATOM     11  C3  UNL     1      18.687   6.113  20.399  0.00  0.00    +0.036 C 
BRANCH  11  13
ATOM     12  C1  UNL     1      19.070   4.334  22.087  0.00  0.00    +0.004 C 
ATOM     13  C2  UNL     1      18.214   5.053  21.355  0.00  0.00    -0.034 C 
ENDBRANCH  11  13
ENDBRANCH  10  11
ENDBRANCH   1  10
BRANCH   8  14
ATOM     14  C11 UNL     1      21.167  10.581  20.385  0.00  0.00    +0.109 C 
BRANCH  14  15
ATOM     15  N2  UNL     1      21.788   9.268  20.568  0.00  0.00    -0.315 N 
ATOM     16  C12 UNL     1      23.206   9.063  20.459  0.00  0.00    +0.220 C 
ATOM     17  O2  UNL     1      23.956  10.046  20.206  0.00  0.00    -0.275 OA
ATOM     18  H19 UNL     1      21.198   8.498  20.958  0.00  0.00    +0.149 HD
BRANCH  16  19
ATOM     19  C13 UNL     1      23.798   7.671  20.678  0.00  0.00    +0.051 C 
ATOM     20  C14 UNL     1      25.294   7.800  21.034  0.00  0.00    +0.021 C 
ATOM     21  C15 UNL     1      23.594   6.814  19.403  0.00  0.00    +0.043 C 
ATOM     22  C16 UNL     1      22.468   5.906  19.748  0.00  0.00    -0.030 C 
ATOM     23  C17 UNL     1      22.168   5.946  21.034  0.00  0.00    -0.030 C 
ATOM     24  C18 UNL     1      23.052   6.874  21.785  0.00  0.00    +0.043 C 
ENDBRANCH  16  19
ENDBRANCH  14  15
ENDBRANCH   8  14
TORSDOF 6
ENDMDL
MODEL 5
REMARK VINA RESULT:    -5.140     13.931     15.713
REMARK INTER + INTRA:          -8.090
REMARK INTER:                  -7.596
REMARK INTRA:                  -0.494
REMARK UNBOUND:                -1.148
REMARK  Name = /home/qwerty/github/datacon2025hack/step_04_hit_selection/docking/ligands/lig_796.pdb
REMARK  8 active torsions:
REMARK  status: ('A' for Active; 'I' for Inactive)
REMARK    1  A    between atoms: C2_2  and  C3_3
REMARK    2  A    between atoms: C3_3  and  C4_4
REMARK    3  A    between atoms: C4_4  and  C5_5
REMARK    4  A    between atoms: C8_10  and  C9_11
REMARK    5  A    between atoms: C10_12  and  C11_13
REMARK    6  A    between atoms: C11_13  and  N2_14
REMARK    7  A    between atoms: C12_15  and  C13_17
REMARK    8  A    between atoms: C13_17  and  C14_18
REMARK                            x       y       z     vdW  Elec       q    Type
REMARK                         _______ _______ _______ _____ _____    ______ ____
ROOT
ATOM      1  C5  UNL     1      21.527   1.673  28.525  0.00  0.00    +0.216 C 
ATOM      2  O1  UNL     1      21.088   0.772  27.760  0.00  0.00    -0.276 OA
ATOM      3  N1  UNL     1      20.918   1.871  29.815  0.00  0.00    -0.301 N 
ATOM      4  C6  UNL     1      20.283   0.742  30.504  0.00  0.00    +0.108 C 
ATOM      5  C7  UNL     1      20.570   0.804  32.008  0.00  0.00    +0.022 C 
ATOM      6  C8  UNL     1      20.251   2.199  32.584  0.00  0.00    -0.007 C 
ATOM      7  C9  UNL     1      20.512   2.234  34.096  0.00  0.00    +0.008 C 
ATOM      8  C10 UNL     1      20.978   3.338  31.802  0.00  0.00    +0.026 C 
ATOM      9  C19 UNL     1      20.619   3.222  30.308  0.00  0.00    +0.113 C 
ENDROOT
BRANCH   1  10
ATOM     10  C4  UNL     1      22.671   2.540  28.068  0.00  0.00    +0.100 C 
BRANCH  10  11
ATOM     11  C3  UNL     1      22.562   2.882  26.577  0.00  0.00    +0.036 C 
BRANCH  11  13
ATOM     12  C1  UNL     1      22.575   4.936  25.183  0.00  0.00    +0.004 C 
ATOM     13  C2  UNL     1      22.356   4.357  26.368  0.00  0.00    -0.034 C 
ENDBRANCH  11  13
ENDBRANCH  10  11
ENDBRANCH   1  10
BRANCH   8  14
ATOM     14  C11 UNL     1      22.519   3.368  31.979  0.00  0.00    +0.109 C 
BRANCH  14  15
ATOM     15  N2  UNL     1      22.927   4.394  32.940  0.00  0.00    -0.315 N 
ATOM     16  C12 UNL     1      23.074   5.777  32.577  0.00  0.00    +0.220 C 
ATOM     17  O2  UNL     1      22.836   6.134  31.390  0.00  0.00    -0.275 OA
ATOM     18  H19 UNL     1      22.943   4.137  33.953  0.00  0.00    +0.149 HD
BRANCH  16  19
ATOM     19  C13 UNL     1      23.486   6.805  33.629  0.00  0.00    +0.051 C 
ATOM     20  C14 UNL     1      23.355   6.181  35.034  0.00  0.00    +0.021 C 
ATOM     21  C15 UNL     1      22.604   8.072  33.490  0.00  0.00    +0.043 C 
ATOM     22  C16 UNL     1      23.488   9.061  32.817  0.00  0.00    -0.030 C 
ATOM     23  C17 UNL     1      24.745   8.657  32.766  0.00  0.00    -0.030 C 
ATOM     24  C18 UNL     1      24.933   7.332  33.412  0.00  0.00    +0.043 C 
ENDBRANCH  16  19
ENDBRANCH  14  15
ENDBRANCH   8  14
TORSDOF 6
ENDMDL
MODEL 6
REMARK VINA RESULT:    -5.132     15.785     17.307
REMARK INTER + INTRA:          -8.079
REMARK INTER:                  -6.951
REMARK INTRA:                  -1.128
REMARK UNBOUND:                -1.148
REMARK  Name = /home/qwerty/github/datacon2025hack/step_04_hit_selection/docking/ligands/lig_796.pdb
REMARK  8 active torsions:
REMARK  status: ('A' for Active; 'I' for Inactive)
REMARK    1  A    between atoms: C2_2  and  C3_3
REMARK    2  A    between atoms: C3_3  and  C4_4
REMARK    3  A    between atoms: C4_4  and  C5_5
REMARK    4  A    between atoms: C8_10  and  C9_11
REMARK    5  A    between atoms: C10_12  and  C11_13
REMARK    6  A    between atoms: C11_13  and  N2_14
REMARK    7  A    between atoms: C12_15  and  C13_17
REMARK    8  A    between atoms: C13_17  and  C14_18
REMARK                            x       y       z     vdW  Elec       q    Type
REMARK                         _______ _______ _______ _____ _____    ______ ____
ROOT
ATOM      1  C5  UNL     1      20.208   4.519  34.228  0.00  0.00    +0.216 C 
ATOM      2  O1  UNL     1      19.615   3.407  34.278  0.00  0.00    -0.276 OA
ATOM      3  N1  UNL     1      19.640   5.659  34.899  0.00  0.00    -0.301 N 
ATOM      4  C6  UNL     1      18.808   5.465  36.091  0.00  0.00    +0.108 C 
ATOM      5  C7  UNL     1      19.095   6.557  37.128  0.00  0.00    +0.022 C 
ATOM      6  C8  UNL     1      19.033   7.962  36.495  0.00  0.00    -0.007 C 
ATOM      7  C9  UNL     1      19.290   9.045  37.552  0.00  0.00    +0.008 C 
ATOM      8  C10 UNL     1      19.959   8.085  35.243  0.00  0.00    +0.026 C 
ATOM      9  C19 UNL     1      19.590   6.973  34.243  0.00  0.00    +0.113 C 
ENDROOT
BRANCH   1  10
ATOM     10  C4  UNL     1      21.493   4.639  33.450  0.00  0.00    +0.100 C 
BRANCH  10  11
ATOM     11  C3  UNL     1      22.051   3.264  33.063  0.00  0.00    +0.036 C 
BRANCH  11  13
ATOM     12  C1  UNL     1      21.268   3.616  30.734  0.00  0.00    +0.004 C 
ATOM     13  C2  UNL     1      22.190   3.130  31.572  0.00  0.00    -0.034 C 
ENDBRANCH  11  13
ENDBRANCH  10  11
ENDBRANCH   1  10
BRANCH   8  14
ATOM     14  C11 UNL     1      21.479   8.044  35.551  0.00  0.00    +0.109 C 
BRANCH  14  15
ATOM     15  N2  UNL     1      22.272   8.014  34.322  0.00  0.00    -0.315 N 
ATOM     16  C12 UNL     1      23.549   7.360  34.243  0.00  0.00    +0.220 C 
ATOM     17  O2  UNL     1      24.009   6.775  35.263  0.00  0.00    -0.275 OA
ATOM     18  H19 UNL     1      21.816   8.331  33.437  0.00  0.00    +0.149 HD
BRANCH  16  19
ATOM     19  C13 UNL     1      24.324   7.348  32.926  0.00  0.00    +0.051 C 
ATOM     20  C14 UNL     1      25.259   6.121  32.892  0.00  0.00    +0.021 C 
ATOM     21  C15 UNL     1      25.122   8.669  32.783  0.00  0.00    +0.043 C 
ATOM     22  C16 UNL     1      24.338   9.466  31.803  0.00  0.00    -0.030 C 
ATOM     23  C17 UNL     1      23.394   8.751  31.216  0.00  0.00    -0.030 C 
ATOM     24  C18 UNL     1      23.389   7.341  31.685  0.00  0.00    +0.043 C 
ENDBRANCH  16  19
ENDBRANCH  14  15
ENDBRANCH   8  14
TORSDOF 6
ENDMDL
MODEL 7
REMARK VINA RESULT:    -5.115      4.409      7.339
REMARK INTER + INTRA:          -8.056
REMARK INTER:                  -6.221
REMARK INTRA:                  -1.835
REMARK UNBOUND:                -1.148
REMARK  Name = /home/qwerty/github/datacon2025hack/step_04_hit_selection/docking/ligands/lig_796.pdb
REMARK  8 active torsions:
REMARK  status: ('A' for Active; 'I' for Inactive)
REMARK    1  A    between atoms: C2_2  and  C3_3
REMARK    2  A    between atoms: C3_3  and  C4_4
REMARK    3  A    between atoms: C4_4  and  C5_5
REMARK    4  A    between atoms: C8_10  and  C9_11
REMARK    5  A    between atoms: C10_12  and  C11_13
REMARK    6  A    between atoms: C11_13  and  N2_14
REMARK    7  A    between atoms: C12_15  and  C13_17
REMARK    8  A    between atoms: C13_17  and  C14_18
REMARK                            x       y       z     vdW  Elec       q    Type
REMARK                         _______ _______ _______ _____ _____    ______ ____
ROOT
ATOM      1  C5  UNL     1      16.220  -0.386  20.816  0.00  0.00    +0.216 C 
ATOM      2  O1  UNL     1      17.002  -1.032  20.067  0.00  0.00    -0.276 OA
ATOM      3  N1  UNL     1      16.115  -0.739  22.208  0.00  0.00    -0.301 N 
ATOM      4  C6  UNL     1      17.261  -1.340  22.898  0.00  0.00    +0.108 C 
ATOM      5  C7  UNL     1      17.378  -0.788  24.323  0.00  0.00    +0.022 C 
ATOM      6  C8  UNL     1      16.032  -0.874  25.071  0.00  0.00    -0.007 C 
ATOM      7  C9  UNL     1      16.174  -0.349  26.506  0.00  0.00    +0.008 C 
ATOM      8  C10 UNL     1      14.872  -0.198  24.274  0.00  0.00    +0.026 C 
ATOM      9  C19 UNL     1      14.805  -0.824  22.868  0.00  0.00    +0.113 C 
ENDROOT
BRANCH   1  10
ATOM     10  C4  UNL     1      15.394   0.732  20.236  0.00  0.00    +0.100 C 
BRANCH  10  11
ATOM     11  C3  UNL     1      16.258   1.949  19.882  0.00  0.00    +0.036 C 
BRANCH  11  13
ATOM     12  C1  UNL     1      17.099   3.949  21.088  0.00  0.00    +0.004 C 
ATOM     13  C2  UNL     1      16.726   2.666  21.118  0.00  0.00    -0.034 C 
ENDBRANCH  11  13
ENDBRANCH  10  11
ENDBRANCH   1  10
BRANCH   8  14
ATOM     14  C11 UNL     1      14.971   1.347  24.166  0.00  0.00    +0.109 C 
BRANCH  14  15
ATOM     15  N2  UNL     1      13.890   1.895  23.346  0.00  0.00    -0.315 N 
ATOM     16  C12 UNL     1      13.753   3.303  23.092  0.00  0.00    +0.220 C 
ATOM     17  O2  UNL     1      14.596   4.106  23.580  0.00  0.00    -0.275 OA
ATOM     18  H19 UNL     1      13.307   1.227  22.794  0.00  0.00    +0.149 HD
BRANCH  16  19
ATOM     19  C13 UNL     1      12.612   3.815  22.213  0.00  0.00    +0.051 C 
ATOM     20  C14 UNL     1      11.316   3.888  23.047  0.00  0.00    +0.021 C 
ATOM     21  C15 UNL     1      12.443   2.882  20.987  0.00  0.00    +0.043 C 
ATOM     22  C16 UNL     1      13.058   3.638  19.864  0.00  0.00    -0.030 C 
ATOM     23  C17 UNL     1      13.326   4.890  20.190  0.00  0.00    -0.030 C 
ATOM     24  C18 UNL     1      12.922   5.203  21.585  0.00  0.00    +0.043 C 
ENDBRANCH  16  19
ENDBRANCH  14  15
ENDBRANCH   8  14
TORSDOF 6
ENDMDL
MODEL 8
REMARK VINA RESULT:    -5.083     16.013     17.570
REMARK INTER + INTRA:          -8.013
REMARK INTER:                  -6.193
REMARK INTRA:                  -1.821
REMARK UNBOUND:                -1.148
REMARK  Name = /home/qwerty/github/datacon2025hack/step_04_hit_selection/docking/ligands/lig_796.pdb
REMARK  8 active torsions:
REMARK  status: ('A' for Active; 'I' for Inactive)
REMARK    1  A    between atoms: C2_2  and  C3_3
REMARK    2  A    between atoms: C3_3  and  C4_4
REMARK    3  A    between atoms: C4_4  and  C5_5
REMARK    4  A    between atoms: C8_10  and  C9_11
REMARK    5  A    between atoms: C10_12  and  C11_13
REMARK    6  A    between atoms: C11_13  and  N2_14
REMARK    7  A    between atoms: C12_15  and  C13_17
REMARK    8  A    between atoms: C13_17  and  C14_18
REMARK                            x       y       z     vdW  Elec       q    Type
REMARK                         _______ _______ _______ _____ _____    ______ ____
ROOT
ATOM      1  C5  UNL     1      19.937  10.678  36.056  0.00  0.00    +0.216 C 
ATOM      2  O1  UNL     1      19.378  11.743  36.437  0.00  0.00    -0.276 OA
ATOM      3  N1  UNL     1      19.638   9.438  36.726  0.00  0.00    -0.301 N 
ATOM      4  C6  UNL     1      18.328   9.247  37.357  0.00  0.00    +0.108 C 
ATOM      5  C7  UNL     1      17.832   7.813  37.137  0.00  0.00    +0.022 C 
ATOM      6  C8  UNL     1      18.912   6.781  37.519  0.00  0.00    -0.007 C 
ATOM      7  C9  UNL     1      18.388   5.352  37.325  0.00  0.00    +0.008 C 
ATOM      8  C10 UNL     1      20.267   7.050  36.792  0.00  0.00    +0.026 C 
ATOM      9  C19 UNL     1      20.708   8.497  37.083  0.00  0.00    +0.113 C 
ENDROOT
BRANCH   1  10
ATOM     10  C4  UNL     1      20.924  10.725  34.919  0.00  0.00    +0.100 C 
BRANCH  10  11
ATOM     11  C3  UNL     1      20.226  10.975  33.575  0.00  0.00    +0.036 C 
BRANCH  11  13
ATOM     12  C1  UNL     1      19.533   9.058  32.158  0.00  0.00    +0.004 C 
ATOM     13  C2  UNL     1      19.306   9.841  33.218  0.00  0.00    -0.034 C 
ENDBRANCH  11  13
ENDBRANCH  10  11
ENDBRANCH   1  10
BRANCH   8  14
ATOM     14  C11 UNL     1      20.246   6.797  35.261  0.00  0.00    +0.109 C 
BRANCH  14  15
ATOM     15  N2  UNL     1      21.515   7.177  34.639  0.00  0.00    -0.315 N 
ATOM     16  C12 UNL     1      21.945   6.643  33.376  0.00  0.00    +0.220 C 
ATOM     17  O2  UNL     1      21.205   5.823  32.766  0.00  0.00    -0.275 OA
ATOM     18  H19 UNL     1      22.036   7.987  35.045  0.00  0.00    +0.149 HD
BRANCH  16  19
ATOM     19  C13 UNL     1      23.274   7.091  32.768  0.00  0.00    +0.051 C 
ATOM     20  C14 UNL     1      24.352   6.024  33.050  0.00  0.00    +0.021 C 
ATOM     21  C15 UNL     1      23.675   8.467  33.356  0.00  0.00    +0.043 C 
ATOM     22  C16 UNL     1      23.360   9.435  32.272  0.00  0.00    -0.030 C 
ATOM     23  C17 UNL     1      23.077   8.834  31.130  0.00  0.00    -0.030 C 
ATOM     24  C18 UNL     1      23.171   7.355  31.239  0.00  0.00    +0.043 C 
ENDBRANCH  16  19
ENDBRANCH  14  15
ENDBRANCH   8  14
TORSDOF 6
ENDMDL
MODEL 9
REMARK VINA RESULT:    -5.036     14.733     16.638
REMARK INTER + INTRA:          -7.950
REMARK INTER:                  -7.228
REMARK INTRA:                  -0.722
REMARK UNBOUND:                -1.148
REMARK  Name = /home/qwerty/github/datacon2025hack/step_04_hit_selection/docking/ligands/lig_796.pdb
REMARK  8 active torsions:
REMARK  status: ('A' for Active; 'I' for Inactive)
REMARK    1  A    between atoms: C2_2  and  C3_3
REMARK    2  A    between atoms: C3_3  and  C4_4
REMARK    3  A    between atoms: C4_4  and  C5_5
REMARK    4  A    between atoms: C8_10  and  C9_11
REMARK    5  A    between atoms: C10_12  and  C11_13
REMARK    6  A    between atoms: C11_13  and  N2_14
REMARK    7  A    between atoms: C12_15  and  C13_17
REMARK    8  A    between atoms: C13_17  and  C14_18
REMARK                            x       y       z     vdW  Elec       q    Type
REMARK                         _______ _______ _______ _____ _____    ______ ____
ROOT
ATOM      1  C5  UNL     1      20.191   5.975  35.329  0.00  0.00    +0.216 C 
ATOM      2  O1  UNL     1      19.851   6.643  36.344  0.00  0.00    -0.276 OA
ATOM      3  N1  UNL     1      21.443   6.258  34.677  0.00  0.00    -0.301 N 
ATOM      4  C6  UNL     1      22.564   6.803  35.451  0.00  0.00    +0.108 C 
ATOM      5  C7  UNL     1      23.885   6.177  34.991  0.00  0.00    +0.022 C 
ATOM      6  C8  UNL     1      24.038   6.250  33.458  0.00  0.00    -0.007 C 
ATOM      7  C9  UNL     1      25.381   5.651  33.018  0.00  0.00    +0.008 C 
ATOM      8  C10 UNL     1      22.810   5.636  32.715  0.00  0.00    +0.026 C 
ATOM      9  C19 UNL     1      21.530   6.333  33.212  0.00  0.00    +0.113 C 
ENDROOT
BRANCH   1  10
ATOM     10  C4  UNL     1      19.271   4.902  34.807  0.00  0.00    +0.100 C 
BRANCH  10  11
ATOM     11  C3  UNL     1      18.067   4.689  35.733  0.00  0.00    +0.036 C 
BRANCH  11  13
ATOM     12  C1  UNL     1      18.522   2.252  35.621  0.00  0.00    +0.004 C 
ATOM     13  C2  UNL     1      18.058   3.300  36.309  0.00  0.00    -0.034 C 
ENDBRANCH  11  13
ENDBRANCH  10  11
ENDBRANCH   1  10
BRANCH   8  14
ATOM     14  C11 UNL     1      22.668   4.098  32.854  0.00  0.00    +0.109 C 
BRANCH  14  15
ATOM     15  N2  UNL     1      22.201   3.489  31.608  0.00  0.00    -0.315 N 
ATOM     16  C12 UNL     1      21.358   2.326  31.586  0.00  0.00    +0.220 C 
ATOM     17  O2  UNL     1      20.991   1.806  32.676  0.00  0.00    -0.275 OA
ATOM     18  H19 UNL     1      22.346   4.020  30.719  0.00  0.00    +0.149 HD
BRANCH  16  19
ATOM     19  C13 UNL     1      20.887   1.746  30.252  0.00  0.00    +0.051 C 
ATOM     20  C14 UNL     1      19.352   1.862  30.156  0.00  0.00    +0.021 C 
ATOM     21  C15 UNL     1      21.350   0.271  30.136  0.00  0.00    +0.043 C 
ATOM     22  C16 UNL     1      22.505   0.322  29.202  0.00  0.00    -0.030 C 
ATOM     23  C17 UNL     1      22.621   1.499  28.612  0.00  0.00    -0.030 C 
ATOM     24  C18 UNL     1      21.553   2.442  29.032  0.00  0.00    +0.043 C 
ENDBRANCH  16  19
ENDBRANCH  14  15
ENDBRANCH   8  14
TORSDOF 6
ENDMDL
