MODEL 1
REMARK VINA RESULT:    -6.821      0.000      0.000
REMARK INTER + INTRA:          -9.190
REMARK INTER:                  -8.417
REMARK INTRA:                  -0.774
REMARK UNBOUND:                -0.774
REMARK  Name = /home/qwerty/github/datacon2025hack/step_04_hit_selection/docking/ligands/lig_403.pdb
REMARK  6 active torsions:
REMARK  status: ('A' for Active; 'I' for Inactive)
REMARK    1  A    between atoms: C1_1  and  C2_2
REMARK    2  A    between atoms: C2_2  and  C3_3
REMARK    3  A    between atoms: C3_3  and  N1_4
REMARK    4  A    between atoms: C3_3  and  C12_16
REMARK    5  A    between atoms: N2_7  and  C5_8
REMARK    6  A    between atoms: C7_10  and  C8_11
REMARK                            x       y       z     vdW  Elec       q    Type
REMARK                         _______ _______ _______ _____ _____    ______ ____
ROOT
ATOM      1  N1  UNL     1      23.560   5.533  33.332  0.00  0.00    -0.292 N 
ATOM      2  C4  UNL     1      22.697   4.711  32.533  0.00  0.00    +0.304 C 
ATOM      3  O1  UNL     1      21.751   5.231  31.880  0.00  0.00    -0.252 OA
ATOM      4  N2  UNL     1      22.936   3.298  32.457  0.00  0.00    -0.267 N 
ATOM      5  H7  UNL     1      24.267   5.044  33.925  0.00  0.00    +0.151 HD
ATOM      6  H8  UNL     1      23.871   2.944  32.763  0.00  0.00    +0.156 HD
ENDROOT
BRANCH   4   7
ATOM      7  C5  UNL     1      22.044   2.377  31.810  0.00  0.00    +0.070 A 
ATOM      8  C6  UNL     1      22.299   1.989  30.486  0.00  0.00    +0.029 A 
ATOM      9  C7  UNL     1      21.448   1.087  29.828  0.00  0.00    -0.049 A 
ATOM     10  C8  UNL     1      21.742   0.661  28.420  0.00  0.00    +0.044 C 
ATOM     11  C9  UNL     1      20.362   0.535  30.521  0.00  0.00    +0.006 A 
ATOM     12  C10 UNL     1      20.117   0.894  31.848  0.00  0.00    +0.040 A 
ATOM     13  C11 UNL     1      20.954   1.807  32.497  0.00  0.00    +0.145 A 
ATOM     14  F1  UNL     1      20.732   2.090  33.805  0.00  0.00    -0.204 F 
ENDBRANCH   4   7
BRANCH   1  15
ATOM     15  C3  UNL     1      23.419   6.996  33.393  0.00  0.00    +0.105 C 
BRANCH  15  16
ATOM     16  C12 UNL     1      22.555   7.439  34.566  0.00  0.00    -0.023 A 
ATOM     17  C13 UNL     1      22.697   6.797  35.812  0.00  0.00    +0.009 A 
ATOM     18  C14 UNL     1      21.893   7.158  36.898  0.00  0.00    +0.050 A 
ATOM     19  C15 UNL     1      20.927   8.154  36.748  0.00  0.00    +0.162 A 
ATOM     20  C16 UNL     1      20.781   8.810  35.520  0.00  0.00    +0.162 A 
ATOM     21  C17 UNL     1      21.574   8.444  34.428  0.00  0.00    +0.055 A 
ATOM     22  O2  UNL     1      19.832   9.831  35.403  0.00  0.00    -0.485 OA
ATOM     23  C18 UNL     1      19.215  10.401  36.560  0.00  0.00    +0.270 C 
ATOM     24  C19 UNL     1      18.927   9.311  37.600  0.00  0.00    +0.270 C 
ATOM     25  O3  UNL     1      20.091   8.508  37.812  0.00  0.00    -0.485 OA
ENDBRANCH  15  16
BRANCH  15  27
ATOM     26  C1  UNL     1      24.822   9.029  32.634  0.00  0.00    +0.006 C 
ATOM     27  C2  UNL     1      24.795   7.702  33.394  0.00  0.00    +0.024 C 
ENDBRANCH  15  27
ENDBRANCH   1  15
TORSDOF 4
ENDMDL
MODEL 2
REMARK VINA RESULT:    -6.550     15.456     16.954
REMARK INTER + INTRA:          -8.856
REMARK INTER:                  -8.185
REMARK INTRA:                  -0.671
REMARK UNBOUND:                -0.774
REMARK  Name = /home/qwerty/github/datacon2025hack/step_04_hit_selection/docking/ligands/lig_403.pdb
REMARK  6 active torsions:
REMARK  status: ('A' for Active; 'I' for Inactive)
REMARK    1  A    between atoms: C1_1  and  C2_2
REMARK    2  A    between atoms: C2_2  and  C3_3
REMARK    3  A    between atoms: C3_3  and  N1_4
REMARK    4  A    between atoms: C3_3  and  C12_16
REMARK    5  A    between atoms: N2_7  and  C5_8
REMARK    6  A    between atoms: C7_10  and  C8_11
REMARK                            x       y       z     vdW  Elec       q    Type
REMARK                         _______ _______ _______ _____ _____    ______ ____
ROOT
ATOM      1  N1  UNL     1      10.095   3.909  21.139  0.00  0.00    -0.292 N 
ATOM      2  C4  UNL     1      11.488   3.601  21.292  0.00  0.00    +0.304 C 
ATOM      3  O1  UNL     1      12.131   4.046  22.282  0.00  0.00    -0.252 OA
ATOM      4  N2  UNL     1      12.137   2.759  20.328  0.00  0.00    -0.267 N 
ATOM      5  H7  UNL     1       9.633   3.596  20.256  0.00  0.00    +0.151 HD
ATOM      6  H8  UNL     1      11.534   2.184  19.697  0.00  0.00    +0.156 HD
ENDROOT
BRANCH   4   7
ATOM      7  C5  UNL     1      13.553   2.519  20.311  0.00  0.00    +0.070 A 
ATOM      8  C6  UNL     1      14.049   1.304  20.808  0.00  0.00    +0.029 A 
ATOM      9  C7  UNL     1      15.427   1.037  20.801  0.00  0.00    -0.049 A 
ATOM     10  C8  UNL     1      15.946  -0.274  21.313  0.00  0.00    +0.044 C 
ATOM     11  C9  UNL     1      16.308   1.978  20.248  0.00  0.00    +0.006 A 
ATOM     12  C10 UNL     1      15.819   3.178  19.727  0.00  0.00    +0.040 A 
ATOM     13  C11 UNL     1      14.449   3.451  19.751  0.00  0.00    +0.145 A 
ATOM     14  F1  UNL     1      13.995   4.595  19.181  0.00  0.00    -0.204 F 
ENDBRANCH   4   7
BRANCH   1  15
ATOM     15  C3  UNL     1       9.350   4.701  22.130  0.00  0.00    +0.105 C 
BRANCH  15  16
ATOM     16  C12 UNL     1       9.324   6.182  21.774  0.00  0.00    -0.023 A 
ATOM     17  C13 UNL     1       8.271   6.990  22.249  0.00  0.00    +0.009 A 
ATOM     18  C14 UNL     1       8.202   8.346  21.910  0.00  0.00    +0.050 A 
ATOM     19  C15 UNL     1       9.176   8.906  21.083  0.00  0.00    +0.162 A 
ATOM     20  C16 UNL     1      10.235   8.121  20.613  0.00  0.00    +0.162 A 
ATOM     21  C17 UNL     1      10.301   6.763  20.938  0.00  0.00    +0.055 A 
ATOM     22  O2  UNL     1      11.219   8.713  19.816  0.00  0.00    -0.485 OA
ATOM     23  C18 UNL     1      11.320  10.136  19.703  0.00  0.00    +0.270 C 
ATOM     24  C19 UNL     1       9.922  10.765  19.649  0.00  0.00    +0.270 C 
ATOM     25  O3  UNL     1       9.108  10.251  20.706  0.00  0.00    -0.485 OA
ENDBRANCH  15  16
BRANCH  15  27
ATOM     26  C1  UNL     1       7.647   3.700  23.794  0.00  0.00    +0.006 C 
ATOM     27  C2  UNL     1       7.928   4.140  22.357  0.00  0.00    +0.024 C 
ENDBRANCH  15  27
ENDBRANCH   1  15
TORSDOF 4
ENDMDL
MODEL 3
REMARK VINA RESULT:    -6.543      7.296      9.515
REMARK INTER + INTRA:          -8.846
REMARK INTER:                  -8.141
REMARK INTRA:                  -0.705
REMARK UNBOUND:                -0.774
REMARK  Name = /home/qwerty/github/datacon2025hack/step_04_hit_selection/docking/ligands/lig_403.pdb
REMARK  6 active torsions:
REMARK  status: ('A' for Active; 'I' for Inactive)
REMARK    1  A    between atoms: C1_1  and  C2_2
REMARK    2  A    between atoms: C2_2  and  C3_3
REMARK    3  A    between atoms: C3_3  and  N1_4
REMARK    4  A    between atoms: C3_3  and  C12_16
REMARK    5  A    between atoms: N2_7  and  C5_8
REMARK    6  A    between atoms: C7_10  and  C8_11
REMARK                            x       y       z     vdW  Elec       q    Type
REMARK                         _______ _______ _______ _____ _____    ______ ____
ROOT
ATOM      1  N1  UNL     1      20.662   1.152  25.386  0.00  0.00    -0.292 N 
ATOM      2  C4  UNL     1      19.298   1.000  24.970  0.00  0.00    +0.304 C 
ATOM      3  O1  UNL     1      18.410   1.781  25.411  0.00  0.00    -0.252 OA
ATOM      4  N2  UNL     1      18.954  -0.025  24.028  0.00  0.00    -0.267 N 
ATOM      5  H7  UNL     1      21.340   0.424  25.068  0.00  0.00    +0.151 HD
ATOM      6  H8  UNL     1      19.728  -0.458  23.473  0.00  0.00    +0.156 HD
ENDROOT
BRANCH   4   7
ATOM      7  C5  UNL     1      17.602  -0.352  23.669  0.00  0.00    +0.070 A 
ATOM      8  C6  UNL     1      16.999   0.314  22.591  0.00  0.00    +0.029 A 
ATOM      9  C7  UNL     1      15.681   0.014  22.212  0.00  0.00    -0.049 A 
ATOM     10  C8  UNL     1      15.052   0.715  21.044  0.00  0.00    +0.044 C 
ATOM     11  C9  UNL     1      14.981  -0.993  22.892  0.00  0.00    +0.006 A 
ATOM     12  C10 UNL     1      15.585  -1.679  23.948  0.00  0.00    +0.040 A 
ATOM     13  C11 UNL     1      16.891  -1.367  24.337  0.00  0.00    +0.145 A 
ATOM     14  F1  UNL     1      17.475  -2.092  25.323  0.00  0.00    -0.204 F 
ENDBRANCH   4   7
BRANCH   1  15
ATOM     15  C3  UNL     1      21.096   2.230  26.289  0.00  0.00    +0.105 C 
BRANCH  15  16
ATOM     16  C12 UNL     1      21.029   1.811  27.752  0.00  0.00    -0.023 A 
ATOM     17  C13 UNL     1      22.214   1.456  28.426  0.00  0.00    +0.009 A 
ATOM     18  C14 UNL     1      22.179   1.035  29.760  0.00  0.00    +0.050 A 
ATOM     19  C15 UNL     1      20.958   0.950  30.430  0.00  0.00    +0.162 A 
ATOM     20  C16 UNL     1      19.773   1.311  29.779  0.00  0.00    +0.162 A 
ATOM     21  C17 UNL     1      19.802   1.720  28.443  0.00  0.00    +0.055 A 
ATOM     22  O2  UNL     1      18.566   1.253  30.483  0.00  0.00    -0.485 OA
ATOM     23  C18 UNL     1      18.547   1.108  31.906  0.00  0.00    +0.270 C 
ATOM     24  C19 UNL     1      19.651   0.142  32.355  0.00  0.00    +0.270 C 
ATOM     25  O3  UNL     1      20.898   0.501  31.753  0.00  0.00    -0.485 OA
ENDBRANCH  15  16
BRANCH  15  27
ATOM     26  C1  UNL     1      22.607   4.290  25.904  0.00  0.00    +0.006 C 
ATOM     27  C2  UNL     1      22.495   2.765  25.908  0.00  0.00    +0.024 C 
ENDBRANCH  15  27
ENDBRANCH   1  15
TORSDOF 4
ENDMDL
MODEL 4
REMARK VINA RESULT:    -6.528     12.461     14.963
REMARK INTER + INTRA:          -8.828
REMARK INTER:                  -8.067
REMARK INTRA:                  -0.761
REMARK UNBOUND:                -0.774
REMARK  Name = /home/qwerty/github/datacon2025hack/step_04_hit_selection/docking/ligands/lig_403.pdb
REMARK  6 active torsions:
REMARK  status: ('A' for Active; 'I' for Inactive)
REMARK    1  A    between atoms: C1_1  and  C2_2
REMARK    2  A    between atoms: C2_2  and  C3_3
REMARK    3  A    between atoms: C3_3  and  N1_4
REMARK    4  A    between atoms: C3_3  and  C12_16
REMARK    5  A    between atoms: N2_7  and  C5_8
REMARK    6  A    between atoms: C7_10  and  C8_11
REMARK                            x       y       z     vdW  Elec       q    Type
REMARK                         _______ _______ _______ _____ _____    ______ ____
ROOT
ATOM      1  N1  UNL     1      11.324  14.449  30.767  0.00  0.00    -0.292 N 
ATOM      2  C4  UNL     1      12.090  14.030  31.906  0.00  0.00    +0.304 C 
ATOM      3  O1  UNL     1      12.912  13.078  31.802  0.00  0.00    -0.252 OA
ATOM      4  N2  UNL     1      11.938  14.720  33.154  0.00  0.00    -0.267 N 
ATOM      5  H7  UNL     1      10.592  15.176  30.928  0.00  0.00    +0.151 HD
ATOM      6  H8  UNL     1      11.482  15.661  33.140  0.00  0.00    +0.156 HD
ENDROOT
BRANCH   4   7
ATOM      7  C5  UNL     1      12.543  14.282  34.381  0.00  0.00    +0.070 A 
ATOM      8  C6  UNL     1      13.644  14.987  34.893  0.00  0.00    +0.029 A 
ATOM      9  C7  UNL     1      14.254  14.587  36.092  0.00  0.00    -0.049 A 
ATOM     10  C8  UNL     1      15.416  15.360  36.643  0.00  0.00    +0.044 C 
ATOM     11  C9  UNL     1      13.727  13.501  36.805  0.00  0.00    +0.006 A 
ATOM     12  C10 UNL     1      12.615  12.812  36.316  0.00  0.00    +0.040 A 
ATOM     13  C11 UNL     1      12.019  13.199  35.112  0.00  0.00    +0.145 A 
ATOM     14  F1  UNL     1      10.902  12.553  34.693  0.00  0.00    -0.204 F 
ENDBRANCH   4   7
BRANCH   1  15
ATOM     15  C3  UNL     1      11.487  13.836  29.439  0.00  0.00    +0.105 C 
BRANCH  15  16
ATOM     16  C12 UNL     1      10.395  12.818  29.142  0.00  0.00    -0.023 A 
ATOM     17  C13 UNL     1       9.570  12.996  28.014  0.00  0.00    +0.009 A 
ATOM     18  C14 UNL     1       8.536  12.096  27.735  0.00  0.00    +0.050 A 
ATOM     19  C15 UNL     1       8.306  11.015  28.587  0.00  0.00    +0.162 A 
ATOM     20  C16 UNL     1       9.124  10.816  29.705  0.00  0.00    +0.162 A 
ATOM     21  C17 UNL     1      10.150  11.720  29.994  0.00  0.00    +0.055 A 
ATOM     22  O2  UNL     1       8.899   9.705  30.523  0.00  0.00    -0.485 OA
ATOM     23  C18 UNL     1       8.050   8.635  30.098  0.00  0.00    +0.270 C 
ATOM     24  C19 UNL     1       6.836   9.189  29.342  0.00  0.00    +0.270 C 
ATOM     25  O3  UNL     1       7.258  10.122  28.343  0.00  0.00    -0.485 OA
ENDBRANCH  15  16
BRANCH  15  27
ATOM     26  C1  UNL     1      12.825  14.759  27.430  0.00  0.00    +0.006 C 
ATOM     27  C2  UNL     1      11.595  14.905  28.327  0.00  0.00    +0.024 C 
ENDBRANCH  15  27
ENDBRANCH   1  15
TORSDOF 4
ENDMDL
MODEL 5
REMARK VINA RESULT:    -6.527      8.325     13.391
REMARK INTER + INTRA:          -8.827
REMARK INTER:                  -8.035
REMARK INTRA:                  -0.792
REMARK UNBOUND:                -0.774
REMARK  Name = /home/qwerty/github/datacon2025hack/step_04_hit_selection/docking/ligands/lig_403.pdb
REMARK  6 active torsions:
REMARK  status: ('A' for Active; 'I' for Inactive)
REMARK    1  A    between atoms: C1_1  and  C2_2
REMARK    2  A    between atoms: C2_2  and  C3_3
REMARK    3  A    between atoms: C3_3  and  N1_4
REMARK    4  A    between atoms: C3_3  and  C12_16
REMARK    5  A    between atoms: N2_7  and  C5_8
REMARK    6  A    between atoms: C7_10  and  C8_11
REMARK                            x       y       z     vdW  Elec       q    Type
REMARK                         _______ _______ _______ _____ _____    ______ ____
ROOT
ATOM      1  N1  UNL     1      17.894  -1.098  24.542  0.00  0.00    -0.292 N 
ATOM      2  C4  UNL     1      18.517  -0.086  25.346  0.00  0.00    +0.304 C 
ATOM      3  O1  UNL     1      17.810   0.747  25.977  0.00  0.00    -0.252 OA
ATOM      4  N2  UNL     1      19.947  -0.045  25.451  0.00  0.00    -0.267 N 
ATOM      5  H7  UNL     1      18.522  -1.701  23.966  0.00  0.00    +0.151 HD
ATOM      6  H8  UNL     1      20.482  -0.896  25.162  0.00  0.00    +0.156 HD
ENDROOT
BRANCH   4   7
ATOM      7  C5  UNL     1      20.664   1.015  26.104  0.00  0.00    +0.070 A 
ATOM      8  C6  UNL     1      21.053   0.856  27.443  0.00  0.00    +0.029 A 
ATOM      9  C7  UNL     1      21.760   1.871  28.108  0.00  0.00    -0.049 A 
ATOM     10  C8  UNL     1      22.191   1.683  29.532  0.00  0.00    +0.044 C 
ATOM     11  C9  UNL     1      22.117   3.032  27.409  0.00  0.00    +0.006 A 
ATOM     12  C10 UNL     1      21.757   3.186  26.068  0.00  0.00    +0.040 A 
ATOM     13  C11 UNL     1      21.038   2.183  25.412  0.00  0.00    +0.145 A 
ATOM     14  F1  UNL     1      20.757   2.329  24.093  0.00  0.00    -0.204 F 
ENDBRANCH   4   7
BRANCH   1  15
ATOM     15  C3  UNL     1      16.433  -1.244  24.452  0.00  0.00    +0.105 C 
BRANCH  15  16
ATOM     16  C12 UNL     1      15.850  -0.456  23.287  0.00  0.00    -0.023 A 
ATOM     17  C13 UNL     1      16.464  -0.535  22.021  0.00  0.00    +0.009 A 
ATOM     18  C14 UNL     1      15.972   0.205  20.940  0.00  0.00    +0.050 A 
ATOM     19  C15 UNL     1      14.870   1.043  21.116  0.00  0.00    +0.162 A 
ATOM     20  C16 UNL     1      14.241   1.124  22.363  0.00  0.00    +0.162 A 
ATOM     21  C17 UNL     1      14.737   0.396  23.449  0.00  0.00    +0.055 A 
ATOM     22  O2  UNL     1      13.115   1.941  22.506  0.00  0.00    -0.485 OA
ATOM     23  C18 UNL     1      12.436   2.468  21.362  0.00  0.00    +0.270 C 
ATOM     24  C19 UNL     1      13.449   2.874  20.284  0.00  0.00    +0.270 C 
ATOM     25  O3  UNL     1      14.382   1.815  20.057  0.00  0.00    -0.485 OA
ENDBRANCH  15  16
BRANCH  15  27
ATOM     26  C1  UNL     1      14.721  -3.041  25.171  0.00  0.00    +0.006 C 
ATOM     27  C2  UNL     1      16.010  -2.731  24.409  0.00  0.00    +0.024 C 
ENDBRANCH  15  27
ENDBRANCH   1  15
TORSDOF 4
ENDMDL
MODEL 6
REMARK VINA RESULT:    -6.415     12.997     16.178
REMARK INTER + INTRA:          -8.689
REMARK INTER:                  -7.978
REMARK INTRA:                  -0.711
REMARK UNBOUND:                -0.774
REMARK  Name = /home/qwerty/github/datacon2025hack/step_04_hit_selection/docking/ligands/lig_403.pdb
REMARK  6 active torsions:
REMARK  status: ('A' for Active; 'I' for Inactive)
REMARK    1  A    between atoms: C1_1  and  C2_2
REMARK    2  A    between atoms: C2_2  and  C3_3
REMARK    3  A    between atoms: C3_3  and  N1_4
REMARK    4  A    between atoms: C3_3  and  C12_16
REMARK    5  A    between atoms: N2_7  and  C5_8
REMARK    6  A    between atoms: C7_10  and  C8_11
REMARK                            x       y       z     vdW  Elec       q    Type
REMARK                         _______ _______ _______ _____ _____    ______ ____
ROOT
ATOM      1  N1  UNL     1      13.760   2.435  20.367  0.00  0.00    -0.292 N 
ATOM      2  C4  UNL     1      12.678   3.014  21.111  0.00  0.00    +0.304 C 
ATOM      3  O1  UNL     1      12.912   3.679  22.157  0.00  0.00    -0.252 OA
ATOM      4  N2  UNL     1      11.331   2.856  20.641  0.00  0.00    -0.267 N 
ATOM      5  H7  UNL     1      13.508   1.817  19.564  0.00  0.00    +0.151 HD
ATOM      6  H8  UNL     1      11.192   2.560  19.649  0.00  0.00    +0.156 HD
ENDROOT
BRANCH   4   7
ATOM      7  C5  UNL     1      10.177   3.265  21.392  0.00  0.00    +0.070 A 
ATOM      8  C6  UNL     1       9.390   4.326  20.917  0.00  0.00    +0.029 A 
ATOM      9  C7  UNL     1       8.253   4.746  21.625  0.00  0.00    -0.049 A 
ATOM     10  C8  UNL     1       7.406   5.866  21.098  0.00  0.00    +0.044 C 
ATOM     11  C9  UNL     1       7.878   4.065  22.792  0.00  0.00    +0.006 A 
ATOM     12  C10 UNL     1       8.641   2.991  23.256  0.00  0.00    +0.040 A 
ATOM     13  C11 UNL     1       9.783   2.585  22.561  0.00  0.00    +0.145 A 
ATOM     14  F1  UNL     1      10.469   1.499  22.997  0.00  0.00    -0.204 F 
ENDBRANCH   4   7
BRANCH   1  15
ATOM     15  C3  UNL     1      15.168   2.624  20.749  0.00  0.00    +0.105 C 
BRANCH  15  16
ATOM     16  C12 UNL     1      15.774   1.356  21.338  0.00  0.00    -0.023 A 
ATOM     17  C13 UNL     1      16.113   0.289  20.483  0.00  0.00    +0.009 A 
ATOM     18  C14 UNL     1      16.640  -0.900  21.000  0.00  0.00    +0.050 A 
ATOM     19  C15 UNL     1      16.819  -1.041  22.376  0.00  0.00    +0.162 A 
ATOM     20  C16 UNL     1      16.499   0.014  23.238  0.00  0.00    +0.162 A 
ATOM     21  C17 UNL     1      15.961   1.199  22.728  0.00  0.00    +0.055 A 
ATOM     22  O2  UNL     1      16.723  -0.136  24.610  0.00  0.00    -0.485 OA
ATOM     23  C18 UNL     1      17.517  -1.214  25.115  0.00  0.00    +0.270 C 
ATOM     24  C19 UNL     1      17.239  -2.496  24.319  0.00  0.00    +0.270 C 
ATOM     25  O3  UNL     1      17.314  -2.233  22.915  0.00  0.00    -0.485 OA
ENDBRANCH  15  16
BRANCH  15  27
ATOM     26  C1  UNL     1      16.531   4.593  19.781  0.00  0.00    +0.006 C 
ATOM     27  C2  UNL     1      16.010   3.171  19.574  0.00  0.00    +0.024 C 
ENDBRANCH  15  27
ENDBRANCH   1  15
TORSDOF 4
ENDMDL
MODEL 7
REMARK VINA RESULT:    -6.394      1.374      2.120
REMARK INTER + INTRA:          -8.663
REMARK INTER:                  -7.912
REMARK INTRA:                  -0.750
REMARK UNBOUND:                -0.774
REMARK  Name = /home/qwerty/github/datacon2025hack/step_04_hit_selection/docking/ligands/lig_403.pdb
REMARK  6 active torsions:
REMARK  status: ('A' for Active; 'I' for Inactive)
REMARK    1  A    between atoms: C1_1  and  C2_2
REMARK    2  A    between atoms: C2_2  and  C3_3
REMARK    3  A    between atoms: C3_3  and  N1_4
REMARK    4  A    between atoms: C3_3  and  C12_16
REMARK    5  A    between atoms: N2_7  and  C5_8
REMARK    6  A    between atoms: C7_10  and  C8_11
REMARK                            x       y       z     vdW  Elec       q    Type
REMARK                         _______ _______ _______ _____ _____    ______ ____
ROOT
ATOM      1  N1  UNL     1      22.856   5.147  34.131  0.00  0.00    -0.292 N 
ATOM      2  C4  UNL     1      21.989   4.326  33.335  0.00  0.00    +0.304 C 
ATOM      3  O1  UNL     1      21.173   4.858  32.533  0.00  0.00    -0.252 OA
ATOM      4  N2  UNL     1      22.077   2.898  33.435  0.00  0.00    -0.267 N 
ATOM      5  H7  UNL     1      23.445   4.664  34.846  0.00  0.00    +0.151 HD
ATOM      6  H8  UNL     1      22.933   2.491  33.877  0.00  0.00    +0.156 HD
ENDROOT
BRANCH   4   7
ATOM      7  C5  UNL     1      21.155   2.000  32.797  0.00  0.00    +0.070 A 
ATOM      8  C6  UNL     1      19.971   1.646  33.462  0.00  0.00    +0.029 A 
ATOM      9  C7  UNL     1      19.047   0.776  32.864  0.00  0.00    -0.049 A 
ATOM     10  C8  UNL     1      17.774   0.421  33.573  0.00  0.00    +0.044 C 
ATOM     11  C9  UNL     1      19.293   0.294  31.570  0.00  0.00    +0.006 A 
ATOM     12  C10 UNL     1      20.456   0.664  30.891  0.00  0.00    +0.040 A 
ATOM     13  C11 UNL     1      21.384   1.517  31.495  0.00  0.00    +0.145 A 
ATOM     14  F1  UNL     1      22.473   1.911  30.789  0.00  0.00    -0.204 F 
ENDBRANCH   4   7
BRANCH   1  15
ATOM     15  C3  UNL     1      22.872   6.614  34.022  0.00  0.00    +0.105 C 
BRANCH  15  16
ATOM     16  C12 UNL     1      21.946   7.273  35.035  0.00  0.00    -0.023 A 
ATOM     17  C13 UNL     1      22.144   7.038  36.410  0.00  0.00    +0.009 A 
ATOM     18  C14 UNL     1      21.288   7.602  37.362  0.00  0.00    +0.050 A 
ATOM     19  C15 UNL     1      20.216   8.394  36.951  0.00  0.00    +0.162 A 
ATOM     20  C16 UNL     1      20.012   8.647  35.589  0.00  0.00    +0.162 A 
ATOM     21  C17 UNL     1      20.857   8.076  34.634  0.00  0.00    +0.055 A 
ATOM     22  O2  UNL     1      18.953   9.475  35.203  0.00  0.00    -0.485 OA
ATOM     23  C18 UNL     1      18.258  10.280  36.159  0.00  0.00    +0.270 C 
ATOM     24  C19 UNL     1      18.084   9.510  37.474  0.00  0.00    +0.270 C 
ATOM     25  O3  UNL     1      19.329   8.941  37.884  0.00  0.00    -0.485 OA
ENDBRANCH  15  16
BRANCH  15  27
ATOM     26  C1  UNL     1      25.312   6.487  33.180  0.00  0.00    +0.006 C 
ATOM     27  C2  UNL     1      24.310   7.177  34.106  0.00  0.00    +0.024 C 
ENDBRANCH  15  27
ENDBRANCH   1  15
TORSDOF 4
ENDMDL
MODEL 8
REMARK VINA RESULT:    -6.297     14.817     16.040
REMARK INTER + INTRA:          -8.543
REMARK INTER:                  -7.789
REMARK INTRA:                  -0.754
REMARK UNBOUND:                -0.774
REMARK  Name = /home/qwerty/github/datacon2025hack/step_04_hit_selection/docking/ligands/lig_403.pdb
REMARK  6 active torsions:
REMARK  status: ('A' for Active; 'I' for Inactive)
REMARK    1  A    between atoms: C1_1  and  C2_2
REMARK    2  A    between atoms: C2_2  and  C3_3
REMARK    3  A    between atoms: C3_3  and  N1_4
REMARK    4  A    between atoms: C3_3  and  C12_16
REMARK    5  A    between atoms: N2_7  and  C5_8
REMARK    6  A    between atoms: C7_10  and  C8_11
REMARK                            x       y       z     vdW  Elec       q    Type
REMARK                         _______ _______ _______ _____ _____    ______ ____
ROOT
ATOM      1  N1  UNL     1       7.743   9.983  26.101  0.00  0.00    -0.292 N 
ATOM      2  C4  UNL     1       8.463   9.415  24.998  0.00  0.00    +0.304 C 
ATOM      3  O1  UNL     1       9.655   9.032  25.149  0.00  0.00    -0.252 OA
ATOM      4  N2  UNL     1       7.808   9.258  23.731  0.00  0.00    -0.267 N 
ATOM      5  H7  UNL     1       6.793  10.369  25.902  0.00  0.00    +0.151 HD
ATOM      6  H8  UNL     1       6.765   9.312  23.711  0.00  0.00    +0.156 HD
ENDROOT
BRANCH   4   7
ATOM      7  C5  UNL     1       8.487   8.844  22.535  0.00  0.00    +0.070 A 
ATOM      8  C6  UNL     1       9.163   9.801  21.763  0.00  0.00    +0.029 A 
ATOM      9  C7  UNL     1       9.840   9.428  20.592  0.00  0.00    -0.049 A 
ATOM     10  C8  UNL     1      10.579  10.455  19.786  0.00  0.00    +0.044 C 
ATOM     11  C9  UNL     1       9.876   8.077  20.218  0.00  0.00    +0.006 A 
ATOM     12  C10 UNL     1       9.229   7.114  20.996  0.00  0.00    +0.040 A 
ATOM     13  C11 UNL     1       8.539   7.490  22.152  0.00  0.00    +0.145 A 
ATOM     14  F1  UNL     1       7.974   6.527  22.923  0.00  0.00    -0.204 F 
ENDBRANCH   4   7
BRANCH   1  15
ATOM     15  C3  UNL     1       8.327  10.101  27.447  0.00  0.00    +0.105 C 
BRANCH  15  16
ATOM     16  C12 UNL     1       9.159  11.368  27.598  0.00  0.00    -0.023 A 
ATOM     17  C13 UNL     1       8.521  12.581  27.922  0.00  0.00    +0.009 A 
ATOM     18  C14 UNL     1       9.255  13.767  28.034  0.00  0.00    +0.050 A 
ATOM     19  C15 UNL     1      10.633  13.756  27.810  0.00  0.00    +0.162 A 
ATOM     20  C16 UNL     1      11.284  12.557  27.500  0.00  0.00    +0.162 A 
ATOM     21  C17 UNL     1      10.553  11.372  27.375  0.00  0.00    +0.055 A 
ATOM     22  O2  UNL     1      12.670  12.563  27.317  0.00  0.00    -0.485 OA
ATOM     23  C18 UNL     1      13.461  13.690  27.707  0.00  0.00    +0.270 C 
ATOM     24  C19 UNL     1      12.719  14.994  27.389  0.00  0.00    +0.270 C 
ATOM     25  O3  UNL     1      11.380  14.936  27.885  0.00  0.00    -0.485 OA
ENDBRANCH  15  16
BRANCH  15  27
ATOM     26  C1  UNL     1       7.748   9.365  29.855  0.00  0.00    +0.006 C 
ATOM     27  C2  UNL     1       7.249   9.986  28.549  0.00  0.00    +0.024 C 
ENDBRANCH  15  27
ENDBRANCH   1  15
TORSDOF 4
ENDMDL
MODEL 9
REMARK VINA RESULT:    -6.112      9.674     12.912
REMARK INTER + INTRA:          -8.314
REMARK INTER:                  -7.531
REMARK INTRA:                  -0.783
REMARK UNBOUND:                -0.774
REMARK  Name = /home/qwerty/github/datacon2025hack/step_04_hit_selection/docking/ligands/lig_403.pdb
REMARK  6 active torsions:
REMARK  status: ('A' for Active; 'I' for Inactive)
REMARK    1  A    between atoms: C1_1  and  C2_2
REMARK    2  A    between atoms: C2_2  and  C3_3
REMARK    3  A    between atoms: C3_3  and  N1_4
REMARK    4  A    between atoms: C3_3  and  C12_16
REMARK    5  A    between atoms: N2_7  and  C5_8
REMARK    6  A    between atoms: C7_10  and  C8_11
REMARK                            x       y       z     vdW  Elec       q    Type
REMARK                         _______ _______ _______ _____ _____    ______ ____
ROOT
ATOM      1  N1  UNL     1      11.425  14.029  33.741  0.00  0.00    -0.292 N 
ATOM      2  C4  UNL     1      11.501  13.593  32.376  0.00  0.00    +0.304 C 
ATOM      3  O1  UNL     1      11.731  12.382  32.109  0.00  0.00    -0.252 OA
ATOM      4  N2  UNL     1      11.286  14.538  31.319  0.00  0.00    -0.267 N 
ATOM      5  H7  UNL     1      11.327  15.055  33.908  0.00  0.00    +0.151 HD
ATOM      6  H8  UNL     1      10.824  15.444  31.560  0.00  0.00    +0.156 HD
ENDROOT
BRANCH   4   7
ATOM      7  C5  UNL     1      11.490  14.233  29.930  0.00  0.00    +0.070 A 
ATOM      8  C6  UNL     1      12.753  14.454  29.358  0.00  0.00    +0.029 A 
ATOM      9  C7  UNL     1      12.986  14.161  28.005  0.00  0.00    -0.049 A 
ATOM     10  C8  UNL     1      14.346  14.379  27.409  0.00  0.00    +0.044 C 
ATOM     11  C9  UNL     1      11.958  13.600  27.234  0.00  0.00    +0.006 A 
ATOM     12  C10 UNL     1      10.707  13.352  27.803  0.00  0.00    +0.040 A 
ATOM     13  C11 UNL     1      10.470  13.661  29.146  0.00  0.00    +0.145 A 
ATOM     14  F1  UNL     1       9.267  13.351  29.690  0.00  0.00    -0.204 F 
ENDBRANCH   4   7
BRANCH   1  15
ATOM     15  C3  UNL     1      11.558  13.099  34.874  0.00  0.00    +0.105 C 
BRANCH  15  16
ATOM     16  C12 UNL     1      12.983  13.055  35.411  0.00  0.00    -0.023 A 
ATOM     17  C13 UNL     1      13.522  14.195  36.039  0.00  0.00    +0.009 A 
ATOM     18  C14 UNL     1      14.839  14.196  36.511  0.00  0.00    +0.050 A 
ATOM     19  C15 UNL     1      15.636  13.062  36.349  0.00  0.00    +0.162 A 
ATOM     20  C16 UNL     1      15.112  11.916  35.739  0.00  0.00    +0.162 A 
ATOM     21  C17 UNL     1      13.801  11.916  35.255  0.00  0.00    +0.055 A 
ATOM     22  O2  UNL     1      15.917  10.779  35.622  0.00  0.00    -0.485 OA
ATOM     23  C18 UNL     1      17.146  10.667  36.347  0.00  0.00    +0.270 C 
ATOM     24  C19 UNL     1      17.867  12.020  36.382  0.00  0.00    +0.270 C 
ATOM     25  O3  UNL     1      16.965  13.052  36.786  0.00  0.00    -0.485 OA
ENDBRANCH  15  16
BRANCH  15  27
ATOM     26  C1  UNL     1       9.562  14.540  35.657  0.00  0.00    +0.006 C 
ATOM     27  C2  UNL     1      10.533  13.406  35.989  0.00  0.00    +0.024 C 
ENDBRANCH  15  27
ENDBRANCH   1  15
TORSDOF 4
ENDMDL
