MODEL 1
REMARK VINA RESULT:    -7.138      0.000      0.000
REMARK INTER + INTRA:         -10.147
REMARK INTER:                  -9.225
REMARK INTRA:                  -0.922
REMARK UNBOUND:                -0.922
REMARK  Name = /home/qwerty/github/datacon2025hack/step_04_hit_selection/docking/ligands/lig_572.pdb
REMARK  7 active torsions:
REMARK  status: ('A' for Active; 'I' for Inactive)
REMARK    1  A    between atoms: C1_1  and  C2_2
REMARK    2  A    between atoms: C2_2  and  C3_3
REMARK    3  A    between atoms: C2_2  and  C4_4
REMARK    4  A    between atoms: C6_6  and  N1_7
REMARK    5  A    between atoms: C7_8  and  C8_10
REMARK    6  A    between atoms: C15_20  and  C16_21
REMARK    7  A    between atoms: N3_24  and  C19_25
REMARK                            x       y       z     vdW  Elec       q    Type
REMARK                         _______ _______ _______ _____ _____    ______ ____
ROOT
ATOM      1  N1  UNL     1      21.305   2.501  27.303  0.00  0.00    -0.262 N 
ATOM      2  C7  UNL     1      20.184   1.781  26.773  0.00  0.00    +0.304 C 
ATOM      3  O1  UNL     1      19.451   1.103  27.541  0.00  0.00    -0.265 OA
ATOM      4  H9  UNL     1      22.101   2.735  26.666  0.00  0.00    +0.157 HD
ENDROOT
BRANCH   2   5
ATOM      5  C8  UNL     1      19.879   1.835  25.334  0.00  0.00    +0.302 C 
ATOM      6  O2  UNL     1      20.690   2.384  24.543  0.00  0.00    -0.265 OA
ATOM      7  N2  UNL     1      18.668   1.268  24.823  0.00  0.00    -0.289 N 
ATOM      8  C9  UNL     1      17.771   0.168  25.233  0.00  0.00    +0.117 C 
ATOM      9  C10 UNL     1      17.021   0.064  23.936  0.00  0.00    +0.010 C 
ATOM     10  C11 UNL     1      17.302  -1.227  23.146  0.00  0.00    +0.038 C 
ATOM     11  C12 UNL     1      16.504  -1.238  21.821  0.00  0.00    +0.160 C 
ATOM     12  O3  UNL     1      15.672  -0.097  21.668  0.00  0.00    -0.380 OA
ATOM     13  C13 UNL     1      14.769  -0.001  22.755  0.00  0.00    +0.160 C 
ATOM     14  C14 UNL     1      15.498   0.299  24.082  0.00  0.00    +0.038 C 
ATOM     15  C15 UNL     1      17.919   1.229  23.542  0.00  0.00    +0.087 C 
BRANCH  15  16
ATOM     16  C16 UNL     1      17.158   2.539  23.191  0.00  0.00    +0.010 C 
ATOM     17  C17 UNL     1      17.139   2.909  21.716  0.00  0.00    +0.006 C 
ATOM     18  C18 UNL     1      17.941   3.750  22.696  0.00  0.00    +0.006 C 
ENDBRANCH  15  16
ENDBRANCH   2   5
BRANCH   1  21
ATOM     19  C4  UNL     1      21.383   3.730  30.651  0.00  0.00    +0.068 A 
ATOM     20  C5  UNL     1      20.884   3.832  29.361  0.00  0.00    +0.069 A 
ATOM     21  C6  UNL     1      21.464   2.773  28.701  0.00  0.00    +0.129 A 
ATOM     22  N3  UNL     1      22.242   2.074  29.560  0.00  0.00    -0.218 N 
ATOM     23  N4  UNL     1      22.199   2.661  30.748  0.00  0.00    -0.169 NA
BRANCH  22  24
ATOM     24  C19 UNL     1      22.945   0.843  29.323  0.00  0.00    +0.067 A 
ATOM     25  C20 UNL     1      22.227  -0.330  29.038  0.00  0.00    +0.028 A 
ATOM     26  C21 UNL     1      22.901  -1.533  28.805  0.00  0.00    +0.002 A 
ATOM     27  C22 UNL     1      24.297  -1.571  28.841  0.00  0.00    +0.000 A 
ATOM     28  C23 UNL     1      25.021  -0.402  29.093  0.00  0.00    +0.002 A 
ATOM     29  C24 UNL     1      24.351   0.801  29.328  0.00  0.00    +0.028 A 
ENDBRANCH  22  24
BRANCH  19  31
ATOM     30  C1  UNL     1      21.288   3.945  33.136  0.00  0.00    +0.014 C 
ATOM     31  C2  UNL     1      21.094   4.662  31.797  0.00  0.00    +0.033 C 
ATOM     32  C3  UNL     1      21.971   5.915  31.711  0.00  0.00    +0.014 C 
ENDBRANCH  19  31
ENDBRANCH   1  21
TORSDOF 5
ENDMDL
MODEL 2
REMARK VINA RESULT:    -7.123      3.259      9.547
REMARK INTER + INTRA:         -10.127
REMARK INTER:                  -9.136
REMARK INTRA:                  -0.991
REMARK UNBOUND:                -0.922
REMARK  Name = /home/qwerty/github/datacon2025hack/step_04_hit_selection/docking/ligands/lig_572.pdb
REMARK  7 active torsions:
REMARK  status: ('A' for Active; 'I' for Inactive)
REMARK    1  A    between atoms: C1_1  and  C2_2
REMARK    2  A    between atoms: C2_2  and  C3_3
REMARK    3  A    between atoms: C2_2  and  C4_4
REMARK    4  A    between atoms: C6_6  and  N1_7
REMARK    5  A    between atoms: C7_8  and  C8_10
REMARK    6  A    between atoms: C15_20  and  C16_21
REMARK    7  A    between atoms: N3_24  and  C19_25
REMARK                            x       y       z     vdW  Elec       q    Type
REMARK                         _______ _______ _______ _____ _____    ______ ____
ROOT
ATOM      1  N1  UNL     1      20.448   1.663  30.623  0.00  0.00    -0.262 N 
ATOM      2  C7  UNL     1      20.949   2.901  31.145  0.00  0.00    +0.304 C 
ATOM      3  O1  UNL     1      21.526   3.719  30.380  0.00  0.00    -0.265 OA
ATOM      4  H9  UNL     1      20.324   0.855  31.274  0.00  0.00    +0.157 HD
ENDROOT
BRANCH   2   5
ATOM      5  C8  UNL     1      20.787   3.226  32.572  0.00  0.00    +0.302 C 
ATOM      6  O2  UNL     1      20.233   2.400  33.342  0.00  0.00    -0.265 OA
ATOM      7  N2  UNL     1      21.256   4.474  33.093  0.00  0.00    -0.289 N 
ATOM      8  C9  UNL     1      22.331   5.422  32.735  0.00  0.00    +0.117 C 
ATOM      9  C10 UNL     1      22.312   6.198  34.022  0.00  0.00    +0.010 C 
ATOM     10  C11 UNL     1      23.563   6.000  34.897  0.00  0.00    +0.038 C 
ATOM     11  C12 UNL     1      23.447   6.819  36.204  0.00  0.00    +0.160 C 
ATOM     12  O3  UNL     1      22.256   7.590  36.268  0.00  0.00    -0.380 OA
ATOM     13  C13 UNL     1      22.183   8.469  35.159  0.00  0.00    +0.160 C 
ATOM     14  C14 UNL     1      22.007   7.703  33.831  0.00  0.00    +0.038 C 
ATOM     15  C15 UNL     1      21.174   5.245  34.359  0.00  0.00    +0.087 C 
BRANCH  15  16
ATOM     16  C16 UNL     1      19.805   5.940  34.612  0.00  0.00    +0.010 C 
ATOM     17  C17 UNL     1      19.334   5.950  36.058  0.00  0.00    +0.006 C 
ATOM     18  C18 UNL     1      18.604   5.099  35.031  0.00  0.00    +0.006 C 
ENDBRANCH  15  16
ENDBRANCH   2   5
BRANCH   1  21
ATOM     19  C4  UNL     1      19.386   1.306  27.236  0.00  0.00    +0.068 A 
ATOM     20  C5  UNL     1      19.152   1.812  28.506  0.00  0.00    +0.069 A 
ATOM     21  C6  UNL     1      20.263   1.428  29.222  0.00  0.00    +0.129 A 
ATOM     22  N3  UNL     1      21.113   0.754  28.413  0.00  0.00    -0.218 N 
ATOM     23  N4  UNL     1      20.575   0.672  27.204  0.00  0.00    -0.169 NA
BRANCH  22  24
ATOM     24  C19 UNL     1      22.431   0.266  28.715  0.00  0.00    +0.067 A 
ATOM     25  C20 UNL     1      22.684  -1.115  28.709  0.00  0.00    +0.028 A 
ATOM     26  C21 UNL     1      23.963  -1.601  29.000  0.00  0.00    +0.002 A 
ATOM     27  C22 UNL     1      25.001  -0.710  29.286  0.00  0.00    +0.000 A 
ATOM     28  C23 UNL     1      24.766   0.667  29.265  0.00  0.00    +0.002 A 
ATOM     29  C24 UNL     1      23.489   1.156  28.975  0.00  0.00    +0.028 A 
ENDBRANCH  22  24
BRANCH  19  31
ATOM     30  C1  UNL     1      19.209   1.045  24.760  0.00  0.00    +0.014 C 
ATOM     31  C2  UNL     1      18.467   1.411  26.049  0.00  0.00    +0.033 C 
ATOM     32  C3  UNL     1      17.230   0.529  26.241  0.00  0.00    +0.014 C 
ENDBRANCH  19  31
ENDBRANCH   1  21
TORSDOF 5
ENDMDL
MODEL 3
REMARK VINA RESULT:    -6.971      2.723      8.987
REMARK INTER + INTRA:          -9.930
REMARK INTER:                  -8.636
REMARK INTRA:                  -1.294
REMARK UNBOUND:                -0.922
REMARK  Name = /home/qwerty/github/datacon2025hack/step_04_hit_selection/docking/ligands/lig_572.pdb
REMARK  7 active torsions:
REMARK  status: ('A' for Active; 'I' for Inactive)
REMARK    1  A    between atoms: C1_1  and  C2_2
REMARK    2  A    between atoms: C2_2  and  C3_3
REMARK    3  A    between atoms: C2_2  and  C4_4
REMARK    4  A    between atoms: C6_6  and  N1_7
REMARK    5  A    between atoms: C7_8  and  C8_10
REMARK    6  A    between atoms: C15_20  and  C16_21
REMARK    7  A    between atoms: N3_24  and  C19_25
REMARK                            x       y       z     vdW  Elec       q    Type
REMARK                         _______ _______ _______ _____ _____    ______ ____
ROOT
ATOM      1  N1  UNL     1      17.610   1.212  25.070  0.00  0.00    -0.262 N 
ATOM      2  C7  UNL     1      18.802   0.585  25.561  0.00  0.00    +0.304 C 
ATOM      3  O1  UNL     1      19.128  -0.559  25.147  0.00  0.00    -0.265 OA
ATOM      4  H9  UNL     1      17.147   1.943  25.656  0.00  0.00    +0.157 HD
ENDROOT
BRANCH   2   5
ATOM      5  C8  UNL     1      19.655   1.276  26.542  0.00  0.00    +0.302 C 
ATOM      6  O2  UNL     1      20.703   1.858  26.160  0.00  0.00    -0.265 OA
ATOM      7  N2  UNL     1      19.303   1.294  27.930  0.00  0.00    -0.289 N 
ATOM      8  C9  UNL     1      18.038   1.229  28.691  0.00  0.00    +0.117 C 
ATOM      9  C10 UNL     1      18.602   1.694  30.003  0.00  0.00    +0.010 C 
ATOM     10  C11 UNL     1      18.123   3.092  30.436  0.00  0.00    +0.038 C 
ATOM     11  C12 UNL     1      18.768   3.493  31.783  0.00  0.00    +0.160 C 
ATOM     12  O3  UNL     1      19.598   2.476  32.323  0.00  0.00    -0.380 OA
ATOM     13  C13 UNL     1      18.857   1.282  32.500  0.00  0.00    +0.160 C 
ATOM     14  C14 UNL     1      18.424   0.671  31.150  0.00  0.00    +0.038 C 
ATOM     15  C15 UNL     1      19.908   1.712  29.219  0.00  0.00    +0.087 C 
BRANCH  15  16
ATOM     16  C16 UNL     1      21.003   0.753  29.767  0.00  0.00    +0.010 C 
ATOM     17  C17 UNL     1      22.231   1.430  30.354  0.00  0.00    +0.006 C 
ATOM     18  C18 UNL     1      22.344   0.658  29.049  0.00  0.00    +0.006 C 
ENDBRANCH  15  16
ENDBRANCH   2   5
BRANCH   1  21
ATOM     19  C4  UNL     1      16.301   0.527  21.823  0.00  0.00    +0.068 A 
ATOM     20  C5  UNL     1      17.281   1.116  22.607  0.00  0.00    +0.069 A 
ATOM     21  C6  UNL     1      16.927   0.768  23.891  0.00  0.00    +0.129 A 
ATOM     22  N3  UNL     1      15.816  -0.003  23.861  0.00  0.00    -0.218 N 
ATOM     23  N4  UNL     1      15.427  -0.144  22.602  0.00  0.00    -0.169 NA
BRANCH  22  24
ATOM     24  C19 UNL     1      15.166  -0.669  24.957  0.00  0.00    +0.067 A 
ATOM     25  C20 UNL     1      14.568   0.086  25.980  0.00  0.00    +0.028 A 
ATOM     26  C21 UNL     1      13.932  -0.552  27.049  0.00  0.00    +0.002 A 
ATOM     27  C22 UNL     1      13.876  -1.948  27.099  0.00  0.00    +0.000 A 
ATOM     28  C23 UNL     1      14.440  -2.706  26.070  0.00  0.00    +0.002 A 
ATOM     29  C24 UNL     1      15.077  -2.072  25.000  0.00  0.00    +0.028 A 
ENDBRANCH  22  24
BRANCH  19  31
ATOM     30  C1  UNL     1      16.585  -0.715  19.677  0.00  0.00    +0.014 C 
ATOM     31  C2  UNL     1      16.182   0.613  20.325  0.00  0.00    +0.033 C 
ATOM     32  C3  UNL     1      14.764   1.017  19.915  0.00  0.00    +0.014 C 
ENDBRANCH  19  31
ENDBRANCH   1  21
TORSDOF 5
ENDMDL
MODEL 4
REMARK VINA RESULT:    -6.885     13.843     16.746
REMARK INTER + INTRA:          -9.819
REMARK INTER:                  -8.120
REMARK INTRA:                  -1.698
REMARK UNBOUND:                -0.922
REMARK  Name = /home/qwerty/github/datacon2025hack/step_04_hit_selection/docking/ligands/lig_572.pdb
REMARK  7 active torsions:
REMARK  status: ('A' for Active; 'I' for Inactive)
REMARK    1  A    between atoms: C1_1  and  C2_2
REMARK    2  A    between atoms: C2_2  and  C3_3
REMARK    3  A    between atoms: C2_2  and  C4_4
REMARK    4  A    between atoms: C6_6  and  N1_7
REMARK    5  A    between atoms: C7_8  and  C8_10
REMARK    6  A    between atoms: C15_20  and  C16_21
REMARK    7  A    between atoms: N3_24  and  C19_25
REMARK                            x       y       z     vdW  Elec       q    Type
REMARK                         _______ _______ _______ _____ _____    ______ ____
ROOT
ATOM      1  N1  UNL     1      11.264  13.919  31.978  0.00  0.00    -0.262 N 
ATOM      2  C7  UNL     1      11.549  12.876  32.919  0.00  0.00    +0.304 C 
ATOM      3  O1  UNL     1      11.273  11.680  32.636  0.00  0.00    -0.265 OA
ATOM      4  H9  UNL     1      11.134  14.894  32.330  0.00  0.00    +0.157 HD
ENDROOT
BRANCH   2   5
ATOM      5  C8  UNL     1      12.170  13.193  34.216  0.00  0.00    +0.302 C 
ATOM      6  O2  UNL     1      11.474  13.697  35.136  0.00  0.00    -0.265 OA
ATOM      7  N2  UNL     1      13.559  12.933  34.442  0.00  0.00    -0.289 N 
ATOM      8  C9  UNL     1      14.543  11.964  33.918  0.00  0.00    +0.117 C 
ATOM      9  C10 UNL     1      15.586  12.186  34.976  0.00  0.00    +0.010 C 
ATOM     10  C11 UNL     1      15.780  10.995  35.932  0.00  0.00    +0.038 C 
ATOM     11  C12 UNL     1      16.855  11.322  36.995  0.00  0.00    +0.160 C 
ATOM     12  O3  UNL     1      17.439  12.603  36.814  0.00  0.00    -0.380 OA
ATOM     13  C13 UNL     1      18.016  12.699  35.524  0.00  0.00    +0.160 C 
ATOM     14  C14 UNL     1      16.945  12.667  34.413  0.00  0.00    +0.038 C 
ATOM     15  C15 UNL     1      14.583  13.216  35.479  0.00  0.00    +0.087 C 
BRANCH  15  16
ATOM     16  C16 UNL     1      15.112  14.679  35.491  0.00  0.00    +0.010 C 
ATOM     17  C17 UNL     1      15.372  15.270  36.867  0.00  0.00    +0.006 C 
ATOM     18  C18 UNL     1      14.220  15.794  36.024  0.00  0.00    +0.006 C 
ENDBRANCH  15  16
ENDBRANCH   2   5
BRANCH   1  21
ATOM     19  C4  UNL     1       9.960  13.190  28.738  0.00  0.00    +0.068 A 
ATOM     20  C5  UNL     1       9.725  13.483  30.073  0.00  0.00    +0.069 A 
ATOM     21  C6  UNL     1      10.986  13.664  30.596  0.00  0.00    +0.129 A 
ATOM     22  N3  UNL     1      11.908  13.509  29.618  0.00  0.00    -0.218 N 
ATOM     23  N4  UNL     1      11.285  13.212  28.486  0.00  0.00    -0.169 NA
BRANCH  22  24
ATOM     24  C19 UNL     1      13.329  13.712  29.695  0.00  0.00    +0.067 A 
ATOM     25  C20 UNL     1      13.890  14.918  29.242  0.00  0.00    +0.028 A 
ATOM     26  C21 UNL     1      15.271  15.126  29.314  0.00  0.00    +0.002 A 
ATOM     27  C22 UNL     1      16.101  14.139  29.851  0.00  0.00    +0.000 A 
ATOM     28  C23 UNL     1      15.549  12.948  30.332  0.00  0.00    +0.002 A 
ATOM     29  C24 UNL     1      14.169  12.736  30.261  0.00  0.00    +0.028 A 
ENDBRANCH  22  24
BRANCH  19  31
ATOM     30  C1  UNL     1       8.246  11.530  28.004  0.00  0.00    +0.014 C 
ATOM     31  C2  UNL     1       8.921  12.871  27.698  0.00  0.00    +0.033 C 
ATOM     32  C3  UNL     1       7.888  13.996  27.599  0.00  0.00    +0.014 C 
ENDBRANCH  19  31
ENDBRANCH   1  21
TORSDOF 5
ENDMDL
MODEL 5
REMARK VINA RESULT:    -6.845      2.136      4.798
REMARK INTER + INTRA:          -9.768
REMARK INTER:                  -7.909
REMARK INTRA:                  -1.859
REMARK UNBOUND:                -0.922
REMARK  Name = /home/qwerty/github/datacon2025hack/step_04_hit_selection/docking/ligands/lig_572.pdb
REMARK  7 active torsions:
REMARK  status: ('A' for Active; 'I' for Inactive)
REMARK    1  A    between atoms: C1_1  and  C2_2
REMARK    2  A    between atoms: C2_2  and  C3_3
REMARK    3  A    between atoms: C2_2  and  C4_4
REMARK    4  A    between atoms: C6_6  and  N1_7
REMARK    5  A    between atoms: C7_8  and  C8_10
REMARK    6  A    between atoms: C15_20  and  C16_21
REMARK    7  A    between atoms: N3_24  and  C19_25
REMARK                            x       y       z     vdW  Elec       q    Type
REMARK                         _______ _______ _______ _____ _____    ______ ____
ROOT
ATOM      1  N1  UNL     1      19.673   0.465  25.894  0.00  0.00    -0.262 N 
ATOM      2  C7  UNL     1      18.266   0.607  26.131  0.00  0.00    +0.304 C 
ATOM      3  O1  UNL     1      17.858   1.156  27.190  0.00  0.00    -0.265 OA
ATOM      4  H9  UNL     1      20.002  -0.289  25.249  0.00  0.00    +0.157 HD
ENDROOT
BRANCH   2   5
ATOM      5  C8  UNL     1      17.292   0.122  25.139  0.00  0.00    +0.302 C 
ATOM      6  O2  UNL     1      16.736  -0.995  25.304  0.00  0.00    -0.265 OA
ATOM      7  N2  UNL     1      16.969   0.909  23.988  0.00  0.00    -0.289 N 
ATOM      8  C9  UNL     1      16.953   2.353  23.677  0.00  0.00    +0.117 C 
ATOM      9  C10 UNL     1      16.141   2.250  22.418  0.00  0.00    +0.010 C 
ATOM     10  C11 UNL     1      14.724   2.842  22.529  0.00  0.00    +0.038 C 
ATOM     11  C12 UNL     1      13.958   2.673  21.196  0.00  0.00    +0.160 C 
ATOM     12  O3  UNL     1      14.745   2.067  20.181  0.00  0.00    -0.380 OA
ATOM     13  C13 UNL     1      15.917   2.828  19.951  0.00  0.00    +0.160 C 
ATOM     14  C14 UNL     1      16.868   2.796  21.166  0.00  0.00    +0.038 C 
ATOM     15  C15 UNL     1      16.205   0.759  22.725  0.00  0.00    +0.087 C 
BRANCH  15  16
ATOM     16  C16 UNL     1      16.912  -0.094  21.632  0.00  0.00    +0.010 C 
ATOM     17  C17 UNL     1      16.015  -1.057  20.871  0.00  0.00    +0.006 C 
ATOM     18  C18 UNL     1      17.059  -1.597  21.835  0.00  0.00    +0.006 C 
ENDBRANCH  15  16
ENDBRANCH   2   5
BRANCH   1  21
ATOM     19  C4  UNL     1      22.151   1.768  28.105  0.00  0.00    +0.068 A 
ATOM     20  C5  UNL     1      21.402   0.686  27.669  0.00  0.00    +0.069 A 
ATOM     21  C6  UNL     1      20.663   1.198  26.626  0.00  0.00    +0.129 A 
ATOM     22  N3  UNL     1      20.978   2.501  26.445  0.00  0.00    -0.218 N 
ATOM     23  N4  UNL     1      21.880   2.852  27.351  0.00  0.00    -0.169 NA
BRANCH  22  24
ATOM     24  C19 UNL     1      20.527   3.390  25.409  0.00  0.00    +0.067 A 
ATOM     25  C20 UNL     1      20.920   3.171  24.079  0.00  0.00    +0.028 A 
ATOM     26  C21 UNL     1      20.486   4.028  23.063  0.00  0.00    +0.002 A 
ATOM     27  C22 UNL     1      19.644   5.102  23.365  0.00  0.00    +0.000 A 
ATOM     28  C23 UNL     1      19.222   5.309  24.681  0.00  0.00    +0.002 A 
ATOM     29  C24 UNL     1      19.655   4.455  25.699  0.00  0.00    +0.028 A 
ENDBRANCH  22  24
BRANCH  19  31
ATOM     30  C1  UNL     1      22.372   1.745  30.592  0.00  0.00    +0.014 C 
ATOM     31  C2  UNL     1      23.121   1.777  29.255  0.00  0.00    +0.033 C 
ATOM     32  C3  UNL     1      24.102   0.606  29.147  0.00  0.00    +0.014 C 
ENDBRANCH  19  31
ENDBRANCH   1  21
TORSDOF 5
ENDMDL
MODEL 6
REMARK VINA RESULT:    -6.839      3.927      6.525
REMARK INTER + INTRA:          -9.759
REMARK INTER:                  -8.483
REMARK INTRA:                  -1.276
REMARK UNBOUND:                -0.922
REMARK  Name = /home/qwerty/github/datacon2025hack/step_04_hit_selection/docking/ligands/lig_572.pdb
REMARK  7 active torsions:
REMARK  status: ('A' for Active; 'I' for Inactive)
REMARK    1  A    between atoms: C1_1  and  C2_2
REMARK    2  A    between atoms: C2_2  and  C3_3
REMARK    3  A    between atoms: C2_2  and  C4_4
REMARK    4  A    between atoms: C6_6  and  N1_7
REMARK    5  A    between atoms: C7_8  and  C8_10
REMARK    6  A    between atoms: C15_20  and  C16_21
REMARK    7  A    between atoms: N3_24  and  C19_25
REMARK                            x       y       z     vdW  Elec       q    Type
REMARK                         _______ _______ _______ _____ _____    ______ ____
ROOT
ATOM      1  N1  UNL     1      19.987   3.811  22.909  0.00  0.00    -0.262 N 
ATOM      2  C7  UNL     1      18.632   4.086  23.287  0.00  0.00    +0.304 C 
ATOM      3  O1  UNL     1      18.358   5.137  23.925  0.00  0.00    -0.265 OA
ATOM      4  H9  UNL     1      20.271   2.820  22.734  0.00  0.00    +0.157 HD
ENDROOT
BRANCH   2   5
ATOM      5  C8  UNL     1      17.555   3.149  22.927  0.00  0.00    +0.302 C 
ATOM      6  O2  UNL     1      17.593   1.962  23.345  0.00  0.00    -0.265 OA
ATOM      7  N2  UNL     1      16.461   3.574  22.107  0.00  0.00    -0.289 N 
ATOM      8  C9  UNL     1      15.776   4.859  21.858  0.00  0.00    +0.117 C 
ATOM      9  C10 UNL     1      14.563   4.281  21.187  0.00  0.00    +0.010 C 
ATOM     10  C11 UNL     1      13.267   4.407  22.010  0.00  0.00    +0.038 C 
ATOM     11  C12 UNL     1      12.079   3.769  21.252  0.00  0.00    +0.160 C 
ATOM     12  O3  UNL     1      12.444   3.271  19.973  0.00  0.00    -0.380 OA
ATOM     13  C13 UNL     1      12.997   4.308  19.183  0.00  0.00    +0.160 C 
ATOM     14  C14 UNL     1      14.350   4.795  19.743  0.00  0.00    +0.038 C 
ATOM     15  C15 UNL     1      15.301   2.968  21.408  0.00  0.00    +0.087 C 
BRANCH  15  16
ATOM     16  C16 UNL     1      15.655   2.199  20.103  0.00  0.00    +0.010 C 
ATOM     17  C17 UNL     1      14.867   0.921  19.862  0.00  0.00    +0.006 C 
ATOM     18  C18 UNL     1      16.349   0.845  20.195  0.00  0.00    +0.006 C 
ENDBRANCH  15  16
ENDBRANCH   2   5
BRANCH   1  21
ATOM     19  C4  UNL     1      22.411   6.355  22.297  0.00  0.00    +0.068 A 
ATOM     20  C5  UNL     1      21.317   5.628  21.854  0.00  0.00    +0.069 A 
ATOM     21  C6  UNL     1      21.015   4.809  22.918  0.00  0.00    +0.129 A 
ATOM     22  N3  UNL     1      21.869   5.057  23.938  0.00  0.00    -0.218 N 
ATOM     23  N4  UNL     1      22.726   5.994  23.558  0.00  0.00    -0.169 NA
BRANCH  22  24
ATOM     24  C19 UNL     1      21.851   4.509  25.267  0.00  0.00    +0.067 A 
ATOM     25  C20 UNL     1      21.093   5.132  26.271  0.00  0.00    +0.028 A 
ATOM     26  C21 UNL     1      21.067   4.607  27.567  0.00  0.00    +0.002 A 
ATOM     27  C22 UNL     1      21.787   3.447  27.866  0.00  0.00    +0.000 A 
ATOM     28  C23 UNL     1      22.520   2.802  26.865  0.00  0.00    +0.002 A 
ATOM     29  C24 UNL     1      22.548   3.325  25.570  0.00  0.00    +0.028 A 
ENDBRANCH  22  24
BRANCH  19  31
ATOM     30  C1  UNL     1      23.987   6.727  20.397  0.00  0.00    +0.014 C 
ATOM     31  C2  UNL     1      23.174   7.389  21.514  0.00  0.00    +0.033 C 
ATOM     32  C3  UNL     1      22.225   8.450  20.948  0.00  0.00    +0.014 C 
ENDBRANCH  19  31
ENDBRANCH   1  21
TORSDOF 5
ENDMDL
MODEL 7
REMARK VINA RESULT:    -6.802      7.740     11.316
REMARK INTER + INTRA:          -9.712
REMARK INTER:                  -8.273
REMARK INTRA:                  -1.439
REMARK UNBOUND:                -0.922
REMARK  Name = /home/qwerty/github/datacon2025hack/step_04_hit_selection/docking/ligands/lig_572.pdb
REMARK  7 active torsions:
REMARK  status: ('A' for Active; 'I' for Inactive)
REMARK    1  A    between atoms: C1_1  and  C2_2
REMARK    2  A    between atoms: C2_2  and  C3_3
REMARK    3  A    between atoms: C2_2  and  C4_4
REMARK    4  A    between atoms: C6_6  and  N1_7
REMARK    5  A    between atoms: C7_8  and  C8_10
REMARK    6  A    between atoms: C15_20  and  C16_21
REMARK    7  A    between atoms: N3_24  and  C19_25
REMARK                            x       y       z     vdW  Elec       q    Type
REMARK                         _______ _______ _______ _____ _____    ______ ____
ROOT
ATOM      1  N1  UNL     1      13.743   3.397  21.909  0.00  0.00    -0.262 N 
ATOM      2  C7  UNL     1      12.691   3.870  21.057  0.00  0.00    +0.304 C 
ATOM      3  O1  UNL     1      12.775   3.715  19.809  0.00  0.00    -0.265 OA
ATOM      4  H9  UNL     1      13.865   3.837  22.850  0.00  0.00    +0.157 HD
ENDROOT
BRANCH   2   5
ATOM      5  C8  UNL     1      11.507   4.529  21.632  0.00  0.00    +0.302 C 
ATOM      6  O2  UNL     1      10.715   3.871  22.354  0.00  0.00    -0.265 OA
ATOM      7  N2  UNL     1      11.249   5.914  21.379  0.00  0.00    -0.289 N 
ATOM      8  C9  UNL     1      12.081   7.098  21.080  0.00  0.00    +0.117 C 
ATOM      9  C10 UNL     1      11.021   8.128  21.352  0.00  0.00    +0.010 C 
ATOM     10  C11 UNL     1      11.277   8.979  22.610  0.00  0.00    +0.038 C 
ATOM     11  C12 UNL     1      10.129   9.994  22.821  0.00  0.00    +0.160 C 
ATOM     12  O3  UNL     1       9.149   9.940  21.795  0.00  0.00    -0.380 OA
ATOM     13  C13 UNL     1       9.749  10.171  20.533  0.00  0.00    +0.160 C 
ATOM     14  C14 UNL     1      10.705   9.027  20.134  0.00  0.00    +0.038 C 
ATOM     15  C15 UNL     1      10.162   6.897  21.613  0.00  0.00    +0.087 C 
BRANCH  15  16
ATOM     16  C16 UNL     1       8.937   6.754  20.664  0.00  0.00    +0.010 C 
ATOM     17  C17 UNL     1       7.581   7.009  21.302  0.00  0.00    +0.006 C 
ATOM     18  C18 UNL     1       7.961   5.602  20.870  0.00  0.00    +0.006 C 
ENDBRANCH  15  16
ENDBRANCH   2   5
BRANCH   1  21
ATOM     19  C4  UNL     1      15.821   0.623  21.067  0.00  0.00    +0.068 A 
ATOM     20  C5  UNL     1      14.591   1.096  21.500  0.00  0.00    +0.069 A 
ATOM     21  C6  UNL     1      14.738   2.464  21.472  0.00  0.00    +0.129 A 
ATOM     22  N3  UNL     1      15.976   2.778  21.026  0.00  0.00    -0.218 N 
ATOM     23  N4  UNL     1      16.641   1.656  20.785  0.00  0.00    -0.169 NA
BRANCH  22  24
ATOM     24  C19 UNL     1      16.516   4.080  20.742  0.00  0.00    +0.067 A 
ATOM     25  C20 UNL     1      17.440   4.662  21.627  0.00  0.00    +0.028 A 
ATOM     26  C21 UNL     1      17.972   5.927  21.360  0.00  0.00    +0.002 A 
ATOM     27  C22 UNL     1      17.599   6.614  20.202  0.00  0.00    +0.000 A 
ATOM     28  C23 UNL     1      16.705   6.029  19.301  0.00  0.00    +0.002 A 
ATOM     29  C24 UNL     1      16.170   4.765  19.564  0.00  0.00    +0.028 A 
ENDBRANCH  22  24
BRANCH  19  31
ATOM     30  C1  UNL     1      16.916  -1.063  19.586  0.00  0.00    +0.014 C 
ATOM     31  C2  UNL     1      16.226  -0.820  20.933  0.00  0.00    +0.033 C 
ATOM     32  C3  UNL     1      17.129  -1.241  22.096  0.00  0.00    +0.014 C 
ENDBRANCH  19  31
ENDBRANCH   1  21
TORSDOF 5
ENDMDL
MODEL 8
REMARK VINA RESULT:    -6.753     11.769     13.538
REMARK INTER + INTRA:          -9.649
REMARK INTER:                  -7.976
REMARK INTRA:                  -1.674
REMARK UNBOUND:                -0.922
REMARK  Name = /home/qwerty/github/datacon2025hack/step_04_hit_selection/docking/ligands/lig_572.pdb
REMARK  7 active torsions:
REMARK  status: ('A' for Active; 'I' for Inactive)
REMARK    1  A    between atoms: C1_1  and  C2_2
REMARK    2  A    between atoms: C2_2  and  C3_3
REMARK    3  A    between atoms: C2_2  and  C4_4
REMARK    4  A    between atoms: C6_6  and  N1_7
REMARK    5  A    between atoms: C7_8  and  C8_10
REMARK    6  A    between atoms: C15_20  and  C16_21
REMARK    7  A    between atoms: N3_24  and  C19_25
REMARK                            x       y       z     vdW  Elec       q    Type
REMARK                         _______ _______ _______ _____ _____    ______ ____
ROOT
ATOM      1  N1  UNL     1       8.109  10.064  25.215  0.00  0.00    -0.262 N 
ATOM      2  C7  UNL     1       9.211   9.823  24.331  0.00  0.00    +0.304 C 
ATOM      3  O1  UNL     1      10.367  10.216  24.644  0.00  0.00    -0.265 OA
ATOM      4  H9  UNL     1       7.142  10.090  24.819  0.00  0.00    +0.157 HD
ENDROOT
BRANCH   2   5
ATOM      5  C8  UNL     1       9.003   9.110  23.060  0.00  0.00    +0.302 C 
ATOM      6  O2  UNL     1       8.539   9.727  22.066  0.00  0.00    -0.265 OA
ATOM      7  N2  UNL     1       9.325   7.720  22.942  0.00  0.00    -0.289 N 
ATOM      8  C9  UNL     1      10.290   6.809  23.591  0.00  0.00    +0.117 C 
ATOM      9  C10 UNL     1      10.175   5.694  22.591  0.00  0.00    +0.010 C 
ATOM     10  C11 UNL     1      11.434   5.486  21.729  0.00  0.00    +0.038 C 
ATOM     11  C12 UNL     1      11.217   4.335  20.719  0.00  0.00    +0.160 C 
ATOM     12  O3  UNL     1       9.947   3.715  20.854  0.00  0.00    -0.380 OA
ATOM     13  C13 UNL     1       9.784   3.216  22.170  0.00  0.00    +0.160 C 
ATOM     14  C14 UNL     1       9.705   4.355  23.208  0.00  0.00    +0.038 C 
ATOM     15  C15 UNL     1       9.148   6.623  21.958  0.00  0.00    +0.087 C 
BRANCH  15  16
ATOM     16  C16 UNL     1       7.708   6.038  21.885  0.00  0.00    +0.010 C 
ATOM     17  C17 UNL     1       7.268   5.551  20.514  0.00  0.00    +0.006 C 
ATOM     18  C18 UNL     1       6.631   6.793  21.115  0.00  0.00    +0.006 C 
ENDBRANCH  15  16
ENDBRANCH   2   5
BRANCH   1  21
ATOM     19  C4  UNL     1       8.585  11.593  28.403  0.00  0.00    +0.068 A 
ATOM     20  C5  UNL     1       8.330  11.732  27.047  0.00  0.00    +0.069 A 
ATOM     21  C6  UNL     1       8.280  10.435  26.588  0.00  0.00    +0.129 A 
ATOM     22  N3  UNL     1       8.471   9.581  27.621  0.00  0.00    -0.218 N 
ATOM     23  N4  UNL     1       8.666  10.286  28.727  0.00  0.00    -0.169 NA
BRANCH  22  24
ATOM     24  C19 UNL     1       8.394   8.146  27.615  0.00  0.00    +0.067 A 
ATOM     25  C20 UNL     1       7.170   7.510  27.880  0.00  0.00    +0.028 A 
ATOM     26  C21 UNL     1       7.083   6.114  27.875  0.00  0.00    +0.002 A 
ATOM     27  C22 UNL     1       8.214   5.343  27.592  0.00  0.00    +0.000 A 
ATOM     28  C23 UNL     1       9.429   5.968  27.297  0.00  0.00    +0.002 A 
ATOM     29  C24 UNL     1       9.519   7.363  27.301  0.00  0.00    +0.028 A 
ENDBRANCH  22  24
BRANCH  19  31
ATOM     30  C1  UNL     1      10.025  13.522  29.064  0.00  0.00    +0.014 C 
ATOM     31  C2  UNL     1       8.770  12.709  29.396  0.00  0.00    +0.033 C 
ATOM     32  C3  UNL     1       7.529  13.605  29.442  0.00  0.00    +0.014 C 
ENDBRANCH  19  31
ENDBRANCH   1  21
TORSDOF 5
ENDMDL
MODEL 9
REMARK VINA RESULT:    -6.740      4.980     10.664
REMARK INTER + INTRA:          -9.631
REMARK INTER:                  -7.946
REMARK INTRA:                  -1.685
REMARK UNBOUND:                -0.922
REMARK  Name = /home/qwerty/github/datacon2025hack/step_04_hit_selection/docking/ligands/lig_572.pdb
REMARK  7 active torsions:
REMARK  status: ('A' for Active; 'I' for Inactive)
REMARK    1  A    between atoms: C1_1  and  C2_2
REMARK    2  A    between atoms: C2_2  and  C3_3
REMARK    3  A    between atoms: C2_2  and  C4_4
REMARK    4  A    between atoms: C6_6  and  N1_7
REMARK    5  A    between atoms: C7_8  and  C8_10
REMARK    6  A    between atoms: C15_20  and  C16_21
REMARK    7  A    between atoms: N3_24  and  C19_25
REMARK                            x       y       z     vdW  Elec       q    Type
REMARK                         _______ _______ _______ _____ _____    ______ ____
ROOT
ATOM      1  N1  UNL     1      22.493   3.750  32.321  0.00  0.00    -0.262 N 
ATOM      2  C7  UNL     1      22.179   5.129  32.085  0.00  0.00    +0.304 C 
ATOM      3  O1  UNL     1      21.791   5.500  30.945  0.00  0.00    -0.265 OA
ATOM      4  H9  UNL     1      23.147   3.507  33.099  0.00  0.00    +0.157 HD
ENDROOT
BRANCH   2   5
ATOM      5  C8  UNL     1      22.301   6.115  33.171  0.00  0.00    +0.302 C 
ATOM      6  O2  UNL     1      23.311   6.864  33.226  0.00  0.00    -0.265 OA
ATOM      7  N2  UNL     1      21.279   6.234  34.167  0.00  0.00    -0.289 N 
ATOM      8  C9  UNL     1      19.824   5.984  34.210  0.00  0.00    +0.117 C 
ATOM      9  C10 UNL     1      19.558   6.730  35.487  0.00  0.00    +0.010 C 
ATOM     10  C11 UNL     1      18.750   8.028  35.302  0.00  0.00    +0.038 C 
ATOM     11  C12 UNL     1      18.543   8.736  36.662  0.00  0.00    +0.160 C 
ATOM     12  O3  UNL     1      19.093   8.011  37.751  0.00  0.00    -0.380 OA
ATOM     13  C13 UNL     1      18.526   6.714  37.811  0.00  0.00    +0.160 C 
ATOM     14  C14 UNL     1      18.941   5.852  36.600  0.00  0.00    +0.038 C 
ATOM     15  C15 UNL     1      21.066   6.941  35.455  0.00  0.00    +0.087 C 
BRANCH  15  16
ATOM     16  C16 UNL     1      21.828   6.332  36.667  0.00  0.00    +0.010 C 
ATOM     17  C17 UNL     1      22.284   7.329  37.720  0.00  0.00    +0.006 C 
ATOM     18  C18 UNL     1      23.312   6.629  36.845  0.00  0.00    +0.006 C 
ENDBRANCH  15  16
ENDBRANCH   2   5
BRANCH   1  21
ATOM     19  C4  UNL     1      22.024   1.264  29.806  0.00  0.00    +0.068 A 
ATOM     20  C5  UNL     1      22.857   2.184  30.424  0.00  0.00    +0.069 A 
ATOM     21  C6  UNL     1      22.083   2.698  31.439  0.00  0.00    +0.129 A 
ATOM     22  N3  UNL     1      20.870   2.096  31.433  0.00  0.00    -0.218 N 
ATOM     23  N4  UNL     1      20.830   1.227  30.433  0.00  0.00    -0.169 NA
BRANCH  22  24
ATOM     24  C19 UNL     1      19.796   2.251  32.376  0.00  0.00    +0.067 A 
ATOM     25  C20 UNL     1      20.037   2.070  33.748  0.00  0.00    +0.028 A 
ATOM     26  C21 UNL     1      19.000   2.219  34.673  0.00  0.00    +0.002 A 
ATOM     27  C22 UNL     1      17.717   2.564  34.238  0.00  0.00    +0.000 A 
ATOM     28  C23 UNL     1      17.475   2.776  32.878  0.00  0.00    +0.002 A 
ATOM     29  C24 UNL     1      18.509   2.627  31.950  0.00  0.00    +0.028 A 
ENDBRANCH  22  24
BRANCH  19  31
ATOM     30  C1  UNL     1      22.523  -1.047  29.002  0.00  0.00    +0.014 C 
ATOM     31  C2  UNL     1      22.356   0.423  28.603  0.00  0.00    +0.033 C 
ATOM     32  C3  UNL     1      21.287   0.581  27.518  0.00  0.00    +0.014 C 
ENDBRANCH  19  31
ENDBRANCH   1  21
TORSDOF 5
ENDMDL
