MODEL 1
REMARK VINA RESULT:   -10.722      0.000      0.000
REMARK INTER + INTRA:         -15.113
REMARK INTER:                 -13.856
REMARK INTRA:                  -1.258
REMARK UNBOUND:                -1.258
REMARK  Name = /home/qwerty/github/datacon2025hack/step_04_hit_selection/docking/ligands/lig_210.pdb
REMARK  6 active torsions:
REMARK  status: ('A' for Active; 'I' for Inactive)
REMARK    1  A    between atoms: C1_1  and  C2_2
REMARK    2  A    between atoms: C10_10  and  N1_11
REMARK    3  A    between atoms: C11_12  and  C12_14
REMARK    4  A    between atoms: C16_18  and  C17_19
REMARK    5  A    between atoms: C20_25  and  C21_26
REMARK    6  A    between atoms: C24_29  and  C25_30
REMARK                            x       y       z     vdW  Elec       q    Type
REMARK                         _______ _______ _______ _____ _____    ______ ____
ROOT
ATOM      1  C17 UNL     1      21.189   2.083  28.374  0.00  0.00    +0.090 A 
ATOM      2  C18 UNL     1      22.224   3.014  28.047  0.00  0.00    +0.141 A 
ATOM      3  N2  UNL     1      22.466   3.348  26.742  0.00  0.00    -0.233 NA
ATOM      4  C19 UNL     1      21.697   2.776  25.787  0.00  0.00    +0.175 A 
ATOM      5  N3  UNL     1      21.785   2.931  24.459  0.00  0.00    -0.258 N 
ATOM      6  N4  UNL     1      20.872   2.143  23.895  0.00  0.00    -0.168 NA
ATOM      7  C20 UNL     1      20.199   1.486  24.878  0.00  0.00    +0.136 A 
ATOM      8  C34 UNL     1      20.724   1.889  26.087  0.00  0.00    +0.137 A 
ATOM      9  N7  UNL     1      20.455   1.521  27.361  0.00  0.00    -0.240 NA
ATOM     10  H17 UNL     1      22.452   3.541  23.938  0.00  0.00    +0.191 HD
ENDROOT
BRANCH   7  11
ATOM     11  C21 UNL     1      19.132   0.502  24.634  0.00  0.00    +0.070 A 
ATOM     12  C22 UNL     1      18.014   0.733  23.837  0.00  0.00    +0.040 A 
ATOM     13  C23 UNL     1      17.289  -0.444  23.881  0.00  0.00    +0.026 A 
ATOM     14  C24 UNL     1      16.066  -0.816  23.306  0.00  0.00    +0.080 A 
ATOM     15  N5  UNL     1      15.573  -2.056  23.612  0.00  0.00    -0.254 NA
ATOM     16  C31 UNL     1      16.239  -2.929  24.431  0.00  0.00    +0.113 A 
ATOM     17  C32 UNL     1      17.474  -2.572  24.997  0.00  0.00    +0.046 A 
ATOM     18  C33 UNL     1      17.969  -1.306  24.699  0.00  0.00    +0.050 A 
ATOM     19  N6  UNL     1      19.101  -0.747  25.159  0.00  0.00    -0.353 N 
ATOM     20  H24 UNL     1      19.792  -1.188  25.805  0.00  0.00    +0.166 HD
BRANCH  14  21
ATOM     21  C25 UNL     1      15.307   0.069  22.396  0.00  0.00    +0.006 A 
ATOM     22  C26 UNL     1      13.936   0.307  22.598  0.00  0.00    +0.048 A 
ATOM     23  C27 UNL     1      13.234   1.161  21.742  0.00  0.00    +0.127 A 
ATOM     24  F1  UNL     1      11.912   1.386  21.943  0.00  0.00    -0.205 F 
ATOM     25  C28 UNL     1      13.897   1.792  20.686  0.00  0.00    +0.076 A 
ATOM     26  C29 UNL     1      15.264   1.576  20.488  0.00  0.00    +0.127 A 
ATOM     27  F2  UNL     1      15.906   2.194  19.467  0.00  0.00    -0.205 F 
ATOM     28  C30 UNL     1      15.969   0.724  21.345  0.00  0.00    +0.048 A 
ENDBRANCH  14  21
ENDBRANCH   7  11
BRANCH   1  33
ATOM     29  C12 UNL     1      21.024   2.115  32.187  0.00  0.00    +0.037 A 
ATOM     30  C13 UNL     1      20.332   0.916  32.421  0.00  0.00    +0.013 A 
ATOM     31  C14 UNL     1      19.933   0.110  31.354  0.00  0.00    +0.001 A 
ATOM     32  C15 UNL     1      20.219   0.491  30.042  0.00  0.00    +0.010 A 
ATOM     33  C16 UNL     1      20.906   1.688  29.779  0.00  0.00    +0.003 A 
ATOM     34  C35 UNL     1      21.290   2.504  30.861  0.00  0.00    +0.023 A 
BRANCH  29  36
ATOM     35  N1  UNL     1      22.145   4.198  33.110  0.00  0.00    -0.305 N 
ATOM     36  C11 UNL     1      21.442   2.963  33.326  0.00  0.00    +0.245 C 
ATOM     37  O1  UNL     1      21.194   2.582  34.504  0.00  0.00    -0.270 OA
ATOM     38  H12 UNL     1      22.457   4.445  32.143  0.00  0.00    +0.150 HD
BRANCH  35  48
ATOM     39  C1  UNL     1      25.539   9.684  32.528  0.00  0.00    +0.044 C 
ATOM     40  C2  UNL     1      24.743   8.477  32.928  0.00  0.00    -0.050 A 
ATOM     41  C3  UNL     1      25.367   7.212  32.988  0.00  0.00    +0.004 A 
ATOM     42  C4  UNL     1      24.640   6.082  33.392  0.00  0.00    +0.006 A 
ATOM     43  C5  UNL     1      23.296   6.235  33.742  0.00  0.00    -0.024 A 
ATOM     44  C6  UNL     1      22.689   7.465  33.701  0.00  0.00    -0.042 A 
ATOM     45  C7  UNL     1      23.391   8.605  33.300  0.00  0.00    +0.007 A 
ATOM     46  C8  UNL     1      21.268   7.400  34.112  0.00  0.00    +0.037 C 
ATOM     47  C9  UNL     1      21.061   5.926  34.517  0.00  0.00    +0.032 C 
ATOM     48  C10 UNL     1      22.367   5.166  34.187  0.00  0.00    +0.104 C 
ENDBRANCH  35  48
ENDBRANCH  29  36
ENDBRANCH   1  33
TORSDOF 5
ENDMDL
MODEL 2
REMARK VINA RESULT:   -10.282     11.147     13.495
REMARK INTER + INTRA:         -14.546
REMARK INTER:                 -13.340
REMARK INTRA:                  -1.206
REMARK UNBOUND:                -1.258
REMARK  Name = /home/qwerty/github/datacon2025hack/step_04_hit_selection/docking/ligands/lig_210.pdb
REMARK  6 active torsions:
REMARK  status: ('A' for Active; 'I' for Inactive)
REMARK    1  A    between atoms: C1_1  and  C2_2
REMARK    2  A    between atoms: C10_10  and  N1_11
REMARK    3  A    between atoms: C11_12  and  C12_14
REMARK    4  A    between atoms: C16_18  and  C17_19
REMARK    5  A    between atoms: C20_25  and  C21_26
REMARK    6  A    between atoms: C24_29  and  C25_30
REMARK                            x       y       z     vdW  Elec       q    Type
REMARK                         _______ _______ _______ _____ _____    ______ ____
ROOT
ATOM      1  C17 UNL     1       9.256  11.641  28.539  0.00  0.00    +0.090 A 
ATOM      2  C18 UNL     1       8.515  11.226  29.691  0.00  0.00    +0.141 A 
ATOM      3  N2  UNL     1       7.621  10.194  29.603  0.00  0.00    -0.233 NA
ATOM      4  C19 UNL     1       7.471   9.585  28.404  0.00  0.00    +0.175 A 
ATOM      5  N3  UNL     1       6.633   8.589  28.088  0.00  0.00    -0.258 N 
ATOM      6  N4  UNL     1       6.773   8.333  26.789  0.00  0.00    -0.168 NA
ATOM      7  C20 UNL     1       7.713   9.176  26.281  0.00  0.00    +0.136 A 
ATOM      8  C34 UNL     1       8.159   9.977  27.310  0.00  0.00    +0.137 A 
ATOM      9  N7  UNL     1       9.046  10.998  27.347  0.00  0.00    -0.240 NA
ATOM     10  H17 UNL     1       5.968   8.097  28.725  0.00  0.00    +0.191 HD
ENDROOT
BRANCH   7  11
ATOM     11  C21 UNL     1       8.115   9.208  24.865  0.00  0.00    +0.070 A 
ATOM     12  C22 UNL     1       8.505   8.092  24.130  0.00  0.00    +0.040 A 
ATOM     13  C23 UNL     1       8.786   8.572  22.865  0.00  0.00    +0.026 A 
ATOM     14  C24 UNL     1       9.246   7.939  21.701  0.00  0.00    +0.080 A 
ATOM     15  N5  UNL     1       9.503   8.727  20.611  0.00  0.00    -0.254 NA
ATOM     16  C31 UNL     1       9.309  10.082  20.623  0.00  0.00    +0.113 A 
ATOM     17  C32 UNL     1       8.830  10.723  21.779  0.00  0.00    +0.046 A 
ATOM     18  C33 UNL     1       8.582   9.925  22.892  0.00  0.00    +0.050 A 
ATOM     19  N6  UNL     1       8.164  10.329  24.103  0.00  0.00    -0.353 N 
ATOM     20  H24 UNL     1       7.947  11.309  24.389  0.00  0.00    +0.166 HD
BRANCH  14  21
ATOM     21  C25 UNL     1       9.456   6.478  21.614  0.00  0.00    +0.006 A 
ATOM     22  C26 UNL     1       8.552   5.581  22.210  0.00  0.00    +0.048 A 
ATOM     23  C27 UNL     1       8.753   4.202  22.104  0.00  0.00    +0.127 A 
ATOM     24  F1  UNL     1       7.875   3.343  22.681  0.00  0.00    -0.205 F 
ATOM     25  C28 UNL     1       9.849   3.707  21.394  0.00  0.00    +0.076 A 
ATOM     26  C29 UNL     1      10.744   4.590  20.783  0.00  0.00    +0.127 A 
ATOM     27  F2  UNL     1      11.804   4.108  20.090  0.00  0.00    -0.205 F 
ATOM     28  C30 UNL     1      10.545   5.971  20.885  0.00  0.00    +0.048 A 
ENDBRANCH  14  21
ENDBRANCH   7  11
BRANCH   1  33
ATOM     29  C12 UNL     1      11.759  14.209  29.845  0.00  0.00    +0.037 A 
ATOM     30  C13 UNL     1      12.072  14.885  28.655  0.00  0.00    +0.013 A 
ATOM     31  C14 UNL     1      11.473  14.513  27.451  0.00  0.00    +0.001 A 
ATOM     32  C15 UNL     1      10.555  13.462  27.420  0.00  0.00    +0.010 A 
ATOM     33  C16 UNL     1      10.225  12.766  28.596  0.00  0.00    +0.003 A 
ATOM     34  C35 UNL     1      10.849  13.137  29.803  0.00  0.00    +0.023 A 
BRANCH  29  36
ATOM     35  N1  UNL     1      12.142  13.895  32.336  0.00  0.00    -0.305 N 
ATOM     36  C11 UNL     1      12.402  14.612  31.117  0.00  0.00    +0.245 C 
ATOM     37  O1  UNL     1      13.171  15.612  31.131  0.00  0.00    -0.270 OA
ATOM     38  H12 UNL     1      11.409  13.149  32.343  0.00  0.00    +0.150 HD
BRANCH  35  48
ATOM     39  C1  UNL     1      10.904  11.212  38.099  0.00  0.00    +0.044 C 
ATOM     40  C2  UNL     1      11.380  11.976  36.899  0.00  0.00    -0.050 A 
ATOM     41  C3  UNL     1      10.595  13.025  36.376  0.00  0.00    +0.004 A 
ATOM     42  C4  UNL     1      11.046  13.767  35.275  0.00  0.00    +0.006 A 
ATOM     43  C5  UNL     1      12.287  13.455  34.715  0.00  0.00    -0.024 A 
ATOM     44  C6  UNL     1      13.062  12.446  35.229  0.00  0.00    -0.042 A 
ATOM     45  C7  UNL     1      12.635  11.692  36.324  0.00  0.00    +0.007 A 
ATOM     46  C8  UNL     1      14.334  12.287  34.487  0.00  0.00    +0.037 C 
ATOM     47  C9  UNL     1      14.307  13.423  33.445  0.00  0.00    +0.032 C 
ATOM     48  C10 UNL     1      12.929  14.117  33.551  0.00  0.00    +0.104 C 
ENDBRANCH  35  48
ENDBRANCH  29  36
ENDBRANCH   1  33
TORSDOF 5
ENDMDL
MODEL 3
REMARK VINA RESULT:   -10.100     10.872     14.364
REMARK INTER + INTRA:         -14.310
REMARK INTER:                 -11.009
REMARK INTRA:                  -3.301
REMARK UNBOUND:                -1.258
REMARK  Name = /home/qwerty/github/datacon2025hack/step_04_hit_selection/docking/ligands/lig_210.pdb
REMARK  6 active torsions:
REMARK  status: ('A' for Active; 'I' for Inactive)
REMARK    1  A    between atoms: C1_1  and  C2_2
REMARK    2  A    between atoms: C10_10  and  N1_11
REMARK    3  A    between atoms: C11_12  and  C12_14
REMARK    4  A    between atoms: C16_18  and  C17_19
REMARK    5  A    between atoms: C20_25  and  C21_26
REMARK    6  A    between atoms: C24_29  and  C25_30
REMARK                            x       y       z     vdW  Elec       q    Type
REMARK                         _______ _______ _______ _____ _____    ______ ____
ROOT
ATOM      1  C17 UNL     1       8.200   2.769  26.334  0.00  0.00    +0.090 A 
ATOM      2  C18 UNL     1       7.624   1.686  27.070  0.00  0.00    +0.141 A 
ATOM      3  N2  UNL     1       6.818   1.934  28.147  0.00  0.00    -0.233 NA
ATOM      4  C19 UNL     1       6.584   3.224  28.481  0.00  0.00    +0.175 A 
ATOM      5  N3  UNL     1       5.862   3.689  29.510  0.00  0.00    -0.258 N 
ATOM      6  N4  UNL     1       5.942   5.018  29.498  0.00  0.00    -0.168 NA
ATOM      7  C20 UNL     1       6.720   5.395  28.447  0.00  0.00    +0.136 A 
ATOM      8  C34 UNL     1       7.131   4.252  27.797  0.00  0.00    +0.137 A 
ATOM      9  N7  UNL     1       7.943   4.055  26.732  0.00  0.00    -0.240 NA
ATOM     10  H17 UNL     1       5.337   3.128  30.216  0.00  0.00    +0.191 HD
ENDROOT
BRANCH   7  11
ATOM     11  C21 UNL     1       7.060   6.793  28.131  0.00  0.00    +0.070 A 
ATOM     12  C22 UNL     1       7.319   7.271  26.850  0.00  0.00    +0.040 A 
ATOM     13  C23 UNL     1       7.583   8.618  27.013  0.00  0.00    +0.026 A 
ATOM     14  C24 UNL     1       7.934   9.624  26.101  0.00  0.00    +0.080 A 
ATOM     15  N5  UNL     1       8.208  10.867  26.603  0.00  0.00    -0.254 NA
ATOM     16  C31 UNL     1       8.131  11.151  27.941  0.00  0.00    +0.113 A 
ATOM     17  C32 UNL     1       7.762  10.155  28.860  0.00  0.00    +0.046 A 
ATOM     18  C33 UNL     1       7.497   8.887  28.352  0.00  0.00    +0.050 A 
ATOM     19  N6  UNL     1       7.170   7.785  29.048  0.00  0.00    -0.353 N 
ATOM     20  H24 UNL     1       7.051   7.718  30.083  0.00  0.00    +0.166 HD
BRANCH  14  21
ATOM     21  C25 UNL     1       8.014   9.390  24.643  0.00  0.00    +0.006 A 
ATOM     22  C26 UNL     1       8.360   8.126  24.132  0.00  0.00    +0.048 A 
ATOM     23  C27 UNL     1       8.414   7.913  22.752  0.00  0.00    +0.127 A 
ATOM     24  F1  UNL     1       8.747   6.691  22.267  0.00  0.00    -0.205 F 
ATOM     25  C28 UNL     1       8.114   8.955  21.871  0.00  0.00    +0.076 A 
ATOM     26  C29 UNL     1       7.751  10.210  22.369  0.00  0.00    +0.127 A 
ATOM     27  F2  UNL     1       7.455  11.218  21.513  0.00  0.00    -0.205 F 
ATOM     28  C30 UNL     1       7.694  10.426  23.750  0.00  0.00    +0.048 A 
ENDBRANCH  14  21
ENDBRANCH   7  11
BRANCH   1  33
ATOM     29  C12 UNL     1      10.778   3.315  23.573  0.00  0.00    +0.037 A 
ATOM     30  C13 UNL     1      10.778   2.047  22.971  0.00  0.00    +0.013 A 
ATOM     31  C14 UNL     1       9.947   1.035  23.454  0.00  0.00    +0.001 A 
ATOM     32  C15 UNL     1       9.108   1.277  24.543  0.00  0.00    +0.010 A 
ATOM     33  C16 UNL     1       9.091   2.536  25.167  0.00  0.00    +0.003 A 
ATOM     34  C35 UNL     1       9.946   3.546  24.683  0.00  0.00    +0.023 A 
BRANCH  29  36
ATOM     35  N1  UNL     1      11.542   5.737  23.517  0.00  0.00    -0.305 N 
ATOM     36  C11 UNL     1      11.664   4.381  23.052  0.00  0.00    +0.245 C 
ATOM     37  O1  UNL     1      12.523   4.097  22.172  0.00  0.00    -0.270 OA
ATOM     38  H12 UNL     1      10.749   5.990  24.151  0.00  0.00    +0.150 HD
BRANCH  35  48
ATOM     39  C1  UNL     1      10.567  10.789  19.585  0.00  0.00    +0.044 C 
ATOM     40  C2  UNL     1      11.052   9.704  20.499  0.00  0.00    -0.050 A 
ATOM     41  C3  UNL     1      11.218   8.392  20.007  0.00  0.00    +0.004 A 
ATOM     42  C4  UNL     1      11.702   7.376  20.845  0.00  0.00    +0.006 A 
ATOM     43  C5  UNL     1      12.025   7.691  22.168  0.00  0.00    -0.024 A 
ATOM     44  C6  UNL     1      11.881   8.969  22.647  0.00  0.00    -0.042 A 
ATOM     45  C7  UNL     1      11.399   9.997  21.833  0.00  0.00    +0.007 A 
ATOM     46  C8  UNL     1      12.281   9.080  24.068  0.00  0.00    +0.037 C 
ATOM     47  C9  UNL     1      12.798   7.671  24.425  0.00  0.00    +0.032 C 
ATOM     48  C10 UNL     1      12.543   6.760  23.202  0.00  0.00    +0.104 C 
ENDBRANCH  35  48
ENDBRANCH  29  36
ENDBRANCH   1  33
TORSDOF 5
ENDMDL
MODEL 4
REMARK VINA RESULT:   -10.051      4.934      8.389
REMARK INTER + INTRA:         -14.247
REMARK INTER:                 -10.852
REMARK INTRA:                  -3.395
REMARK UNBOUND:                -1.258
REMARK  Name = /home/qwerty/github/datacon2025hack/step_04_hit_selection/docking/ligands/lig_210.pdb
REMARK  6 active torsions:
REMARK  status: ('A' for Active; 'I' for Inactive)
REMARK    1  A    between atoms: C1_1  and  C2_2
REMARK    2  A    between atoms: C10_10  and  N1_11
REMARK    3  A    between atoms: C11_12  and  C12_14
REMARK    4  A    between atoms: C16_18  and  C17_19
REMARK    5  A    between atoms: C20_25  and  C21_26
REMARK    6  A    between atoms: C24_29  and  C25_30
REMARK                            x       y       z     vdW  Elec       q    Type
REMARK                         _______ _______ _______ _____ _____    ______ ____
ROOT
ATOM      1  C17 UNL     1      21.349   4.282  24.879  0.00  0.00    +0.090 A 
ATOM      2  C18 UNL     1      22.561   5.038  24.811  0.00  0.00    +0.141 A 
ATOM      3  N2  UNL     1      22.753   5.948  23.806  0.00  0.00    -0.233 NA
ATOM      4  C19 UNL     1      21.765   6.106  22.897  0.00  0.00    +0.175 A 
ATOM      5  N3  UNL     1      21.758   6.906  21.822  0.00  0.00    -0.258 N 
ATOM      6  N4  UNL     1      20.612   6.708  21.172  0.00  0.00    -0.168 NA
ATOM      7  C20 UNL     1      19.888   5.775  21.847  0.00  0.00    +0.136 A 
ATOM      8  C34 UNL     1      20.621   5.389  22.948  0.00  0.00    +0.137 A 
ATOM      9  N7  UNL     1      20.392   4.472  23.916  0.00  0.00    -0.240 NA
ATOM     10  H17 UNL     1      22.510   7.563  21.519  0.00  0.00    +0.191 HD
ENDROOT
BRANCH   7  11
ATOM     11  C21 UNL     1      18.573   5.276  21.411  0.00  0.00    +0.070 A 
ATOM     12  C22 UNL     1      18.207   3.933  21.388  0.00  0.00    +0.040 A 
ATOM     13  C23 UNL     1      16.905   3.921  20.924  0.00  0.00    +0.026 A 
ATOM     14  C24 UNL     1      16.010   2.874  20.661  0.00  0.00    +0.080 A 
ATOM     15  N5  UNL     1      14.794   3.199  20.124  0.00  0.00    -0.254 NA
ATOM     16  C31 UNL     1      14.430   4.493  19.860  0.00  0.00    +0.113 A 
ATOM     17  C32 UNL     1      15.312   5.551  20.138  0.00  0.00    +0.046 A 
ATOM     18  C33 UNL     1      16.554   5.220  20.671  0.00  0.00    +0.050 A 
ATOM     19  N6  UNL     1      17.559   6.061  20.972  0.00  0.00    -0.353 N 
ATOM     20  H24 UNL     1      17.552   7.099  20.862  0.00  0.00    +0.166 HD
BRANCH  14  21
ATOM     21  C25 UNL     1      16.332   1.458  20.941  0.00  0.00    +0.006 A 
ATOM     22  C26 UNL     1      16.173   0.472  19.951  0.00  0.00    +0.048 A 
ATOM     23  C27 UNL     1      16.498  -0.860  20.223  0.00  0.00    +0.127 A 
ATOM     24  F1  UNL     1      16.343  -1.806  19.263  0.00  0.00    -0.205 F 
ATOM     25  C28 UNL     1      16.994  -1.216  21.480  0.00  0.00    +0.076 A 
ATOM     26  C29 UNL     1      17.173  -0.241  22.464  0.00  0.00    +0.127 A 
ATOM     27  F2  UNL     1      17.660  -0.587  23.681  0.00  0.00    -0.205 F 
ATOM     28  C30 UNL     1      16.851   1.094  22.195  0.00  0.00    +0.048 A 
ENDBRANCH  14  21
ENDBRANCH   7  11
BRANCH   1  33
ATOM     29  C12 UNL     1      19.604   1.875  27.271  0.00  0.00    +0.037 A 
ATOM     30  C13 UNL     1      20.711   1.357  27.962  0.00  0.00    +0.013 A 
ATOM     31  C14 UNL     1      22.001   1.790  27.656  0.00  0.00    +0.001 A 
ATOM     32  C15 UNL     1      22.202   2.744  26.658  0.00  0.00    +0.010 A 
ATOM     33  C16 UNL     1      21.113   3.277  25.948  0.00  0.00    +0.003 A 
ATOM     34  C35 UNL     1      19.815   2.820  26.252  0.00  0.00    +0.023 A 
BRANCH  29  36
ATOM     35  N1  UNL     1      17.208   1.364  26.602  0.00  0.00    -0.305 N 
ATOM     36  C11 UNL     1      18.238   1.406  27.603  0.00  0.00    +0.245 C 
ATOM     37  O1  UNL     1      17.974   1.062  28.788  0.00  0.00    -0.270 OA
ATOM     38  H12 UNL     1      17.398   1.768  25.656  0.00  0.00    +0.150 HD
BRANCH  35  48
ATOM     39  C1  UNL     1      12.524   0.685  22.180  0.00  0.00    +0.044 C 
ATOM     40  C2  UNL     1      13.426   0.737  23.378  0.00  0.00    -0.050 A 
ATOM     41  C3  UNL     1      13.692   1.973  24.005  0.00  0.00    +0.004 A 
ATOM     42  C4  UNL     1      14.508   2.029  25.144  0.00  0.00    +0.006 A 
ATOM     43  C5  UNL     1      15.041   0.840  25.650  0.00  0.00    -0.024 A 
ATOM     44  C6  UNL     1      14.773  -0.366  25.054  0.00  0.00    -0.042 A 
ATOM     45  C7  UNL     1      13.965  -0.448  23.917  0.00  0.00    +0.007 A 
ATOM     46  C8  UNL     1      15.435  -1.492  25.751  0.00  0.00    +0.037 C 
ATOM     47  C9  UNL     1      16.120  -0.833  26.966  0.00  0.00    +0.032 C 
ATOM     48  C10 UNL     1      15.925   0.696  26.835  0.00  0.00    +0.104 C 
ENDBRANCH  35  48
ENDBRANCH  29  36
ENDBRANCH   1  33
TORSDOF 5
ENDMDL
MODEL 5
REMARK VINA RESULT:   -10.038     11.823     17.373
REMARK INTER + INTRA:         -14.230
REMARK INTER:                 -12.863
REMARK INTRA:                  -1.367
REMARK UNBOUND:                -1.258
REMARK  Name = /home/qwerty/github/datacon2025hack/step_04_hit_selection/docking/ligands/lig_210.pdb
REMARK  6 active torsions:
REMARK  status: ('A' for Active; 'I' for Inactive)
REMARK    1  A    between atoms: C1_1  and  C2_2
REMARK    2  A    between atoms: C10_10  and  N1_11
REMARK    3  A    between atoms: C11_12  and  C12_14
REMARK    4  A    between atoms: C16_18  and  C17_19
REMARK    5  A    between atoms: C20_25  and  C21_26
REMARK    6  A    between atoms: C24_29  and  C25_30
REMARK                            x       y       z     vdW  Elec       q    Type
REMARK                         _______ _______ _______ _____ _____    ______ ____
ROOT
ATOM      1  C17 UNL     1      10.160  12.589  28.766  0.00  0.00    +0.090 A 
ATOM      2  C18 UNL     1      10.749  13.368  27.721  0.00  0.00    +0.141 A 
ATOM      3  N2  UNL     1      11.659  14.347  28.017  0.00  0.00    -0.233 NA
ATOM      4  C19 UNL     1      11.979  14.543  29.316  0.00  0.00    +0.175 A 
ATOM      5  N3  UNL     1      12.809  15.462  29.828  0.00  0.00    -0.258 N 
ATOM      6  N4  UNL     1      12.789  15.338  31.154  0.00  0.00    -0.168 NA
ATOM      7  C20 UNL     1      11.938  14.328  31.481  0.00  0.00    +0.136 A 
ATOM      8  C34 UNL     1      11.420  13.819  30.310  0.00  0.00    +0.137 A 
ATOM      9  N7  UNL     1      10.509  12.848  30.067  0.00  0.00    -0.240 NA
ATOM     10  H17 UNL     1      13.369  16.169  29.303  0.00  0.00    +0.191 HD
ENDROOT
BRANCH   7  11
ATOM     11  C21 UNL     1      11.635  13.918  32.862  0.00  0.00    +0.070 A 
ATOM     12  C22 UNL     1      12.192  12.810  33.496  0.00  0.00    +0.040 A 
ATOM     13  C23 UNL     1      11.641  12.805  34.764  0.00  0.00    +0.026 A 
ATOM     14  C24 UNL     1      11.790  11.931  35.850  0.00  0.00    +0.080 A 
ATOM     15  N5  UNL     1      11.030  12.167  36.964  0.00  0.00    -0.254 NA
ATOM     16  C31 UNL     1      10.162  13.223  37.049  0.00  0.00    +0.113 A 
ATOM     17  C32 UNL     1      10.019  14.116  35.974  0.00  0.00    +0.046 A 
ATOM     18  C33 UNL     1      10.781  13.868  34.835  0.00  0.00    +0.050 A 
ATOM     19  N6  UNL     1      10.772  14.563  33.685  0.00  0.00    -0.353 N 
ATOM     20  H24 UNL     1      10.198  15.409  33.476  0.00  0.00    +0.166 HD
BRANCH  14  21
ATOM     21  C25 UNL     1      12.725  10.784  35.832  0.00  0.00    +0.006 A 
ATOM     22  C26 UNL     1      14.054  10.929  36.269  0.00  0.00    +0.048 A 
ATOM     23  C27 UNL     1      14.921   9.833  36.265  0.00  0.00    +0.127 A 
ATOM     24  F1  UNL     1      16.201   9.980  36.689  0.00  0.00    -0.205 F 
ATOM     25  C28 UNL     1      14.468   8.584  35.834  0.00  0.00    +0.076 A 
ATOM     26  C29 UNL     1      13.144   8.426  35.415  0.00  0.00    +0.127 A 
ATOM     27  F2  UNL     1      12.704   7.211  35.004  0.00  0.00    -0.205 F 
ATOM     28  C30 UNL     1      12.272   9.520  35.421  0.00  0.00    +0.048 A 
ENDBRANCH  14  21
ENDBRANCH   7  11
BRANCH   1  33
ATOM     29  C12 UNL     1       8.066   9.976  26.936  0.00  0.00    +0.037 A 
ATOM     30  C13 UNL     1       7.272   9.502  27.992  0.00  0.00    +0.013 A 
ATOM     31  C14 UNL     1       7.414  10.030  29.276  0.00  0.00    +0.001 A 
ATOM     32  C15 UNL     1       8.350  11.037  29.521  0.00  0.00    +0.010 A 
ATOM     33  C16 UNL     1       9.160  11.527  28.482  0.00  0.00    +0.003 A 
ATOM     34  C35 UNL     1       9.022  10.975  27.193  0.00  0.00    +0.023 A 
BRANCH  29  36
ATOM     35  N1  UNL     1       8.904   8.530  25.023  0.00  0.00    -0.305 N 
ATOM     36  C11 UNL     1       7.908   9.407  25.578  0.00  0.00    +0.245 C 
ATOM     37  O1  UNL     1       6.894   9.715  24.892  0.00  0.00    -0.270 OA
ATOM     38  H12 UNL     1       9.798   8.379  25.544  0.00  0.00    +0.150 HD
BRANCH  35  48
ATOM     39  C1  UNL     1      11.083  10.224  19.164  0.00  0.00    +0.044 C 
ATOM     40  C2  UNL     1      10.445   9.635  20.387  0.00  0.00    -0.050 A 
ATOM     41  C3  UNL     1       9.367  10.302  21.007  0.00  0.00    +0.004 A 
ATOM     42  C4  UNL     1       8.742   9.744  22.132  0.00  0.00    +0.006 A 
ATOM     43  C5  UNL     1       9.198   8.516  22.617  0.00  0.00    -0.024 A 
ATOM     44  C6  UNL     1      10.235   7.855  22.008  0.00  0.00    -0.042 A 
ATOM     45  C7  UNL     1      10.875   8.391  20.888  0.00  0.00    +0.007 A 
ATOM     46  C8  UNL     1      10.554   6.576  22.682  0.00  0.00    +0.037 C 
ATOM     47  C9  UNL     1       9.491   6.460  23.793  0.00  0.00    +0.032 C 
ATOM     48  C10 UNL     1       8.673   7.773  23.790  0.00  0.00    +0.104 C 
ENDBRANCH  35  48
ENDBRANCH  29  36
ENDBRANCH   1  33
TORSDOF 5
ENDMDL
MODEL 6
REMARK VINA RESULT:    -9.945     11.707     13.781
REMARK INTER + INTRA:         -14.109
REMARK INTER:                 -10.549
REMARK INTRA:                  -3.560
REMARK UNBOUND:                -1.258
REMARK  Name = /home/qwerty/github/datacon2025hack/step_04_hit_selection/docking/ligands/lig_210.pdb
REMARK  6 active torsions:
REMARK  status: ('A' for Active; 'I' for Inactive)
REMARK    1  A    between atoms: C1_1  and  C2_2
REMARK    2  A    between atoms: C10_10  and  N1_11
REMARK    3  A    between atoms: C11_12  and  C12_14
REMARK    4  A    between atoms: C16_18  and  C17_19
REMARK    5  A    between atoms: C20_25  and  C21_26
REMARK    6  A    between atoms: C24_29  and  C25_30
REMARK                            x       y       z     vdW  Elec       q    Type
REMARK                         _______ _______ _______ _____ _____    ______ ____
ROOT
ATOM      1  C17 UNL     1       7.569   7.356  28.811  0.00  0.00    +0.090 A 
ATOM      2  C18 UNL     1       6.857   7.199  30.041  0.00  0.00    +0.141 A 
ATOM      3  N2  UNL     1       6.417   5.963  30.433  0.00  0.00    -0.233 NA
ATOM      4  C19 UNL     1       6.684   4.910  29.627  0.00  0.00    +0.175 A 
ATOM      5  N3  UNL     1       6.320   3.633  29.798  0.00  0.00    -0.258 N 
ATOM      6  N4  UNL     1       6.743   2.942  28.740  0.00  0.00    -0.168 NA
ATOM      7  C20 UNL     1       7.385   3.795  27.896  0.00  0.00    +0.136 A 
ATOM      8  C34 UNL     1       7.349   5.052  28.460  0.00  0.00    +0.137 A 
ATOM      9  N7  UNL     1       7.792   6.254  28.026  0.00  0.00    -0.240 NA
ATOM     10  H17 UNL     1       5.785   3.230  30.599  0.00  0.00    +0.191 HD
ENDROOT
BRANCH   7  11
ATOM     11  C21 UNL     1       7.965   3.396  26.602  0.00  0.00    +0.070 A 
ATOM     12  C22 UNL     1       7.813   4.108  25.416  0.00  0.00    +0.040 A 
ATOM     13  C23 UNL     1       8.516   3.388  24.469  0.00  0.00    +0.026 A 
ATOM     14  C24 UNL     1       8.712   3.583  23.094  0.00  0.00    +0.080 A 
ATOM     15  N5  UNL     1       9.413   2.626  22.411  0.00  0.00    -0.254 NA
ATOM     16  C31 UNL     1       9.931   1.518  23.027  0.00  0.00    +0.113 A 
ATOM     17  C32 UNL     1       9.757   1.322  24.407  0.00  0.00    +0.046 A 
ATOM     18  C33 UNL     1       9.032   2.288  25.100  0.00  0.00    +0.050 A 
ATOM     19  N6  UNL     1       8.712   2.282  26.405  0.00  0.00    -0.353 N 
ATOM     20  H24 UNL     1       8.974   1.552  27.104  0.00  0.00    +0.166 HD
BRANCH  14  21
ATOM     21  C25 UNL     1       8.197   4.768  22.373  0.00  0.00    +0.006 A 
ATOM     22  C26 UNL     1       7.526   4.630  21.145  0.00  0.00    +0.048 A 
ATOM     23  C27 UNL     1       7.028   5.756  20.483  0.00  0.00    +0.127 A 
ATOM     24  F1  UNL     1       6.382   5.615  19.299  0.00  0.00    -0.205 F 
ATOM     25  C28 UNL     1       7.186   7.025  21.046  0.00  0.00    +0.076 A 
ATOM     26  C29 UNL     1       7.835   7.170  22.275  0.00  0.00    +0.127 A 
ATOM     27  F2  UNL     1       7.981   8.401  22.822  0.00  0.00    -0.205 F 
ATOM     28  C30 UNL     1       8.332   6.045  22.942  0.00  0.00    +0.048 A 
ENDBRANCH  14  21
ENDBRANCH   7  11
BRANCH   1  33
ATOM     29  C12 UNL     1       9.478  10.065  26.917  0.00  0.00    +0.037 A 
ATOM     30  C13 UNL     1       8.913  11.217  27.486  0.00  0.00    +0.013 A 
ATOM     31  C14 UNL     1       7.932  11.111  28.473  0.00  0.00    +0.001 A 
ATOM     32  C15 UNL     1       7.503   9.855  28.904  0.00  0.00    +0.010 A 
ATOM     33  C16 UNL     1       8.049   8.685  28.349  0.00  0.00    +0.003 A 
ATOM     34  C35 UNL     1       9.026   8.801  27.340  0.00  0.00    +0.023 A 
BRANCH  29  36
ATOM     35  N1  UNL     1      10.567   9.269  24.766  0.00  0.00    -0.305 N 
ATOM     36  C11 UNL     1      10.517  10.189  25.870  0.00  0.00    +0.245 C 
ATOM     37  O1  UNL     1      11.382  11.103  25.962  0.00  0.00    -0.270 OA
ATOM     38  H12 UNL     1       9.927   8.441  24.761  0.00  0.00    +0.150 HD
BRANCH  35  48
ATOM     39  C1  UNL     1      11.501   5.034  19.955  0.00  0.00    +0.044 C 
ATOM     40  C2  UNL     1      11.479   6.161  20.945  0.00  0.00    -0.050 A 
ATOM     41  C3  UNL     1      12.062   5.989  22.218  0.00  0.00    +0.004 A 
ATOM     42  C4  UNL     1      12.075   7.047  23.140  0.00  0.00    +0.006 A 
ATOM     43  C5  UNL     1      11.513   8.271  22.770  0.00  0.00    -0.024 A 
ATOM     44  C6  UNL     1      10.959   8.448  21.527  0.00  0.00    -0.042 A 
ATOM     45  C7  UNL     1      10.931   7.410  20.592  0.00  0.00    +0.007 A 
ATOM     46  C8  UNL     1      10.424   9.817  21.344  0.00  0.00    +0.037 C 
ATOM     47  C9  UNL     1      10.797  10.544  22.653  0.00  0.00    +0.032 C 
ATOM     48  C10 UNL     1      11.427   9.498  23.601  0.00  0.00    +0.104 C 
ENDBRANCH  35  48
ENDBRANCH  29  36
ENDBRANCH   1  33
TORSDOF 5
ENDMDL
MODEL 7
REMARK VINA RESULT:    -9.883      4.588     12.602
REMARK INTER + INTRA:         -14.030
REMARK INTER:                 -12.954
REMARK INTRA:                  -1.076
REMARK UNBOUND:                -1.258
REMARK  Name = /home/qwerty/github/datacon2025hack/step_04_hit_selection/docking/ligands/lig_210.pdb
REMARK  6 active torsions:
REMARK  status: ('A' for Active; 'I' for Inactive)
REMARK    1  A    between atoms: C1_1  and  C2_2
REMARK    2  A    between atoms: C10_10  and  N1_11
REMARK    3  A    between atoms: C11_12  and  C12_14
REMARK    4  A    between atoms: C16_18  and  C17_19
REMARK    5  A    between atoms: C20_25  and  C21_26
REMARK    6  A    between atoms: C24_29  and  C25_30
REMARK                            x       y       z     vdW  Elec       q    Type
REMARK                         _______ _______ _______ _____ _____    ______ ____
ROOT
ATOM      1  C17 UNL     1      21.125   1.841  29.419  0.00  0.00    +0.090 A 
ATOM      2  C18 UNL     1      20.476   0.611  29.751  0.00  0.00    +0.141 A 
ATOM      3  N2  UNL     1      20.207   0.301  31.056  0.00  0.00    -0.233 NA
ATOM      4  C19 UNL     1      20.569   1.193  32.007  0.00  0.00    +0.175 A 
ATOM      5  N3  UNL     1      20.436   1.077  33.335  0.00  0.00    -0.258 N 
ATOM      6  N4  UNL     1      20.974   2.159  33.896  0.00  0.00    -0.168 NA
ATOM      7  C20 UNL     1      21.448   2.967  32.909  0.00  0.00    +0.136 A 
ATOM      8  C34 UNL     1      21.191   2.353  31.703  0.00  0.00    +0.137 A 
ATOM      9  N7  UNL     1      21.486   2.696  30.428  0.00  0.00    -0.240 NA
ATOM     10  H17 UNL     1      20.006   0.283  33.860  0.00  0.00    +0.191 HD
ENDROOT
BRANCH   7  11
ATOM     11  C21 UNL     1      22.139   4.245  33.149  0.00  0.00    +0.070 A 
ATOM     12  C22 UNL     1      21.584   5.326  33.826  0.00  0.00    +0.040 A 
ATOM     13  C23 UNL     1      22.567   6.298  33.825  0.00  0.00    +0.026 A 
ATOM     14  C24 UNL     1      22.596   7.607  34.327  0.00  0.00    +0.080 A 
ATOM     15  N5  UNL     1      23.720   8.352  34.090  0.00  0.00    -0.254 NA
ATOM     16  C31 UNL     1      24.799   7.856  33.408  0.00  0.00    +0.113 A 
ATOM     17  C32 UNL     1      24.787   6.539  32.918  0.00  0.00    +0.046 A 
ATOM     18  C33 UNL     1      23.639   5.786  33.145  0.00  0.00    +0.050 A 
ATOM     19  N6  UNL     1      23.398   4.530  32.733  0.00  0.00    -0.353 N 
ATOM     20  H24 UNL     1      24.046   3.921  32.187  0.00  0.00    +0.166 HD
BRANCH  14  21
ATOM     21  C25 UNL     1      21.474   8.197  35.089  0.00  0.00    +0.006 A 
ATOM     22  C26 UNL     1      21.082   7.660  36.329  0.00  0.00    +0.048 A 
ATOM     23  C27 UNL     1      20.033   8.238  37.048  0.00  0.00    +0.127 A 
ATOM     24  F1  UNL     1      19.661   7.715  38.243  0.00  0.00    -0.205 F 
ATOM     25  C28 UNL     1      19.374   9.362  36.543  0.00  0.00    +0.076 A 
ATOM     26  C29 UNL     1      19.769   9.914  35.321  0.00  0.00    +0.127 A 
ATOM     27  F2  UNL     1      19.132  11.008  34.836  0.00  0.00    -0.205 F 
ATOM     28  C30 UNL     1      20.820   9.339  34.599  0.00  0.00    +0.048 A 
ENDBRANCH  14  21
ENDBRANCH   7  11
BRANCH   1  33
ATOM     29  C12 UNL     1      20.898   2.203  25.626  0.00  0.00    +0.037 A 
ATOM     30  C13 UNL     1      22.071   2.929  25.370  0.00  0.00    +0.013 A 
ATOM     31  C14 UNL     1      22.923   3.288  26.415  0.00  0.00    +0.001 A 
ATOM     32  C15 UNL     1      22.614   2.927  27.727  0.00  0.00    +0.010 A 
ATOM     33  C16 UNL     1      21.444   2.204  28.013  0.00  0.00    +0.003 A 
ATOM     34  C35 UNL     1      20.581   1.861  26.953  0.00  0.00    +0.023 A 
BRANCH  29  36
ATOM     35  N1  UNL     1      19.137   0.683  24.607  0.00  0.00    -0.305 N 
ATOM     36  C11 UNL     1      20.000   1.829  24.509  0.00  0.00    +0.245 C 
ATOM     37  O1  UNL     1      20.011   2.516  23.450  0.00  0.00    -0.270 OA
ATOM     38  H12 UNL     1      19.224   0.047  25.433  0.00  0.00    +0.150 HD
BRANCH  35  48
ATOM     39  C1  UNL     1      13.972  -3.084  25.645  0.00  0.00    +0.044 C 
ATOM     40  C2  UNL     1      15.078  -2.201  25.148  0.00  0.00    -0.050 A 
ATOM     41  C3  UNL     1      16.367  -2.736  24.942  0.00  0.00    +0.004 A 
ATOM     42  C4  UNL     1      17.400  -1.927  24.446  0.00  0.00    +0.006 A 
ATOM     43  C5  UNL     1      17.125  -0.589  24.151  0.00  0.00    -0.024 A 
ATOM     44  C6  UNL     1      15.869  -0.067  24.334  0.00  0.00    -0.042 A 
ATOM     45  C7  UNL     1      14.825  -0.852  24.829  0.00  0.00    +0.007 A 
ATOM     46  C8  UNL     1      15.799   1.364  23.959  0.00  0.00    +0.037 C 
ATOM     47  C9  UNL     1      17.207   1.679  23.413  0.00  0.00    +0.032 C 
ATOM     48  C10 UNL     1      18.080   0.420  23.627  0.00  0.00    +0.104 C 
ENDBRANCH  35  48
ENDBRANCH  29  36
ENDBRANCH   1  33
TORSDOF 5
ENDMDL
MODEL 8
REMARK VINA RESULT:    -9.779     11.360     13.697
REMARK INTER + INTRA:         -13.895
REMARK INTER:                 -10.361
REMARK INTRA:                  -3.534
REMARK UNBOUND:                -1.258
REMARK  Name = /home/qwerty/github/datacon2025hack/step_04_hit_selection/docking/ligands/lig_210.pdb
REMARK  6 active torsions:
REMARK  status: ('A' for Active; 'I' for Inactive)
REMARK    1  A    between atoms: C1_1  and  C2_2
REMARK    2  A    between atoms: C10_10  and  N1_11
REMARK    3  A    between atoms: C11_12  and  C12_14
REMARK    4  A    between atoms: C16_18  and  C17_19
REMARK    5  A    between atoms: C20_25  and  C21_26
REMARK    6  A    between atoms: C24_29  and  C25_30
REMARK                            x       y       z     vdW  Elec       q    Type
REMARK                         _______ _______ _______ _____ _____    ______ ____
ROOT
ATOM      1  C17 UNL     1       8.728   9.012  28.932  0.00  0.00    +0.090 A 
ATOM      2  C18 UNL     1       8.018   9.435  30.099  0.00  0.00    +0.141 A 
ATOM      3  N2  UNL     1       7.215   8.557  30.776  0.00  0.00    -0.233 NA
ATOM      4  C19 UNL     1       7.125   7.291  30.309  0.00  0.00    +0.175 A 
ATOM      5  N3  UNL     1       6.376   6.290  30.791  0.00  0.00    -0.258 N 
ATOM      6  N4  UNL     1       6.546   5.234  29.997  0.00  0.00    -0.168 NA
ATOM      7  C20 UNL     1       7.415   5.573  29.006  0.00  0.00    +0.136 A 
ATOM      8  C34 UNL     1       7.785   6.886  29.203  0.00  0.00    +0.137 A 
ATOM      9  N7  UNL     1       8.581   7.720  28.496  0.00  0.00    -0.240 NA
ATOM     10  H17 UNL     1       5.751   6.314  31.626  0.00  0.00    +0.191 HD
ENDROOT
BRANCH   7  11
ATOM     11  C21 UNL     1       7.823   4.667  27.919  0.00  0.00    +0.070 A 
ATOM     12  C22 UNL     1       7.826   5.006  26.569  0.00  0.00    +0.040 A 
ATOM     13  C23 UNL     1       8.279   3.877  25.914  0.00  0.00    +0.026 A 
ATOM     14  C24 UNL     1       8.473   3.594  24.554  0.00  0.00    +0.080 A 
ATOM     15  N5  UNL     1       8.869   2.326  24.221  0.00  0.00    -0.254 NA
ATOM     16  C31 UNL     1       9.094   1.357  25.162  0.00  0.00    +0.113 A 
ATOM     17  C32 UNL     1       8.921   1.636  26.528  0.00  0.00    +0.046 A 
ATOM     18  C33 UNL     1       8.504   2.920  26.867  0.00  0.00    +0.050 A 
ATOM     19  N6  UNL     1       8.239   3.389  28.097  0.00  0.00    -0.353 N 
ATOM     20  H24 UNL     1       8.319   2.860  28.993  0.00  0.00    +0.166 HD
BRANCH  14  21
ATOM     21  C25 UNL     1       8.269   4.600  23.490  0.00  0.00    +0.006 A 
ATOM     22  C26 UNL     1       8.647   5.941  23.682  0.00  0.00    +0.048 A 
ATOM     23  C27 UNL     1       8.466   6.878  22.661  0.00  0.00    +0.127 A 
ATOM     24  F1  UNL     1       8.834   8.170  22.853  0.00  0.00    -0.205 F 
ATOM     25  C28 UNL     1       7.918   6.484  21.438  0.00  0.00    +0.076 A 
ATOM     26  C29 UNL     1       7.556   5.149  21.231  0.00  0.00    +0.127 A 
ATOM     27  F2  UNL     1       7.030   4.768  20.042  0.00  0.00    -0.205 F 
ATOM     28  C30 UNL     1       7.738   4.208  22.250  0.00  0.00    +0.048 A 
ENDBRANCH  14  21
ENDBRANCH   7  11
BRANCH   1  33
ATOM     29  C12 UNL     1      11.213  10.377  26.377  0.00  0.00    +0.037 A 
ATOM     30  C13 UNL     1      11.214  11.737  26.726  0.00  0.00    +0.013 A 
ATOM     31  C14 UNL     1      10.424  12.197  27.780  0.00  0.00    +0.001 A 
ATOM     32  C15 UNL     1       9.623  11.307  28.497  0.00  0.00    +0.010 A 
ATOM     33  C16 UNL     1       9.599   9.941  28.166  0.00  0.00    +0.003 A 
ATOM     34  C35 UNL     1      10.387   9.489  27.089  0.00  0.00    +0.023 A 
BRANCH  29  36
ATOM     35  N1  UNL     1      11.504   9.730  23.938  0.00  0.00    -0.305 N 
ATOM     36  C11 UNL     1      12.054   9.900  25.256  0.00  0.00    +0.245 C 
ATOM     37  O1  UNL     1      13.266   9.618  25.468  0.00  0.00    -0.270 OA
ATOM     38  H12 UNL     1      10.474   9.844  23.796  0.00  0.00    +0.150 HD
BRANCH  35  48
ATOM     39  C1  UNL     1      11.288   4.410  20.251  0.00  0.00    +0.044 C 
ATOM     40  C2  UNL     1      11.555   5.708  20.954  0.00  0.00    -0.050 A 
ATOM     41  C3  UNL     1      12.130   5.704  22.242  0.00  0.00    +0.004 A 
ATOM     42  C4  UNL     1      12.414   6.912  22.896  0.00  0.00    +0.006 A 
ATOM     43  C5  UNL     1      12.128   8.114  22.243  0.00  0.00    -0.024 A 
ATOM     44  C6  UNL     1      11.584   8.124  20.983  0.00  0.00    -0.042 A 
ATOM     45  C7  UNL     1      11.290   6.934  20.313  0.00  0.00    +0.007 A 
ATOM     46  C8  UNL     1      11.364   9.499  20.481  0.00  0.00    +0.037 C 
ATOM     47  C9  UNL     1      11.937  10.402  21.592  0.00  0.00    +0.032 C 
ATOM     48  C10 UNL     1      12.350   9.486  22.767  0.00  0.00    +0.104 C 
ENDBRANCH  35  48
ENDBRANCH  29  36
ENDBRANCH   1  33
TORSDOF 5
ENDMDL
MODEL 9
REMARK VINA RESULT:    -9.763     10.573     12.591
REMARK INTER + INTRA:         -13.875
REMARK INTER:                 -12.277
REMARK INTRA:                  -1.598
REMARK UNBOUND:                -1.258
REMARK  Name = /home/qwerty/github/datacon2025hack/step_04_hit_selection/docking/ligands/lig_210.pdb
REMARK  6 active torsions:
REMARK  status: ('A' for Active; 'I' for Inactive)
REMARK    1  A    between atoms: C1_1  and  C2_2
REMARK    2  A    between atoms: C10_10  and  N1_11
REMARK    3  A    between atoms: C11_12  and  C12_14
REMARK    4  A    between atoms: C16_18  and  C17_19
REMARK    5  A    between atoms: C20_25  and  C21_26
REMARK    6  A    between atoms: C24_29  and  C25_30
REMARK                            x       y       z     vdW  Elec       q    Type
REMARK                         _______ _______ _______ _____ _____    ______ ____
ROOT
ATOM      1  C17 UNL     1      12.156  13.179  31.975  0.00  0.00    +0.090 A 
ATOM      2  C18 UNL     1      12.882  14.393  31.757  0.00  0.00    +0.141 A 
ATOM      3  N2  UNL     1      12.768  15.062  30.569  0.00  0.00    -0.233 NA
ATOM      4  C19 UNL     1      11.951  14.544  29.624  0.00  0.00    +0.175 A 
ATOM      5  N3  UNL     1      11.722  15.011  28.390  0.00  0.00    -0.258 N 
ATOM      6  N4  UNL     1      10.896  14.164  27.779  0.00  0.00    -0.168 NA
ATOM      7  C20 UNL     1      10.597  13.154  28.640  0.00  0.00    +0.136 A 
ATOM      8  C34 UNL     1      11.270  13.394  29.818  0.00  0.00    +0.137 A 
ATOM      9  N7  UNL     1      11.359  12.692  30.972  0.00  0.00    -0.240 NA
ATOM     10  H17 UNL     1      12.122  15.872  27.957  0.00  0.00    +0.191 HD
ENDROOT
BRANCH   7  11
ATOM     11  C21 UNL     1       9.731  12.011  28.304  0.00  0.00    +0.070 A 
ATOM     12  C22 UNL     1       9.529  11.526  27.016  0.00  0.00    +0.040 A 
ATOM     13  C23 UNL     1       8.662  10.460  27.162  0.00  0.00    +0.026 A 
ATOM     14  C24 UNL     1       8.073   9.592  26.231  0.00  0.00    +0.080 A 
ATOM     15  N5  UNL     1       7.181   8.668  26.702  0.00  0.00    -0.254 NA
ATOM     16  C31 UNL     1       6.870   8.559  28.031  0.00  0.00    +0.113 A 
ATOM     17  C32 UNL     1       7.469   9.410  28.975  0.00  0.00    +0.046 A 
ATOM     18  C33 UNL     1       8.366  10.361  28.495  0.00  0.00    +0.050 A 
ATOM     19  N6  UNL     1       9.017  11.295  29.208  0.00  0.00    -0.353 N 
ATOM     20  H24 UNL     1       8.958  11.441  30.239  0.00  0.00    +0.166 HD
BRANCH  14  21
ATOM     21  C25 UNL     1       8.381   9.642  24.785  0.00  0.00    +0.006 A 
ATOM     22  C26 UNL     1       7.638  10.462  23.917  0.00  0.00    +0.048 A 
ATOM     23  C27 UNL     1       7.951  10.514  22.556  0.00  0.00    +0.127 A 
ATOM     24  F1  UNL     1       7.231  11.308  21.724  0.00  0.00    -0.205 F 
ATOM     25  C28 UNL     1       9.013   9.759  22.052  0.00  0.00    +0.076 A 
ATOM     26  C29 UNL     1       9.769   8.955  22.911  0.00  0.00    +0.127 A 
ATOM     27  F2  UNL     1      10.802   8.227  22.421  0.00  0.00    -0.205 F 
ATOM     28  C30 UNL     1       9.460   8.902  24.274  0.00  0.00    +0.048 A 
ENDBRANCH  14  21
ENDBRANCH   7  11
BRANCH   1  33
ATOM     29  C12 UNL     1      13.429  11.904  35.340  0.00  0.00    +0.037 A 
ATOM     30  C13 UNL     1      12.423  10.978  35.657  0.00  0.00    +0.013 A 
ATOM     31  C14 UNL     1      11.353  10.770  34.786  0.00  0.00    +0.001 A 
ATOM     32  C15 UNL     1      11.275  11.484  33.588  0.00  0.00    +0.010 A 
ATOM     33  C16 UNL     1      12.266  12.420  33.248  0.00  0.00    +0.003 A 
ATOM     34  C35 UNL     1      13.333  12.636  34.142  0.00  0.00    +0.023 A 
BRANCH  29  36
ATOM     35  N1  UNL     1      15.758  11.331  36.174  0.00  0.00    -0.305 N 
ATOM     36  C11 UNL     1      14.559  12.119  36.272  0.00  0.00    +0.245 C 
ATOM     37  O1  UNL     1      14.456  12.991  37.179  0.00  0.00    -0.270 OA
ATOM     38  H12 UNL     1      15.788  10.528  35.505  0.00  0.00    +0.150 HD
BRANCH  35  48
ATOM     39  C1  UNL     1      20.575   7.202  37.476  0.00  0.00    +0.044 C 
ATOM     40  C2  UNL     1      19.597   8.330  37.337  0.00  0.00    -0.050 A 
ATOM     41  C3  UNL     1      18.358   8.273  38.010  0.00  0.00    +0.004 A 
ATOM     42  C4  UNL     1      17.448   9.337  37.913  0.00  0.00    +0.006 A 
ATOM     43  C5  UNL     1      17.797  10.453  37.148  0.00  0.00    -0.024 A 
ATOM     44  C6  UNL     1      19.007  10.521  36.504  0.00  0.00    -0.042 A 
ATOM     45  C7  UNL     1      19.928   9.474  36.584  0.00  0.00    +0.007 A 
ATOM     46  C8  UNL     1      19.170  11.788  35.755  0.00  0.00    +0.037 C 
ATOM     47  C9  UNL     1      17.893  12.587  36.085  0.00  0.00    +0.032 C 
ATOM     48  C10 UNL     1      16.973  11.667  36.921  0.00  0.00    +0.104 C 
ENDBRANCH  35  48
ENDBRANCH  29  36
ENDBRANCH   1  33
TORSDOF 5
ENDMDL
