MODEL 1
REMARK VINA RESULT:    -6.948      0.000      0.000
REMARK INTER + INTRA:          -8.325
REMARK INTER:                  -8.573
REMARK INTRA:                   0.248
REMARK UNBOUND:                 0.248
REMARK  Name = /home/qwerty/github/datacon2025hack/step_04_hit_selection/docking/ligands/lig_523.pdb
REMARK  7 active torsions:
REMARK  status: ('A' for Active; 'I' for Inactive)
REMARK    1  A    between atoms: C1_1  and  O1_2
REMARK    2  A    between atoms: O1_2  and  C2_3
REMARK    3  A    between atoms: C2_3  and  C3_5
REMARK    4  A    between atoms: C8_10  and  N1_11
REMARK    5  A    between atoms: N2_14  and  C10_15
REMARK    6  A    between atoms: C13_18  and  C14_19
REMARK    7  A    between atoms: C13_18  and  C15_20
REMARK                            x       y       z     vdW  Elec       q    Type
REMARK                         _______ _______ _______ _____ _____    ______ ____
ROOT
ATOM      1  N1  UNL     1      21.773   3.191  33.686  0.00  0.00    -0.296 N 
ATOM      2  C9  UNL     1      22.246   4.543  33.602  0.00  0.00    +0.300 C 
ATOM      3  O3  UNL     1      22.051   5.218  32.555  0.00  0.00    -0.253 OA
ATOM      4  N2  UNL     1      22.944   5.122  34.714  0.00  0.00    -0.297 N 
ATOM      5  H12 UNL     1      22.015   2.638  34.539  0.00  0.00    +0.151 HD
ATOM      6  H13 UNL     1      22.995   4.569  35.600  0.00  0.00    +0.151 HD
ENDROOT
BRANCH   1  12
ATOM      7  C3  UNL     1      21.187   1.711  28.262  0.00  0.00    +0.103 C 
ATOM      8  C4  UNL     1      20.291   2.139  29.423  0.00  0.00    +0.050 C 
ATOM      9  C5  UNL     1      21.169   1.332  30.396  0.00  0.00    +0.073 C 
ATOM     10  C6  UNL     1      22.063   0.908  29.224  0.00  0.00    +0.050 C 
ATOM     11  C7  UNL     1      21.937   2.168  31.447  0.00  0.00    +0.057 C 
ATOM     12  C8  UNL     1      21.011   2.559  32.605  0.00  0.00    +0.079 C 
ATOM     13  C18 UNL     1      20.292   1.307  33.123  0.00  0.00    +0.050 C 
ATOM     14  C19 UNL     1      19.592   0.592  31.962  0.00  0.00    +0.162 C 
ATOM     15  O4  UNL     1      20.511   0.203  30.954  0.00  0.00    -0.373 OA
BRANCH   7  16
ATOM     16  C2  UNL     1      21.902   2.852  27.590  0.00  0.00    +0.310 C 
ATOM     17  O2  UNL     1      21.867   4.012  28.087  0.00  0.00    -0.251 OA
BRANCH  16  19
ATOM     18  C1  UNL     1      22.660   3.549  25.341  0.00  0.00    +0.280 C 
ATOM     19  O1  UNL     1      22.606   2.609  26.407  0.00  0.00    -0.468 OA
ENDBRANCH  16  19
ENDBRANCH   7  16
ENDBRANCH   1  12
BRANCH   4  20
ATOM     20  C10 UNL     1      23.368   6.526  34.735  0.00  0.00    +0.074 C 
ATOM     21  C11 UNL     1      22.305   7.408  34.037  0.00  0.00    +0.023 C 
ATOM     22  C12 UNL     1      22.925   8.695  33.481  0.00  0.00    +0.008 C 
ATOM     23  C13 UNL     1      23.993   8.400  32.378  0.00  0.00    -0.035 C 
ATOM     24  C14 UNL     1      23.315   8.385  30.992  0.00  0.00    +0.011 C 
ATOM     25  C15 UNL     1      25.047   9.529  32.389  0.00  0.00    +0.011 C 
ATOM     26  C16 UNL     1      24.696   7.024  32.614  0.00  0.00    +0.008 C 
ATOM     27  C17 UNL     1      24.774   6.663  34.102  0.00  0.00    +0.023 C 
ENDBRANCH   4  20
TORSDOF 4
ENDMDL
MODEL 2
REMARK VINA RESULT:    -6.930     14.936     17.416
REMARK INTER + INTRA:          -8.303
REMARK INTER:                  -7.864
REMARK INTRA:                  -0.439
REMARK UNBOUND:                 0.248
REMARK  Name = /home/qwerty/github/datacon2025hack/step_04_hit_selection/docking/ligands/lig_523.pdb
REMARK  7 active torsions:
REMARK  status: ('A' for Active; 'I' for Inactive)
REMARK    1  A    between atoms: C1_1  and  O1_2
REMARK    2  A    between atoms: O1_2  and  C2_3
REMARK    3  A    between atoms: C2_3  and  C3_5
REMARK    4  A    between atoms: C8_10  and  N1_11
REMARK    5  A    between atoms: N2_14  and  C10_15
REMARK    6  A    between atoms: C13_18  and  C14_19
REMARK    7  A    between atoms: C13_18  and  C15_20
REMARK                            x       y       z     vdW  Elec       q    Type
REMARK                         _______ _______ _______ _____ _____    ______ ____
ROOT
ATOM      1  N1  UNL     1       7.842   9.869  25.973  0.00  0.00    -0.296 N 
ATOM      2  C9  UNL     1       8.711   9.160  25.079  0.00  0.00    +0.300 C 
ATOM      3  O3  UNL     1       9.868   8.826  25.454  0.00  0.00    -0.253 OA
ATOM      4  N2  UNL     1       8.259   8.835  23.757  0.00  0.00    -0.297 N 
ATOM      5  H12 UNL     1       6.918  10.193  25.606  0.00  0.00    +0.151 HD
ATOM      6  H13 UNL     1       7.261   9.035  23.519  0.00  0.00    +0.151 HD
ENDROOT
BRANCH   1  12
ATOM      7  C3  UNL     1       9.975  13.426  29.814  0.00  0.00    +0.103 C 
ATOM      8  C4  UNL     1       9.940  11.920  29.559  0.00  0.00    +0.050 C 
ATOM      9  C5  UNL     1       8.491  12.039  29.058  0.00  0.00    +0.073 C 
ATOM     10  C6  UNL     1       8.535  13.551  29.315  0.00  0.00    +0.050 C 
ATOM     11  C7  UNL     1       8.276  11.706  27.562  0.00  0.00    +0.057 C 
ATOM     12  C8  UNL     1       8.225  10.188  27.352  0.00  0.00    +0.079 C 
ATOM     13  C18 UNL     1       7.224   9.573  28.338  0.00  0.00    +0.050 C 
ATOM     14  C19 UNL     1       7.570  10.006  29.766  0.00  0.00    +0.162 C 
ATOM     15  O4  UNL     1       7.539  11.417  29.910  0.00  0.00    -0.373 OA
BRANCH   7  16
ATOM     16  C2  UNL     1      10.981  14.165  28.971  0.00  0.00    +0.310 C 
ATOM     17  O2  UNL     1      10.784  14.328  27.735  0.00  0.00    -0.251 OA
BRANCH  16  19
ATOM     18  C1  UNL     1      12.349  14.613  30.983  0.00  0.00    +0.280 C 
ATOM     19  O1  UNL     1      12.136  14.667  29.578  0.00  0.00    -0.468 OA
ENDBRANCH  16  19
ENDBRANCH   7  16
ENDBRANCH   1  12
BRANCH   4  20
ATOM     20  C10 UNL     1       9.055   8.027  22.827  0.00  0.00    +0.074 C 
ATOM     21  C11 UNL     1       8.533   8.217  21.383  0.00  0.00    +0.023 C 
ATOM     22  C12 UNL     1       8.862   7.003  20.506  0.00  0.00    +0.008 C 
ATOM     23  C13 UNL     1       8.164   5.703  21.021  0.00  0.00    -0.035 C 
ATOM     24  C14 UNL     1       6.788   5.550  20.339  0.00  0.00    +0.011 C 
ATOM     25  C15 UNL     1       9.031   4.485  20.637  0.00  0.00    +0.011 C 
ATOM     26  C16 UNL     1       7.961   5.736  22.570  0.00  0.00    +0.008 C 
ATOM     27  C17 UNL     1       9.053   6.545  23.278  0.00  0.00    +0.023 C 
ENDBRANCH   4  20
TORSDOF 4
ENDMDL
MODEL 3
REMARK VINA RESULT:    -6.705      5.397     10.362
REMARK INTER + INTRA:          -8.026
REMARK INTER:                  -8.269
REMARK INTRA:                   0.243
REMARK UNBOUND:                 0.248
REMARK  Name = /home/qwerty/github/datacon2025hack/step_04_hit_selection/docking/ligands/lig_523.pdb
REMARK  7 active torsions:
REMARK  status: ('A' for Active; 'I' for Inactive)
REMARK    1  A    between atoms: C1_1  and  O1_2
REMARK    2  A    between atoms: O1_2  and  C2_3
REMARK    3  A    between atoms: C2_3  and  C3_5
REMARK    4  A    between atoms: C8_10  and  N1_11
REMARK    5  A    between atoms: N2_14  and  C10_15
REMARK    6  A    between atoms: C13_18  and  C14_19
REMARK    7  A    between atoms: C13_18  and  C15_20
REMARK                            x       y       z     vdW  Elec       q    Type
REMARK                         _______ _______ _______ _____ _____    ______ ____
ROOT
ATOM      1  N1  UNL     1      20.174   0.964  24.531  0.00  0.00    -0.296 N 
ATOM      2  C9  UNL     1      18.880   0.346  24.533  0.00  0.00    +0.300 C 
ATOM      3  O3  UNL     1      18.110   0.492  25.521  0.00  0.00    -0.253 OA
ATOM      4  N2  UNL     1      18.466  -0.441  23.406  0.00  0.00    -0.297 N 
ATOM      5  H12 UNL     1      20.813   0.762  23.728  0.00  0.00    +0.151 HD
ATOM      6  H13 UNL     1      19.086  -0.453  22.565  0.00  0.00    +0.151 HD
ENDROOT
BRANCH   1  12
ATOM      7  C3  UNL     1      21.188   1.845  30.022  0.00  0.00    +0.103 C 
ATOM      8  C4  UNL     1      20.743   2.657  28.806  0.00  0.00    +0.050 C 
ATOM      9  C5  UNL     1      21.713   1.858  27.919  0.00  0.00    +0.073 C 
ATOM     10  C6  UNL     1      22.152   1.046  29.145  0.00  0.00    +0.050 C 
ATOM     11  C7  UNL     1      21.048   0.972  26.838  0.00  0.00    +0.057 C 
ATOM     12  C8  UNL     1      20.636   1.819  25.628  0.00  0.00    +0.079 C 
ATOM     13  C18 UNL     1      21.831   2.667  25.174  0.00  0.00    +0.050 C 
ATOM     14  C19 UNL     1      22.376   3.472  26.358  0.00  0.00    +0.162 C 
ATOM     15  O4  UNL     1      22.796   2.629  27.419  0.00  0.00    -0.373 OA
BRANCH   7  16
ATOM     16  C2  UNL     1      20.091   1.016  30.637  0.00  0.00    +0.310 C 
ATOM     17  O2  UNL     1      18.952   0.958  30.097  0.00  0.00    -0.251 OA
BRANCH  16  19
ATOM     18  C1  UNL     1      19.333  -0.030  32.746  0.00  0.00    +0.280 C 
ATOM     19  O1  UNL     1      20.353   0.312  31.815  0.00  0.00    -0.468 OA
ENDBRANCH  16  19
ENDBRANCH   7  16
ENDBRANCH   1  12
BRANCH   4  20
ATOM     20  C10 UNL     1      17.122  -1.018  23.298  0.00  0.00    +0.074 C 
ATOM     21  C11 UNL     1      16.078  -0.040  23.889  0.00  0.00    +0.023 C 
ATOM     22  C12 UNL     1      14.828  -0.783  24.372  0.00  0.00    +0.008 C 
ATOM     23  C13 UNL     1      15.151  -1.778  25.533  0.00  0.00    -0.035 C 
ATOM     24  C14 UNL     1      14.985  -1.062  26.890  0.00  0.00    +0.011 C 
ATOM     25  C15 UNL     1      14.147  -2.950  25.480  0.00  0.00    +0.011 C 
ATOM     26  C16 UNL     1      16.609  -2.331  25.426  0.00  0.00    +0.008 C 
ATOM     27  C17 UNL     1      17.090  -2.412  23.973  0.00  0.00    +0.023 C 
ENDBRANCH   4  20
TORSDOF 4
ENDMDL
MODEL 4
REMARK VINA RESULT:    -6.681     14.925     17.105
REMARK INTER + INTRA:          -7.995
REMARK INTER:                  -8.167
REMARK INTRA:                   0.171
REMARK UNBOUND:                 0.248
REMARK  Name = /home/qwerty/github/datacon2025hack/step_04_hit_selection/docking/ligands/lig_523.pdb
REMARK  7 active torsions:
REMARK  status: ('A' for Active; 'I' for Inactive)
REMARK    1  A    between atoms: C1_1  and  O1_2
REMARK    2  A    between atoms: O1_2  and  C2_3
REMARK    3  A    between atoms: C2_3  and  C3_5
REMARK    4  A    between atoms: C8_10  and  N1_11
REMARK    5  A    between atoms: N2_14  and  C10_15
REMARK    6  A    between atoms: C13_18  and  C14_19
REMARK    7  A    between atoms: C13_18  and  C15_20
REMARK                            x       y       z     vdW  Elec       q    Type
REMARK                         _______ _______ _______ _____ _____    ______ ____
ROOT
ATOM      1  N1  UNL     1       7.430  10.222  25.829  0.00  0.00    -0.296 N 
ATOM      2  C9  UNL     1       8.079   9.840  24.609  0.00  0.00    +0.300 C 
ATOM      3  O3  UNL     1       9.326   9.650  24.587  0.00  0.00    -0.253 OA
ATOM      4  N2  UNL     1       7.304   9.676  23.412  0.00  0.00    -0.297 N 
ATOM      5  H12 UNL     1       6.409  10.441  25.794  0.00  0.00    +0.151 HD
ATOM      6  H13 UNL     1       6.264   9.739  23.492  0.00  0.00    +0.151 HD
ENDROOT
BRANCH   1  12
ATOM      7  C3  UNL     1      10.383  13.316  29.526  0.00  0.00    +0.103 C 
ATOM      8  C4  UNL     1      10.337  11.868  29.041  0.00  0.00    +0.050 C 
ATOM      9  C5  UNL     1       8.802  11.945  28.959  0.00  0.00    +0.073 C 
ATOM     10  C6  UNL     1       8.858  13.399  29.445  0.00  0.00    +0.050 C 
ATOM     11  C7  UNL     1       8.207  11.826  27.536  0.00  0.00    +0.057 C 
ATOM     12  C8  UNL     1       8.158  10.358  27.095  0.00  0.00    +0.079 C 
ATOM     13  C18 UNL     1       7.481   9.524  28.189  0.00  0.00    +0.050 C 
ATOM     14  C19 UNL     1       8.181   9.762  29.531  0.00  0.00    +0.162 C 
ATOM     15  O4  UNL     1       8.138  11.127  29.912  0.00  0.00    -0.373 OA
BRANCH   7  16
ATOM     16  C2  UNL     1      11.098  14.251  28.588  0.00  0.00    +0.310 C 
ATOM     17  O2  UNL     1      10.772  14.310  27.369  0.00  0.00    -0.251 OA
BRANCH  16  19
ATOM     18  C1  UNL     1      12.852  14.729  30.264  0.00  0.00    +0.280 C 
ATOM     19  O1  UNL     1      12.128  15.055  29.085  0.00  0.00    -0.468 OA
ENDBRANCH  16  19
ENDBRANCH   7  16
ENDBRANCH   1  12
BRANCH   4  20
ATOM     20  C10 UNL     1       7.885   9.191  22.156  0.00  0.00    +0.074 C 
ATOM     21  C11 UNL     1       9.024   8.186  22.454  0.00  0.00    +0.023 C 
ATOM     22  C12 UNL     1      10.038   8.134  21.305  0.00  0.00    +0.008 C 
ATOM     23  C13 UNL     1      10.755   9.507  21.096  0.00  0.00    -0.035 C 
ATOM     24  C14 UNL     1      12.044   9.552  21.943  0.00  0.00    +0.011 C 
ATOM     25  C15 UNL     1      11.150   9.643  19.609  0.00  0.00    +0.011 C 
ATOM     26  C16 UNL     1       9.836  10.703  21.506  0.00  0.00    +0.008 C 
ATOM     27  C17 UNL     1       8.351  10.390  21.292  0.00  0.00    +0.023 C 
ENDBRANCH   4  20
TORSDOF 4
ENDMDL
MODEL 5
REMARK VINA RESULT:    -6.628     13.503     15.054
REMARK INTER + INTRA:          -7.931
REMARK INTER:                  -8.154
REMARK INTRA:                   0.223
REMARK UNBOUND:                 0.248
REMARK  Name = /home/qwerty/github/datacon2025hack/step_04_hit_selection/docking/ligands/lig_523.pdb
REMARK  7 active torsions:
REMARK  status: ('A' for Active; 'I' for Inactive)
REMARK    1  A    between atoms: C1_1  and  O1_2
REMARK    2  A    between atoms: O1_2  and  C2_3
REMARK    3  A    between atoms: C2_3  and  C3_5
REMARK    4  A    between atoms: C8_10  and  N1_11
REMARK    5  A    between atoms: N2_14  and  C10_15
REMARK    6  A    between atoms: C13_18  and  C14_19
REMARK    7  A    between atoms: C13_18  and  C15_20
REMARK                            x       y       z     vdW  Elec       q    Type
REMARK                         _______ _______ _______ _____ _____    ______ ____
ROOT
ATOM      1  N1  UNL     1      11.977  14.811  31.165  0.00  0.00    -0.296 N 
ATOM      2  C9  UNL     1      12.124  14.139  32.424  0.00  0.00    +0.300 C 
ATOM      3  O3  UNL     1      11.956  12.891  32.498  0.00  0.00    -0.253 OA
ATOM      4  N2  UNL     1      12.460  14.893  33.597  0.00  0.00    -0.297 N 
ATOM      5  H12 UNL     1      12.052  15.853  31.153  0.00  0.00    +0.151 HD
ATOM      6  H13 UNL     1      12.693  15.905  33.477  0.00  0.00    +0.151 HD
ENDROOT
BRANCH   1  12
ATOM      7  C3  UNL     1       8.735  11.321  28.120  0.00  0.00    +0.103 C 
ATOM      8  C4  UNL     1      10.218  11.670  28.247  0.00  0.00    +0.050 C 
ATOM      9  C5  UNL     1       9.851  13.151  28.450  0.00  0.00    +0.073 C 
ATOM     10  C6  UNL     1       8.365  12.791  28.322  0.00  0.00    +0.050 C 
ATOM     11  C7  UNL     1      10.194  13.735  29.841  0.00  0.00    +0.057 C 
ATOM     12  C8  UNL     1      11.684  14.091  29.921  0.00  0.00    +0.079 C 
ATOM     13  C18 UNL     1      12.065  14.949  28.708  0.00  0.00    +0.050 C 
ATOM     14  C19 UNL     1      11.651  14.236  27.417  0.00  0.00    +0.162 C 
ATOM     15  O4  UNL     1      10.255  13.990  27.377  0.00  0.00    -0.373 OA
BRANCH   7  16
ATOM     16  C2  UNL     1       8.228  10.408  29.203  0.00  0.00    +0.310 C 
ATOM     17  O2  UNL     1       8.839  10.317  30.304  0.00  0.00    -0.251 OA
BRANCH  16  19
ATOM     18  C1  UNL     1       6.937   8.305  29.383  0.00  0.00    +0.280 C 
ATOM     19  O1  UNL     1       7.069   9.660  28.973  0.00  0.00    -0.468 OA
ENDBRANCH  16  19
ENDBRANCH   7  16
ENDBRANCH   1  12
BRANCH   4  20
ATOM     20  C10 UNL     1      12.722  14.259  34.894  0.00  0.00    +0.074 C 
ATOM     21  C11 UNL     1      13.427  12.897  34.683  0.00  0.00    +0.023 C 
ATOM     22  C12 UNL     1      13.168  11.947  35.858  0.00  0.00    +0.008 C 
ATOM     23  C13 UNL     1      11.651  11.600  36.006  0.00  0.00    -0.035 C 
ATOM     24  C14 UNL     1      11.330  10.330  35.190  0.00  0.00    +0.011 C 
ATOM     25  C15 UNL     1      11.349  11.309  37.492  0.00  0.00    +0.011 C 
ATOM     26  C16 UNL     1      10.743  12.768  35.505  0.00  0.00    +0.008 C 
ATOM     27  C17 UNL     1      11.404  14.137  35.699  0.00  0.00    +0.023 C 
ENDBRANCH   4  20
TORSDOF 4
ENDMDL
MODEL 6
REMARK VINA RESULT:    -6.562     14.645     15.926
REMARK INTER + INTRA:          -7.849
REMARK INTER:                  -7.361
REMARK INTRA:                  -0.488
REMARK UNBOUND:                 0.248
REMARK  Name = /home/qwerty/github/datacon2025hack/step_04_hit_selection/docking/ligands/lig_523.pdb
REMARK  7 active torsions:
REMARK  status: ('A' for Active; 'I' for Inactive)
REMARK    1  A    between atoms: C1_1  and  O1_2
REMARK    2  A    between atoms: O1_2  and  C2_3
REMARK    3  A    between atoms: C2_3  and  C3_5
REMARK    4  A    between atoms: C8_10  and  N1_11
REMARK    5  A    between atoms: N2_14  and  C10_15
REMARK    6  A    between atoms: C13_18  and  C14_19
REMARK    7  A    between atoms: C13_18  and  C15_20
REMARK                            x       y       z     vdW  Elec       q    Type
REMARK                         _______ _______ _______ _____ _____    ______ ____
ROOT
ATOM      1  N1  UNL     1       8.482   9.087  23.872  0.00  0.00    -0.296 N 
ATOM      2  C9  UNL     1       9.063   9.250  25.173  0.00  0.00    +0.300 C 
ATOM      3  O3  UNL     1      10.134   8.653  25.467  0.00  0.00    -0.253 OA
ATOM      4  N2  UNL     1       8.417  10.092  26.139  0.00  0.00    -0.297 N 
ATOM      5  H12 UNL     1       7.557   9.537  23.687  0.00  0.00    +0.151 HD
ATOM      6  H13 UNL     1       7.591  10.649  25.826  0.00  0.00    +0.151 HD
ENDROOT
BRANCH   1  12
ATOM      7  C3  UNL     1       9.350   4.132  21.292  0.00  0.00    +0.103 C 
ATOM      8  C4  UNL     1      10.137   5.406  21.595  0.00  0.00    +0.050 C 
ATOM      9  C5  UNL     1       8.875   6.247  21.337  0.00  0.00    +0.073 C 
ATOM     10  C6  UNL     1       8.092   4.962  21.036  0.00  0.00    +0.050 C 
ATOM     11  C7  UNL     1       8.315   6.999  22.568  0.00  0.00    +0.057 C 
ATOM     12  C8  UNL     1       9.117   8.281  22.825  0.00  0.00    +0.079 C 
ATOM     13  C18 UNL     1       9.218   9.084  21.522  0.00  0.00    +0.050 C 
ATOM     14  C19 UNL     1       9.778   8.196  20.406  0.00  0.00    +0.162 C 
ATOM     15  O4  UNL     1       8.959   7.062  20.176  0.00  0.00    -0.373 OA
BRANCH   7  16
ATOM     16  C2  UNL     1       9.236   3.193  22.463  0.00  0.00    +0.310 C 
ATOM     17  O2  UNL     1       8.444   3.446  23.413  0.00  0.00    -0.251 OA
BRANCH  16  19
ATOM     18  C1  UNL     1       9.685   0.897  23.267  0.00  0.00    +0.280 C 
ATOM     19  O1  UNL     1      10.020   2.036  22.483  0.00  0.00    -0.468 OA
ENDBRANCH  16  19
ENDBRANCH   7  16
ENDBRANCH   1  12
BRANCH   4  20
ATOM     20  C10 UNL     1       9.005  10.382  27.451  0.00  0.00    +0.074 C 
ATOM     21  C11 UNL     1       7.884  10.576  28.500  0.00  0.00    +0.023 C 
ATOM     22  C12 UNL     1       8.354  11.457  29.663  0.00  0.00    +0.008 C 
ATOM     23  C13 UNL     1       8.720  12.902  29.191  0.00  0.00    -0.035 C 
ATOM     24  C14 UNL     1       7.476  13.809  29.291  0.00  0.00    +0.011 C 
ATOM     25  C15 UNL     1       9.810  13.471  30.126  0.00  0.00    +0.011 C 
ATOM     26  C16 UNL     1       9.238  12.909  27.717  0.00  0.00    +0.008 C 
ATOM     27  C17 UNL     1       9.951  11.604  27.348  0.00  0.00    +0.023 C 
ENDBRANCH   4  20
TORSDOF 4
ENDMDL
MODEL 7
REMARK VINA RESULT:    -6.427     14.671     15.682
REMARK INTER + INTRA:          -7.682
REMARK INTER:                  -7.074
REMARK INTRA:                  -0.608
REMARK UNBOUND:                 0.248
REMARK  Name = /home/qwerty/github/datacon2025hack/step_04_hit_selection/docking/ligands/lig_523.pdb
REMARK  7 active torsions:
REMARK  status: ('A' for Active; 'I' for Inactive)
REMARK    1  A    between atoms: C1_1  and  O1_2
REMARK    2  A    between atoms: O1_2  and  C2_3
REMARK    3  A    between atoms: C2_3  and  C3_5
REMARK    4  A    between atoms: C8_10  and  N1_11
REMARK    5  A    between atoms: N2_14  and  C10_15
REMARK    6  A    between atoms: C13_18  and  C14_19
REMARK    7  A    between atoms: C13_18  and  C15_20
REMARK                            x       y       z     vdW  Elec       q    Type
REMARK                         _______ _______ _______ _____ _____    ______ ____
ROOT
ATOM      1  N1  UNL     1       8.684   6.564  26.853  0.00  0.00    -0.296 N 
ATOM      2  C9  UNL     1       8.018   7.833  26.901  0.00  0.00    +0.300 C 
ATOM      3  O3  UNL     1       7.036   8.061  26.142  0.00  0.00    -0.253 OA
ATOM      4  N2  UNL     1       8.474   8.842  27.813  0.00  0.00    -0.297 N 
ATOM      5  H12 UNL     1       9.538   6.435  27.442  0.00  0.00    +0.151 HD
ATOM      6  H13 UNL     1       9.221   8.580  28.496  0.00  0.00    +0.151 HD
ENDROOT
BRANCH   1  12
ATOM      7  C3  UNL     1       7.866   4.376  21.705  0.00  0.00    +0.103 C 
ATOM      8  C4  UNL     1       7.198   4.323  23.079  0.00  0.00    +0.050 C 
ATOM      9  C5  UNL     1       8.583   4.326  23.750  0.00  0.00    +0.073 C 
ATOM     10  C6  UNL     1       9.244   4.380  22.367  0.00  0.00    +0.050 C 
ATOM     11  C7  UNL     1       8.905   5.576  24.602  0.00  0.00    +0.057 C 
ATOM     12  C8  UNL     1       8.236   5.475  25.979  0.00  0.00    +0.079 C 
ATOM     13  C18 UNL     1       8.572   4.117  26.607  0.00  0.00    +0.050 C 
ATOM     14  C19 UNL     1       8.203   2.991  25.636  0.00  0.00    +0.162 C 
ATOM     15  O4  UNL     1       8.900   3.106  24.406  0.00  0.00    -0.373 OA
BRANCH   7  16
ATOM     16  C2  UNL     1       7.558   5.626  20.924  0.00  0.00    +0.310 C 
ATOM     17  O2  UNL     1       6.485   5.724  20.267  0.00  0.00    -0.251 OA
BRANCH  16  19
ATOM     18  C1  UNL     1       8.179   7.951  21.494  0.00  0.00    +0.280 C 
ATOM     19  O1  UNL     1       8.479   6.677  20.937  0.00  0.00    -0.468 OA
ENDBRANCH  16  19
ENDBRANCH   7  16
ENDBRANCH   1  12
BRANCH   4  20
ATOM     20  C10 UNL     1       7.781  10.123  27.985  0.00  0.00    +0.074 C 
ATOM     21  C11 UNL     1       8.403  11.189  27.052  0.00  0.00    +0.023 C 
ATOM     22  C12 UNL     1       8.186  12.605  27.599  0.00  0.00    +0.008 C 
ATOM     23  C13 UNL     1       8.892  12.813  28.978  0.00  0.00    -0.035 C 
ATOM     24  C14 UNL     1      10.320  13.353  28.751  0.00  0.00    +0.011 C 
ATOM     25  C15 UNL     1       8.102  13.863  29.790  0.00  0.00    +0.011 C 
ATOM     26  C16 UNL     1       8.976  11.479  29.786  0.00  0.00    +0.008 C 
ATOM     27  C17 UNL     1       7.805  10.540  29.477  0.00  0.00    +0.023 C 
ENDBRANCH   4  20
TORSDOF 4
ENDMDL
MODEL 8
REMARK VINA RESULT:    -6.381     12.300     14.924
REMARK INTER + INTRA:          -7.625
REMARK INTER:                  -7.208
REMARK INTRA:                  -0.418
REMARK UNBOUND:                 0.248
REMARK  Name = /home/qwerty/github/datacon2025hack/step_04_hit_selection/docking/ligands/lig_523.pdb
REMARK  7 active torsions:
REMARK  status: ('A' for Active; 'I' for Inactive)
REMARK    1  A    between atoms: C1_1  and  O1_2
REMARK    2  A    between atoms: O1_2  and  C2_3
REMARK    3  A    between atoms: C2_3  and  C3_5
REMARK    4  A    between atoms: C8_10  and  N1_11
REMARK    5  A    between atoms: N2_14  and  C10_15
REMARK    6  A    between atoms: C13_18  and  C14_19
REMARK    7  A    between atoms: C13_18  and  C15_20
REMARK                            x       y       z     vdW  Elec       q    Type
REMARK                         _______ _______ _______ _____ _____    ______ ____
ROOT
ATOM      1  N1  UNL     1      13.289   5.921  20.280  0.00  0.00    -0.296 N 
ATOM      2  C9  UNL     1      12.169   5.999  21.173  0.00  0.00    +0.300 C 
ATOM      3  O3  UNL     1      12.131   5.273  22.204  0.00  0.00    -0.253 OA
ATOM      4  N2  UNL     1      11.093   6.903  20.887  0.00  0.00    -0.297 N 
ATOM      5  H12 UNL     1      13.254   6.483  19.399  0.00  0.00    +0.151 HD
ATOM      6  H13 UNL     1      11.209   7.561  20.082  0.00  0.00    +0.151 HD
ENDROOT
BRANCH   1  12
ATOM      7  C3  UNL     1      15.511   0.824  21.300  0.00  0.00    +0.103 C 
ATOM      8  C4  UNL     1      15.785   2.278  21.683  0.00  0.00    +0.050 C 
ATOM      9  C5  UNL     1      15.393   2.725  20.263  0.00  0.00    +0.073 C 
ATOM     10  C6  UNL     1      15.119   1.263  19.889  0.00  0.00    +0.050 C 
ATOM     11  C7  UNL     1      14.121   3.601  20.171  0.00  0.00    +0.057 C 
ATOM     12  C8  UNL     1      14.442   5.054  20.541  0.00  0.00    +0.079 C 
ATOM     13  C18 UNL     1      15.656   5.526  19.732  0.00  0.00    +0.050 C 
ATOM     14  C19 UNL     1      16.821   4.549  19.925  0.00  0.00    +0.162 C 
ATOM     15  O4  UNL     1      16.481   3.237  19.507  0.00  0.00    -0.373 OA
BRANCH   7  16
ATOM     16  C2  UNL     1      14.388   0.189  22.077  0.00  0.00    +0.310 C 
ATOM     17  O2  UNL     1      13.206   0.615  21.959  0.00  0.00    -0.251 OA
BRANCH  16  19
ATOM     18  C1  UNL     1      15.289  -0.699  24.202  0.00  0.00    +0.280 C 
ATOM     19  O1  UNL     1      14.675  -0.878  22.933  0.00  0.00    -0.468 OA
ENDBRANCH  16  19
ENDBRANCH   7  16
ENDBRANCH   1  12
BRANCH   4  20
ATOM     20  C10 UNL     1       9.967   7.106  21.805  0.00  0.00    +0.074 C 
ATOM     21  C11 UNL     1       8.718   7.564  21.015  0.00  0.00    +0.023 C 
ATOM     22  C12 UNL     1       7.758   8.365  21.903  0.00  0.00    +0.008 C 
ATOM     23  C13 UNL     1       8.411   9.684  22.428  0.00  0.00    -0.035 C 
ATOM     24  C14 UNL     1       8.116  10.835  21.444  0.00  0.00    +0.011 C 
ATOM     25  C15 UNL     1       7.784  10.043  23.793  0.00  0.00    +0.011 C 
ATOM     26  C16 UNL     1       9.959   9.536  22.585  0.00  0.00    +0.008 C 
ATOM     27  C17 UNL     1      10.370   8.099  22.924  0.00  0.00    +0.023 C 
ENDBRANCH   4  20
TORSDOF 4
ENDMDL
MODEL 9
REMARK VINA RESULT:    -6.315      1.493      2.140
REMARK INTER + INTRA:          -7.544
REMARK INTER:                  -7.793
REMARK INTRA:                   0.249
REMARK UNBOUND:                 0.248
REMARK  Name = /home/qwerty/github/datacon2025hack/step_04_hit_selection/docking/ligands/lig_523.pdb
REMARK  7 active torsions:
REMARK  status: ('A' for Active; 'I' for Inactive)
REMARK    1  A    between atoms: C1_1  and  O1_2
REMARK    2  A    between atoms: O1_2  and  C2_3
REMARK    3  A    between atoms: C2_3  and  C3_5
REMARK    4  A    between atoms: C8_10  and  N1_11
REMARK    5  A    between atoms: N2_14  and  C10_15
REMARK    6  A    between atoms: C13_18  and  C14_19
REMARK    7  A    between atoms: C13_18  and  C15_20
REMARK                            x       y       z     vdW  Elec       q    Type
REMARK                         _______ _______ _______ _____ _____    ______ ____
ROOT
ATOM      1  N1  UNL     1      22.454   3.582  33.185  0.00  0.00    -0.296 N 
ATOM      2  C9  UNL     1      22.118   4.829  33.809  0.00  0.00    +0.300 C 
ATOM      3  O3  UNL     1      20.984   5.347  33.617  0.00  0.00    -0.253 OA
ATOM      4  N2  UNL     1      23.078   5.485  34.649  0.00  0.00    -0.297 N 
ATOM      5  H12 UNL     1      23.426   3.218  33.307  0.00  0.00    +0.151 HD
ATOM      6  H13 UNL     1      23.965   4.976  34.867  0.00  0.00    +0.151 HD
ENDROOT
BRANCH   1  12
ATOM      7  C3  UNL     1      21.080   0.984  28.356  0.00  0.00    +0.103 C 
ATOM      8  C4  UNL     1      20.382   1.802  29.442  0.00  0.00    +0.050 C 
ATOM      9  C5  UNL     1      21.253   1.120  30.513  0.00  0.00    +0.073 C 
ATOM     10  C6  UNL     1      21.948   0.305  29.415  0.00  0.00    +0.050 C 
ATOM     11  C7  UNL     1      22.235   2.052  31.262  0.00  0.00    +0.057 C 
ATOM     12  C8  UNL     1      21.501   2.838  32.356  0.00  0.00    +0.079 C 
ATOM     13  C18 UNL     1      20.691   1.864  33.221  0.00  0.00    +0.050 C 
ATOM     14  C19 UNL     1      19.780   1.013  32.330  0.00  0.00    +0.162 C 
ATOM     15  O4  UNL     1      20.522   0.265  31.381  0.00  0.00    -0.373 OA
BRANCH   7  16
ATOM     16  C2  UNL     1      21.856   1.816  27.370  0.00  0.00    +0.310 C 
ATOM     17  O2  UNL     1      22.992   2.276  27.673  0.00  0.00    -0.251 OA
BRANCH  16  19
ATOM     18  C1  UNL     1      21.882   2.984  25.190  0.00  0.00    +0.280 C 
ATOM     19  O1  UNL     1      21.300   2.072  26.113  0.00  0.00    -0.468 OA
ENDBRANCH  16  19
ENDBRANCH   7  16
ENDBRANCH   1  12
BRANCH   4  20
ATOM     20  C10 UNL     1      22.768   6.709  35.395  0.00  0.00    +0.074 C 
ATOM     21  C11 UNL     1      21.291   6.684  35.859  0.00  0.00    +0.023 C 
ATOM     22  C12 UNL     1      20.746   8.102  36.064  0.00  0.00    +0.008 C 
ATOM     23  C13 UNL     1      20.738   8.923  34.734  0.00  0.00    -0.035 C 
ATOM     24  C14 UNL     1      19.382   8.738  34.020  0.00  0.00    +0.011 C 
ATOM     25  C15 UNL     1      20.907  10.421  35.070  0.00  0.00    +0.011 C 
ATOM     26  C16 UNL     1      21.883   8.469  33.772  0.00  0.00    +0.008 C 
ATOM     27  C17 UNL     1      23.108   7.953  34.536  0.00  0.00    +0.023 C 
ENDBRANCH   4  20
TORSDOF 4
ENDMDL
