REMARK  Name = /home/qwerty/github/datacon2025hack/step_04_hit_selection/docking/ligands/lig_7.pdb
REMARK  6 active torsions:
REMARK  status: ('A' for Active; 'I' for Inactive)
REMARK    1  A    between atoms: C1_1  and  C2_2
REMARK    2  A    between atoms: C2_2  and  C3_3
REMARK    3  A    between atoms: C3_3  and  C4_4
REMARK    4  A    between atoms: C3_3  and  C5_5
REMARK    5  A    between atoms: C10_13  and  C11_15
REMARK    6  A    between atoms: C13_18  and  C14_19
REMARK                            x       y       z     vdW  Elec       q    Type
REMARK                         _______ _______ _______ _____ _____    ______ ____
ROOT
ATOM      1  C5  UNL     1      -2.698   0.176   0.913  0.00  0.00    +0.218 C 
ATOM      2  O1  UNL     1      -2.467   0.620   2.072  0.00  0.00    -0.275 OA
ATOM      3  N1  UNL     1      -1.589  -0.161   0.046  0.00  0.00    -0.299 N 
ATOM      4  C6  UNL     1      -1.772  -1.105  -1.073  0.00  0.00    +0.108 C 
ATOM      5  C7  UNL     1      -0.429  -1.594  -1.626  0.00  0.00    +0.026 C 
ATOM      6  C8  UNL     1       0.454  -0.382  -1.971  0.00  0.00    +0.030 C 
ATOM      7  C9  UNL     1       1.923  -0.562  -1.729  0.00  0.00    +0.114 C 
ATOM      8  N2  UNL     1       2.030   0.435  -0.642  0.00  0.00    -0.292 N 
ATOM      9  C10 UNL     1       3.016   1.013   0.219  0.00  0.00    +0.255 C 
ATOM     10  O2  UNL     1       2.659   1.905   1.034  0.00  0.00    -0.269 OA
ATOM     11  C15 UNL     1       0.581   0.625  -0.862  0.00  0.00    +0.098 C 
ATOM     12  C16 UNL     1      -0.232   0.288   0.404  0.00  0.00    +0.130 C 
ENDROOT
BRANCH   9  13
ATOM     13  C11 UNL     1       4.434   0.604   0.188  0.00  0.00    +0.094 A 
ATOM     14  C12 UNL     1       5.035  -0.352  -0.632  0.00  0.00    +0.132 A 
ATOM     15  N3  UNL     1       6.369  -0.523  -0.429  0.00  0.00    -0.252 NA
ATOM     16  C13 UNL     1       6.845   0.296   0.533  0.00  0.00    +0.076 A 
ATOM     17  C14 UNL     1       8.258   0.274   1.009  0.00  0.00    +0.073 C 
ATOM     18  S1  UNL     1       5.626   1.243   1.194  0.00  0.00    -0.068 S 
ENDBRANCH   9  13
BRANCH   1  19
ATOM     19  C3  UNL     1      -4.140  -0.018   0.489  0.00  0.00    +0.072 C 
ATOM     20  C4  UNL     1      -4.730  -1.227   1.228  0.00  0.00    +0.017 C 
BRANCH  19  22
ATOM     21  C1  UNL     1      -6.338   1.246   0.120  0.00  0.00    +0.004 C 
ATOM     22  C2  UNL     1      -4.947   1.272   0.756  0.00  0.00    +0.009 C 
ENDBRANCH  19  22
ENDBRANCH   1  19
TORSDOF 3
