REMARK  Name = /home/qwerty/github/datacon2025hack/step_04_hit_selection/docking/ligands/lig_490.pdb
REMARK  4 active torsions:
REMARK  status: ('A' for Active; 'I' for Inactive)
REMARK    1  A    between atoms: C1_1  and  C2_2
REMARK    2  A    between atoms: C3_3  and  N1_4
REMARK    3  A    between atoms: C8_11  and  C9_12
REMARK    4  A    between atoms: C16_20  and  C17_21
REMARK                            x       y       z     vdW  Elec       q    Type
REMARK                         _______ _______ _______ _____ _____    ______ ____
ROOT
ATOM      1  N1  UNL     1       0.007  -0.827  -0.819  0.00  0.00    -0.269 N 
ATOM      2  C4  UNL     1      -0.855  -1.913  -0.438  0.00  0.00    +0.307 C 
ATOM      3  O1  UNL     1      -0.365  -2.952   0.082  0.00  0.00    -0.252 OA
ATOM      4  N2  UNL     1      -2.281  -1.826  -0.625  0.00  0.00    -0.278 N 
ATOM      5  C5  UNL     1      -3.147  -2.989  -0.536  0.00  0.00    +0.110 C 
ATOM      6  C6  UNL     1      -4.492  -2.547  -1.096  0.00  0.00    +0.021 C 
ATOM      7  C7  UNL     1      -4.480  -1.022  -1.064  0.00  0.00    +0.029 C 
ATOM      8  C8  UNL     1      -3.005  -0.616  -0.996  0.00  0.00    +0.114 C 
ATOM      9  H4  UNL     1      -0.407   0.041  -1.223  0.00  0.00    +0.156 HD
ENDROOT
BRANCH   1  12
ATOM     10  C1  UNL     1       1.261   1.394   0.577  0.00  0.00    +0.046 C 
ATOM     11  C2  UNL     1       2.081   0.259   0.005  0.00  0.00    -0.017 A 
ATOM     12  C3  UNL     1       1.428  -0.843  -0.604  0.00  0.00    +0.038 A 
ATOM     13  C13 UNL     1       2.181  -1.934  -1.061  0.00  0.00    +0.023 A 
ATOM     14  C14 UNL     1       3.565  -1.946  -0.922  0.00  0.00    +0.003 A 
ATOM     15  C15 UNL     1       4.221  -0.855  -0.359  0.00  0.00    +0.013 A 
ATOM     16  C16 UNL     1       3.502   0.267   0.087  0.00  0.00    +0.042 A 
BRANCH  16  17
ATOM     17  C17 UNL     1       4.270   1.428   0.607  0.00  0.00    +0.227 A 
ATOM     18  N3  UNL     1       5.531   1.333   1.083  0.00  0.00    -0.217 NA
ATOM     19  C18 UNL     1       5.839   2.599   1.419  0.00  0.00    +0.152 A 
ATOM     20  C19 UNL     1       4.768   3.414   1.135  0.00  0.00    +0.217 A 
ATOM     21  O2  UNL     1       3.820   2.663   0.634  0.00  0.00    -0.444 OA
ENDBRANCH  16  17
ENDBRANCH   1  12
BRANCH   8  22
ATOM     22  C9  UNL     1      -2.789   0.481   0.013  0.00  0.00    +0.010 A 
ATOM     23  C10 UNL     1      -2.627   1.829  -0.281  0.00  0.00    +0.013 A 
ATOM     24  C11 UNL     1      -2.482   2.629   0.859  0.00  0.00    +0.008 A 
ATOM     25  C12 UNL     1      -2.542   1.919   2.051  0.00  0.00    +0.045 A 
ATOM     26  S1  UNL     1      -2.777   0.294   1.687  0.00  0.00    -0.100 S 
ENDBRANCH   8  22
TORSDOF 3
