MODEL 1
REMARK VINA RESULT:    -5.750      0.000      0.000
REMARK INTER + INTRA:          -7.027
REMARK INTER:                  -6.759
REMARK INTRA:                  -0.268
REMARK UNBOUND:                -0.268
REMARK  Name = /home/qwerty/github/datacon2025hack/step_04_hit_selection/docking/ligands/lig_758.pdb
REMARK  6 active torsions:
REMARK  status: ('A' for Active; 'I' for Inactive)
REMARK    1  A    between atoms: C1_1  and  C2_2
REMARK    2  A    between atoms: C3_4  and  C4_5
REMARK    3  A    between atoms: C7_10  and  N3_11
REMARK    4  A    between atoms: C8_12  and  C9_14
REMARK    5  A    between atoms: N4_17  and  C12_18
REMARK    6  A    between atoms: C13_20  and  C14_21
REMARK                            x       y       z     vdW  Elec       q    Type
REMARK                         _______ _______ _______ _____ _____    ______ ____
ROOT
ATOM      1  C4  UNL     1      16.329  11.702  36.118  0.00  0.00    +0.266 C 
ATOM      2  O1  UNL     1      15.781  10.677  36.610  0.00  0.00    -0.268 OA
ATOM      3  N2  UNL     1      17.720  11.631  35.729  0.00  0.00    -0.292 N 
ATOM      4  C5  UNL     1      18.532  12.765  35.306  0.00  0.00    +0.110 C 
ATOM      5  C6  UNL     1      19.942  12.221  35.107  0.00  0.00    +0.043 C 
ATOM      6  C7  UNL     1      19.972  10.908  35.887  0.00  0.00    +0.095 C 
ATOM      7  C13 UNL     1      18.510  10.408  35.857  0.00  0.00    +0.094 C 
ATOM      8  C14 UNL     1      18.166   9.467  34.689  0.00  0.00    +0.030 C 
ENDROOT
BRANCH   1  12
ATOM      9  C1  UNL     1      15.014  16.463  36.824  0.00  0.00    +0.073 C 
ATOM     10  C2  UNL     1      14.917  15.077  36.287  0.00  0.00    +0.076 A 
ATOM     11  N1  UNL     1      15.803  14.102  36.585  0.00  0.00    -0.240 NA
ATOM     12  C3  UNL     1      15.508  12.928  35.964  0.00  0.00    +0.133 A 
ATOM     13  C15 UNL     1      14.370  12.973  35.155  0.00  0.00    +0.080 A 
ATOM     14  S1  UNL     1      13.732  14.527  35.232  0.00  0.00    -0.080 S 
ENDBRANCH   1  12
BRANCH   6  15
ATOM     15  N3  UNL     1      20.974   9.974  35.354  0.00  0.00    -0.305 N 
ATOM     16  C8  UNL     1      21.442   8.853  36.121  0.00  0.00    +0.264 C 
ATOM     17  O2  UNL     1      20.961   8.621  37.263  0.00  0.00    -0.268 OA
ATOM     18  H9  UNL     1      21.318  10.060  34.374  0.00  0.00    +0.149 HD
BRANCH  16  19
ATOM     19  C9  UNL     1      22.484   7.963  35.584  0.00  0.00    +0.147 A 
ATOM     20  C10 UNL     1      22.948   6.803  36.179  0.00  0.00    +0.054 A 
ATOM     21  C11 UNL     1      23.904   6.326  35.307  0.00  0.00    +0.109 A 
ATOM     22  N4  UNL     1      23.992   7.178  34.268  0.00  0.00    -0.274 N 
ATOM     23  C12 UNL     1      24.844   7.010  33.100  0.00  0.00    +0.172 C 
ATOM     24  N5  UNL     1      23.128   8.169  34.417  0.00  0.00    -0.167 NA
ENDBRANCH  16  19
ENDBRANCH   6  15
TORSDOF 3
ENDMDL
MODEL 2
REMARK VINA RESULT:    -5.687     16.855     19.322
REMARK INTER + INTRA:          -6.953
REMARK INTER:                  -6.892
REMARK INTRA:                  -0.061
REMARK UNBOUND:                -0.268
REMARK  Name = /home/qwerty/github/datacon2025hack/step_04_hit_selection/docking/ligands/lig_758.pdb
REMARK  6 active torsions:
REMARK  status: ('A' for Active; 'I' for Inactive)
REMARK    1  A    between atoms: C1_1  and  C2_2
REMARK    2  A    between atoms: C3_4  and  C4_5
REMARK    3  A    between atoms: C7_10  and  N3_11
REMARK    4  A    between atoms: C8_12  and  C9_14
REMARK    5  A    between atoms: N4_17  and  C12_18
REMARK    6  A    between atoms: C13_20  and  C14_21
REMARK                            x       y       z     vdW  Elec       q    Type
REMARK                         _______ _______ _______ _____ _____    ______ ____
ROOT
ATOM      1  C4  UNL     1      13.734   1.691  21.341  0.00  0.00    +0.266 C 
ATOM      2  O1  UNL     1      12.739   1.313  22.018  0.00  0.00    -0.268 OA
ATOM      3  N2  UNL     1      13.745   3.035  20.808  0.00  0.00    -0.292 N 
ATOM      4  C5  UNL     1      14.734   3.560  19.875  0.00  0.00    +0.110 C 
ATOM      5  C6  UNL     1      14.272   4.969  19.520  0.00  0.00    +0.043 C 
ATOM      6  C7  UNL     1      12.790   5.001  19.891  0.00  0.00    +0.095 C 
ATOM      7  C13 UNL     1      12.659   3.983  21.046  0.00  0.00    +0.094 C 
ATOM      8  C14 UNL     1      12.814   4.574  22.458  0.00  0.00    +0.030 C 
ENDROOT
BRANCH   1  12
ATOM      9  C1  UNL     1      17.217  -1.645  22.623  0.00  0.00    +0.073 C 
ATOM     10  C2  UNL     1      16.416  -0.775  21.717  0.00  0.00    +0.076 A 
ATOM     11  N1  UNL     1      15.437   0.047  22.151  0.00  0.00    -0.240 NA
ATOM     12  C3  UNL     1      14.845   0.729  21.133  0.00  0.00    +0.133 A 
ATOM     13  C15 UNL     1      15.360   0.439  19.868  0.00  0.00    +0.080 A 
ATOM     14  S1  UNL     1      16.586  -0.699  20.048  0.00  0.00    -0.080 S 
ENDBRANCH   1  12
BRANCH   6  15
ATOM     15  N3  UNL     1      12.329   6.365  20.191  0.00  0.00    -0.305 N 
ATOM     16  C8  UNL     1      10.933   6.706  20.181  0.00  0.00    +0.264 C 
ATOM     17  O2  UNL     1      10.065   5.819  19.959  0.00  0.00    -0.268 OA
ATOM     18  H9  UNL     1      13.000   7.104  20.488  0.00  0.00    +0.149 HD
BRANCH  16  19
ATOM     19  C9  UNL     1      10.502   8.091  20.433  0.00  0.00    +0.147 A 
ATOM     20  C10 UNL     1      11.246   9.231  20.186  0.00  0.00    +0.054 A 
ATOM     21  C11 UNL     1      10.426  10.269  20.575  0.00  0.00    +0.109 A 
ATOM     22  N4  UNL     1       9.272   9.749  21.033  0.00  0.00    -0.274 N 
ATOM     23  C12 UNL     1       8.117  10.508  21.489  0.00  0.00    +0.172 C 
ATOM     24  N5  UNL     1       9.300   8.429  20.942  0.00  0.00    -0.167 NA
ENDBRANCH  16  19
ENDBRANCH   6  15
TORSDOF 3
ENDMDL
MODEL 3
REMARK VINA RESULT:    -5.527      1.928      2.601
REMARK INTER + INTRA:          -6.765
REMARK INTER:                  -6.307
REMARK INTRA:                  -0.458
REMARK UNBOUND:                -0.268
REMARK  Name = /home/qwerty/github/datacon2025hack/step_04_hit_selection/docking/ligands/lig_758.pdb
REMARK  6 active torsions:
REMARK  status: ('A' for Active; 'I' for Inactive)
REMARK    1  A    between atoms: C1_1  and  C2_2
REMARK    2  A    between atoms: C3_4  and  C4_5
REMARK    3  A    between atoms: C7_10  and  N3_11
REMARK    4  A    between atoms: C8_12  and  C9_14
REMARK    5  A    between atoms: N4_17  and  C12_18
REMARK    6  A    between atoms: C13_20  and  C14_21
REMARK                            x       y       z     vdW  Elec       q    Type
REMARK                         _______ _______ _______ _____ _____    ______ ____
ROOT
ATOM      1  C4  UNL     1      16.079  11.959  36.684  0.00  0.00    +0.266 C 
ATOM      2  O1  UNL     1      16.732  12.822  37.332  0.00  0.00    -0.268 OA
ATOM      3  N2  UNL     1      16.787  10.840  36.102  0.00  0.00    -0.292 N 
ATOM      4  C5  UNL     1      16.205   9.860  35.194  0.00  0.00    +0.110 C 
ATOM      5  C6  UNL     1      17.351   8.949  34.769  0.00  0.00    +0.043 C 
ATOM      6  C7  UNL     1      18.620   9.744  35.075  0.00  0.00    +0.095 C 
ATOM      7  C13 UNL     1      18.227  10.655  36.260  0.00  0.00    +0.094 C 
ATOM      8  C14 UNL     1      18.505  10.068  37.654  0.00  0.00    +0.030 C 
ENDROOT
BRANCH   1  12
ATOM      9  C1  UNL     1      11.249  11.042  37.542  0.00  0.00    +0.073 C 
ATOM     10  C2  UNL     1      12.434  11.723  36.947  0.00  0.00    +0.076 A 
ATOM     11  N1  UNL     1      13.708  11.362  37.211  0.00  0.00    -0.240 NA
ATOM     12  C3  UNL     1      14.612  12.142  36.558  0.00  0.00    +0.133 A 
ATOM     13  C15 UNL     1      14.044  13.143  35.766  0.00  0.00    +0.080 A 
ATOM     14  S1  UNL     1      12.371  13.032  35.897  0.00  0.00    -0.080 S 
ENDBRANCH   1  12
BRANCH   6  15
ATOM     15  N3  UNL     1      19.776   8.866  35.305  0.00  0.00    -0.305 N 
ATOM     16  C8  UNL     1      21.039   9.101  34.662  0.00  0.00    +0.264 C 
ATOM     17  O2  UNL     1      21.193  10.105  33.916  0.00  0.00    -0.268 OA
ATOM     18  H9  UNL     1      19.729   8.089  35.998  0.00  0.00    +0.149 HD
BRANCH  16  19
ATOM     19  C9  UNL     1      22.165   8.176  34.868  0.00  0.00    +0.147 A 
ATOM     20  C10 UNL     1      22.470   7.517  36.047  0.00  0.00    +0.054 A 
ATOM     21  C11 UNL     1      23.592   6.774  35.746  0.00  0.00    +0.109 A 
ATOM     22  N4  UNL     1      23.921   7.004  34.461  0.00  0.00    -0.274 N 
ATOM     23  C12 UNL     1      25.012   6.371  33.735  0.00  0.00    +0.172 C 
ATOM     24  N5  UNL     1      23.057   7.843  33.913  0.00  0.00    -0.167 NA
ENDBRANCH  16  19
ENDBRANCH   6  15
TORSDOF 3
ENDMDL
MODEL 4
REMARK VINA RESULT:    -5.481     16.693     19.210
REMARK INTER + INTRA:          -6.710
REMARK INTER:                  -6.239
REMARK INTRA:                  -0.472
REMARK UNBOUND:                -0.268
REMARK  Name = /home/qwerty/github/datacon2025hack/step_04_hit_selection/docking/ligands/lig_758.pdb
REMARK  6 active torsions:
REMARK  status: ('A' for Active; 'I' for Inactive)
REMARK    1  A    between atoms: C1_1  and  C2_2
REMARK    2  A    between atoms: C3_4  and  C4_5
REMARK    3  A    between atoms: C7_10  and  N3_11
REMARK    4  A    between atoms: C8_12  and  C9_14
REMARK    5  A    between atoms: N4_17  and  C12_18
REMARK    6  A    between atoms: C13_20  and  C14_21
REMARK                            x       y       z     vdW  Elec       q    Type
REMARK                         _______ _______ _______ _____ _____    ______ ____
ROOT
ATOM      1  C4  UNL     1      15.276   2.465  21.254  0.00  0.00    +0.266 C 
ATOM      2  O1  UNL     1      16.077   3.437  21.335  0.00  0.00    -0.268 OA
ATOM      3  N2  UNL     1      13.855   2.725  21.314  0.00  0.00    -0.292 N 
ATOM      4  C5  UNL     1      12.819   1.704  21.402  0.00  0.00    +0.110 C 
ATOM      5  C6  UNL     1      11.500   2.456  21.548  0.00  0.00    +0.043 C 
ATOM      6  C7  UNL     1      11.895   3.854  22.020  0.00  0.00    +0.095 C 
ATOM      7  C13 UNL     1      13.308   4.074  21.435  0.00  0.00    +0.094 C 
ATOM      8  C14 UNL     1      13.345   4.753  20.055  0.00  0.00    +0.030 C 
ENDROOT
BRANCH   1  12
ATOM      9  C1  UNL     1      17.066  -1.513  18.830  0.00  0.00    +0.073 C 
ATOM     10  C2  UNL     1      16.649  -0.690  20.001  0.00  0.00    +0.076 A 
ATOM     11  N1  UNL     1      16.136   0.553  19.889  0.00  0.00    -0.240 NA
ATOM     12  C3  UNL     1      15.844   1.103  21.100  0.00  0.00    +0.133 A 
ATOM     13  C15 UNL     1      16.136   0.282  22.191  0.00  0.00    +0.080 A 
ATOM     14  S1  UNL     1      16.772  -1.162  21.608  0.00  0.00    -0.080 S 
ENDBRANCH   1  12
BRANCH   6  15
ATOM     15  N3  UNL     1      10.891   4.863  21.650  0.00  0.00    -0.305 N 
ATOM     16  C8  UNL     1      10.649   6.019  22.468  0.00  0.00    +0.264 C 
ATOM     17  O2  UNL     1      11.336   6.216  23.506  0.00  0.00    -0.268 OA
ATOM     18  H9  UNL     1      10.377   4.800  20.746  0.00  0.00    +0.149 HD
BRANCH  16  19
ATOM     19  C9  UNL     1       9.601   6.986  22.103  0.00  0.00    +0.147 A 
ATOM     20  C10 UNL     1       8.248   6.714  21.993  0.00  0.00    +0.054 A 
ATOM     21  C11 UNL     1       7.682   7.921  21.637  0.00  0.00    +0.109 A 
ATOM     22  N4  UNL     1       8.664   8.836  21.537  0.00  0.00    -0.274 N 
ATOM     23  C12 UNL     1       8.484  10.249  21.237  0.00  0.00    +0.172 C 
ATOM     24  N5  UNL     1       9.832   8.286  21.829  0.00  0.00    -0.167 NA
ENDBRANCH  16  19
ENDBRANCH   6  15
TORSDOF 3
ENDMDL
MODEL 5
REMARK VINA RESULT:    -5.465     10.684     12.774
REMARK INTER + INTRA:          -6.692
REMARK INTER:                  -6.241
REMARK INTRA:                  -0.451
REMARK UNBOUND:                -0.268
REMARK  Name = /home/qwerty/github/datacon2025hack/step_04_hit_selection/docking/ligands/lig_758.pdb
REMARK  6 active torsions:
REMARK  status: ('A' for Active; 'I' for Inactive)
REMARK    1  A    between atoms: C1_1  and  C2_2
REMARK    2  A    between atoms: C3_4  and  C4_5
REMARK    3  A    between atoms: C7_10  and  N3_11
REMARK    4  A    between atoms: C8_12  and  C9_14
REMARK    5  A    between atoms: N4_17  and  C12_18
REMARK    6  A    between atoms: C13_20  and  C14_21
REMARK                            x       y       z     vdW  Elec       q    Type
REMARK                         _______ _______ _______ _____ _____    ______ ____
ROOT
ATOM      1  C4  UNL     1      21.360   1.351  28.621  0.00  0.00    +0.266 C 
ATOM      2  O1  UNL     1      22.137   0.418  28.966  0.00  0.00    -0.268 OA
ATOM      3  N2  UNL     1      20.295   1.739  29.519  0.00  0.00    -0.292 N 
ATOM      4  C5  UNL     1      19.224   2.674  29.196  0.00  0.00    +0.110 C 
ATOM      5  C6  UNL     1      18.293   2.680  30.403  0.00  0.00    +0.043 C 
ATOM      6  C7  UNL     1      18.617   1.391  31.156  0.00  0.00    +0.095 C 
ATOM      7  C13 UNL     1      20.100   1.113  30.824  0.00  0.00    +0.094 C 
ATOM      8  C14 UNL     1      21.114   1.705  31.818  0.00  0.00    +0.030 C 
ENDROOT
BRANCH   1  12
ATOM      9  C1  UNL     1      20.498   2.434  23.827  0.00  0.00    +0.073 C 
ATOM     10  C2  UNL     1      21.195   2.485  25.143  0.00  0.00    +0.076 A 
ATOM     11  N1  UNL     1      20.797   1.777  26.221  0.00  0.00    -0.240 NA
ATOM     12  C3  UNL     1      21.587   2.001  27.307  0.00  0.00    +0.133 A 
ATOM     13  C15 UNL     1      22.627   2.906  27.086  0.00  0.00    +0.080 A 
ATOM     14  S1  UNL     1      22.541   3.427  25.489  0.00  0.00    -0.080 S 
ENDBRANCH   1  12
BRANCH   6  15
ATOM     15  N3  UNL     1      18.295   1.495  32.587  0.00  0.00    -0.305 N 
ATOM     16  C8  UNL     1      17.849   0.358  33.343  0.00  0.00    +0.264 C 
ATOM     17  O2  UNL     1      17.770  -0.775  32.796  0.00  0.00    -0.268 OA
ATOM     18  H9  UNL     1      18.451   2.384  33.108  0.00  0.00    +0.149 HD
BRANCH  16  19
ATOM     19  C9  UNL     1      17.483   0.501  34.761  0.00  0.00    +0.147 A 
ATOM     20  C10 UNL     1      17.879   1.526  35.603  0.00  0.00    +0.054 A 
ATOM     21  C11 UNL     1      17.287   1.227  36.812  0.00  0.00    +0.109 A 
ATOM     22  N4  UNL     1      16.595   0.081  36.673  0.00  0.00    -0.274 N 
ATOM     23  C12 UNL     1      15.779  -0.551  37.700  0.00  0.00    +0.172 C 
ATOM     24  N5  UNL     1      16.695  -0.364  35.431  0.00  0.00    -0.167 NA
ENDBRANCH  16  19
ENDBRANCH   6  15
TORSDOF 3
ENDMDL
MODEL 6
REMARK VINA RESULT:    -5.417     17.044     17.894
REMARK INTER + INTRA:          -6.636
REMARK INTER:                  -6.333
REMARK INTRA:                  -0.303
REMARK UNBOUND:                -0.268
REMARK  Name = /home/qwerty/github/datacon2025hack/step_04_hit_selection/docking/ligands/lig_758.pdb
REMARK  6 active torsions:
REMARK  status: ('A' for Active; 'I' for Inactive)
REMARK    1  A    between atoms: C1_1  and  C2_2
REMARK    2  A    between atoms: C3_4  and  C4_5
REMARK    3  A    between atoms: C7_10  and  N3_11
REMARK    4  A    between atoms: C8_12  and  C9_14
REMARK    5  A    between atoms: N4_17  and  C12_18
REMARK    6  A    between atoms: C13_20  and  C14_21
REMARK                            x       y       z     vdW  Elec       q    Type
REMARK                         _______ _______ _______ _____ _____    ______ ____
ROOT
ATOM      1  C4  UNL     1       9.427   2.873  22.619  0.00  0.00    +0.266 C 
ATOM      2  O1  UNL     1      10.132   2.067  21.952  0.00  0.00    -0.268 OA
ATOM      3  N2  UNL     1       9.063   2.524  23.975  0.00  0.00    -0.292 N 
ATOM      4  C5  UNL     1       8.124   3.264  24.808  0.00  0.00    +0.110 C 
ATOM      5  C6  UNL     1       7.984   2.462  26.097  0.00  0.00    +0.043 C 
ATOM      6  C7  UNL     1       8.477   1.060  25.744  0.00  0.00    +0.095 C 
ATOM      7  C13 UNL     1       9.505   1.286  24.613  0.00  0.00    +0.094 C 
ATOM      8  C14 UNL     1      10.961   1.456  25.079  0.00  0.00    +0.030 C 
ENDROOT
BRANCH   1  12
ATOM      9  C1  UNL     1       6.278   6.187  20.619  0.00  0.00    +0.073 C 
ATOM     10  C2  UNL     1       7.586   5.632  21.067  0.00  0.00    +0.076 A 
ATOM     11  N1  UNL     1       7.721   4.416  21.638  0.00  0.00    -0.240 NA
ATOM     12  C3  UNL     1       9.011   4.141  21.971  0.00  0.00    +0.133 A 
ATOM     13  C15 UNL     1       9.916   5.159  21.663  0.00  0.00    +0.080 A 
ATOM     14  S1  UNL     1       9.063   6.425  20.958  0.00  0.00    -0.080 S 
ENDBRANCH   1  12
BRANCH   6  15
ATOM     15  N3  UNL     1       8.979   0.340  26.924  0.00  0.00    -0.305 N 
ATOM     16  C8  UNL     1       8.085  -0.277  27.865  0.00  0.00    +0.264 C 
ATOM     17  O2  UNL     1       6.840  -0.252  27.668  0.00  0.00    -0.268 OA
ATOM     18  H9  UNL     1      10.000   0.198  27.070  0.00  0.00    +0.149 HD
BRANCH  16  19
ATOM     19  C9  UNL     1       8.612  -0.946  29.066  0.00  0.00    +0.147 A 
ATOM     20  C10 UNL     1       9.843  -1.570  29.174  0.00  0.00    +0.054 A 
ATOM     21  C11 UNL     1       9.880  -2.034  30.472  0.00  0.00    +0.109 A 
ATOM     22  N4  UNL     1       8.723  -1.703  31.075  0.00  0.00    -0.274 N 
ATOM     23  C12 UNL     1       8.384  -1.960  32.466  0.00  0.00    +0.172 C 
ATOM     24  N5  UNL     1       7.949  -1.032  30.237  0.00  0.00    -0.167 NA
ENDBRANCH  16  19
ENDBRANCH   6  15
TORSDOF 3
ENDMDL
MODEL 7
REMARK VINA RESULT:    -5.389      8.583     11.293
REMARK INTER + INTRA:          -6.603
REMARK INTER:                  -6.344
REMARK INTRA:                  -0.258
REMARK UNBOUND:                -0.268
REMARK  Name = /home/qwerty/github/datacon2025hack/step_04_hit_selection/docking/ligands/lig_758.pdb
REMARK  6 active torsions:
REMARK  status: ('A' for Active; 'I' for Inactive)
REMARK    1  A    between atoms: C1_1  and  C2_2
REMARK    2  A    between atoms: C3_4  and  C4_5
REMARK    3  A    between atoms: C7_10  and  N3_11
REMARK    4  A    between atoms: C8_12  and  C9_14
REMARK    5  A    between atoms: N4_17  and  C12_18
REMARK    6  A    between atoms: C13_20  and  C14_21
REMARK                            x       y       z     vdW  Elec       q    Type
REMARK                         _______ _______ _______ _____ _____    ______ ____
ROOT
ATOM      1  C4  UNL     1       9.383  12.798  28.929  0.00  0.00    +0.266 C 
ATOM      2  O1  UNL     1       8.693  13.723  29.440  0.00  0.00    -0.268 OA
ATOM      3  N2  UNL     1      10.812  12.981  28.803  0.00  0.00    -0.292 N 
ATOM      4  C5  UNL     1      11.712  12.084  28.090  0.00  0.00    +0.110 C 
ATOM      5  C6  UNL     1      13.086  12.743  28.138  0.00  0.00    +0.043 C 
ATOM      6  C7  UNL     1      12.808  14.211  28.457  0.00  0.00    +0.095 C 
ATOM      7  C13 UNL     1      11.493  14.186  29.268  0.00  0.00    +0.094 C 
ATOM      8  C14 UNL     1      11.670  14.102  30.794  0.00  0.00    +0.030 C 
ENDROOT
BRANCH   1  12
ATOM      9  C1  UNL     1       7.565   9.458  25.698  0.00  0.00    +0.073 C 
ATOM     10  C2  UNL     1       7.863  10.062  27.027  0.00  0.00    +0.076 A 
ATOM     11  N1  UNL     1       8.524  11.229  27.180  0.00  0.00    -0.240 NA
ATOM     12  C3  UNL     1       8.683  11.566  28.489  0.00  0.00    +0.133 A 
ATOM     13  C15 UNL     1       8.142  10.646  29.390  0.00  0.00    +0.080 A 
ATOM     14  S1  UNL     1       7.453   9.390  28.510  0.00  0.00    -0.080 S 
ENDBRANCH   1  12
BRANCH   6  15
ATOM     15  N3  UNL     1      13.951  14.856  29.119  0.00  0.00    -0.305 N 
ATOM     16  C8  UNL     1      15.150  15.185  28.399  0.00  0.00    +0.264 C 
ATOM     17  O2  UNL     1      15.226  14.966  27.160  0.00  0.00    -0.268 OA
ATOM     18  H9  UNL     1      13.893  15.156  30.115  0.00  0.00    +0.149 HD
BRANCH  16  19
ATOM     19  C9  UNL     1      16.300  15.782  29.097  0.00  0.00    +0.147 A 
ATOM     20  C10 UNL     1      16.763  17.077  28.940  0.00  0.00    +0.054 A 
ATOM     21  C11 UNL     1      17.840  17.165  29.796  0.00  0.00    +0.109 A 
ATOM     22  N4  UNL     1      17.995  15.974  30.406  0.00  0.00    -0.274 N 
ATOM     23  C12 UNL     1      18.984  15.663  31.426  0.00  0.00    +0.172 C 
ATOM     24  N5  UNL     1      17.060  15.130  30.000  0.00  0.00    -0.167 NA
ENDBRANCH  16  19
ENDBRANCH   6  15
TORSDOF 3
ENDMDL
MODEL 8
REMARK VINA RESULT:    -5.332      3.226      9.154
REMARK INTER + INTRA:          -6.535
REMARK INTER:                  -6.070
REMARK INTRA:                  -0.465
REMARK UNBOUND:                -0.268
REMARK  Name = /home/qwerty/github/datacon2025hack/step_04_hit_selection/docking/ligands/lig_758.pdb
REMARK  6 active torsions:
REMARK  status: ('A' for Active; 'I' for Inactive)
REMARK    1  A    between atoms: C1_1  and  C2_2
REMARK    2  A    between atoms: C3_4  and  C4_5
REMARK    3  A    between atoms: C7_10  and  N3_11
REMARK    4  A    between atoms: C8_12  and  C9_14
REMARK    5  A    between atoms: N4_17  and  C12_18
REMARK    6  A    between atoms: C13_20  and  C14_21
REMARK                            x       y       z     vdW  Elec       q    Type
REMARK                         _______ _______ _______ _____ _____    ______ ____
ROOT
ATOM      1  C4  UNL     1      20.406  10.817  35.360  0.00  0.00    +0.266 C 
ATOM      2  O1  UNL     1      20.922  11.926  35.669  0.00  0.00    -0.268 OA
ATOM      3  N2  UNL     1      18.971  10.732  35.209  0.00  0.00    -0.292 N 
ATOM      4  C5  UNL     1      18.218   9.498  35.021  0.00  0.00    +0.110 C 
ATOM      5  C6  UNL     1      16.747   9.899  35.022  0.00  0.00    +0.043 C 
ATOM      6  C7  UNL     1      16.714  11.271  35.692  0.00  0.00    +0.095 C 
ATOM      7  C13 UNL     1      18.094  11.889  35.374  0.00  0.00    +0.094 C 
ATOM      8  C14 UNL     1      18.148  12.742  34.095  0.00  0.00    +0.030 C 
ENDROOT
BRANCH   1  12
ATOM      9  C1  UNL     1      23.094   6.822  36.669  0.00  0.00    +0.073 C 
ATOM     10  C2  UNL     1      22.523   7.855  35.761  0.00  0.00    +0.076 A 
ATOM     11  N1  UNL     1      21.710   8.847  36.182  0.00  0.00    -0.240 NA
ATOM     12  C3  UNL     1      21.311   9.656  35.164  0.00  0.00    +0.133 A 
ATOM     13  C15 UNL     1      21.812   9.297  33.911  0.00  0.00    +0.080 A 
ATOM     14  S1  UNL     1      22.777   7.934  34.102  0.00  0.00    -0.080 S 
ENDBRANCH   1  12
BRANCH   6  15
ATOM     15  N3  UNL     1      15.550  12.062  35.265  0.00  0.00    -0.305 N 
ATOM     16  C8  UNL     1      14.371  12.166  36.080  0.00  0.00    +0.264 C 
ATOM     17  O2  UNL     1      14.332  11.611  37.211  0.00  0.00    -0.268 OA
ATOM     18  H9  UNL     1      15.579  12.628  34.390  0.00  0.00    +0.149 HD
BRANCH  16  19
ATOM     19  C9  UNL     1      13.200  12.921  35.605  0.00  0.00    +0.147 A 
ATOM     20  C10 UNL     1      13.074  13.534  34.370  0.00  0.00    +0.054 A 
ATOM     21  C11 UNL     1      11.817  14.100  34.393  0.00  0.00    +0.109 A 
ATOM     22  N4  UNL     1      11.254  13.834  35.586  0.00  0.00    -0.274 N 
ATOM     23  C12 UNL     1       9.908  14.206  35.994  0.00  0.00    +0.172 C 
ATOM     24  N5  UNL     1      12.077  13.109  36.327  0.00  0.00    -0.167 NA
ENDBRANCH  16  19
ENDBRANCH   6  15
TORSDOF 3
ENDMDL
MODEL 9
REMARK VINA RESULT:    -5.266     16.437     17.461
REMARK INTER + INTRA:          -6.458
REMARK INTER:                  -6.122
REMARK INTRA:                  -0.337
REMARK UNBOUND:                -0.268
REMARK  Name = /home/qwerty/github/datacon2025hack/step_04_hit_selection/docking/ligands/lig_758.pdb
REMARK  6 active torsions:
REMARK  status: ('A' for Active; 'I' for Inactive)
REMARK    1  A    between atoms: C1_1  and  C2_2
REMARK    2  A    between atoms: C3_4  and  C4_5
REMARK    3  A    between atoms: C7_10  and  N3_11
REMARK    4  A    between atoms: C8_12  and  C9_14
REMARK    5  A    between atoms: N4_17  and  C12_18
REMARK    6  A    between atoms: C13_20  and  C14_21
REMARK                            x       y       z     vdW  Elec       q    Type
REMARK                         _______ _______ _______ _____ _____    ______ ____
ROOT
ATOM      1  C4  UNL     1      10.790   5.218  20.851  0.00  0.00    +0.266 C 
ATOM      2  O1  UNL     1      11.587   5.613  19.955  0.00  0.00    -0.268 OA
ATOM      3  N2  UNL     1      11.130   4.039  21.615  0.00  0.00    -0.292 N 
ATOM      4  C5  UNL     1      10.245   3.368  22.559  0.00  0.00    +0.110 C 
ATOM      5  C6  UNL     1      10.995   2.127  23.029  0.00  0.00    +0.043 C 
ATOM      6  C7  UNL     1      12.071   1.893  21.970  0.00  0.00    +0.095 C 
ATOM      7  C13 UNL     1      12.374   3.301  21.411  0.00  0.00    +0.094 C 
ATOM      8  C14 UNL     1      13.519   4.050  22.113  0.00  0.00    +0.030 C 
ENDROOT
BRANCH   1  12
ATOM      9  C1  UNL     1       5.920   6.264  20.546  0.00  0.00    +0.073 C 
ATOM     10  C2  UNL     1       7.347   6.463  20.928  0.00  0.00    +0.076 A 
ATOM     11  N1  UNL     1       8.331   5.600  20.597  0.00  0.00    -0.240 NA
ATOM     12  C3  UNL     1       9.545   5.995  21.070  0.00  0.00    +0.133 A 
ATOM     13  C15 UNL     1       9.521   7.189  21.794  0.00  0.00    +0.080 A 
ATOM     14  S1  UNL     1       7.937   7.750  21.831  0.00  0.00    -0.080 S 
ENDBRANCH   1  12
BRANCH   6  15
ATOM     15  N3  UNL     1      13.226   1.163  22.513  0.00  0.00    -0.305 N 
ATOM     16  C8  UNL     1      14.223   0.588  21.654  0.00  0.00    +0.264 C 
ATOM     17  O2  UNL     1      14.150   0.742  20.405  0.00  0.00    -0.268 OA
ATOM     18  H9  UNL     1      13.388   1.105  23.541  0.00  0.00    +0.149 HD
BRANCH  16  19
ATOM     19  C9  UNL     1      15.342  -0.184  22.220  0.00  0.00    +0.147 A 
ATOM     20  C10 UNL     1      16.384  -0.748  21.505  0.00  0.00    +0.054 A 
ATOM     21  C11 UNL     1      17.170  -1.354  22.463  0.00  0.00    +0.109 A 
ATOM     22  N4  UNL     1      16.601  -1.157  23.666  0.00  0.00    -0.274 N 
ATOM     23  C12 UNL     1      17.143  -1.588  24.946  0.00  0.00    +0.172 C 
ATOM     24  N5  UNL     1      15.497  -0.438  23.536  0.00  0.00    -0.167 NA
ENDBRANCH  16  19
ENDBRANCH   6  15
TORSDOF 3
ENDMDL
