REMARK  Name = /home/qwerty/github/datacon2025hack/step_04_hit_selection/docking/ligands/lig_442.pdb
REMARK  6 active torsions:
REMARK  status: ('A' for Active; 'I' for Inactive)
REMARK    1  A    between atoms: C1_1  and  C2_2
REMARK    2  A    between atoms: N1_4  and  C3_5
REMARK    3  A    between atoms: C6_8  and  C7_9
REMARK    4  A    between atoms: C8_10  and  N2_11
REMARK    5  A    between atoms: C9_12  and  C10_14
REMARK    6  A    between atoms: C16_22  and  C17_23
REMARK                            x       y       z     vdW  Elec       q    Type
REMARK                         _______ _______ _______ _____ _____    ______ ____
ROOT
ATOM      1  N2  UNL     1       1.560  -1.915  -0.841  0.00  0.00    -0.277 N 
ATOM      2  C9  UNL     1       0.751  -0.729  -0.951  0.00  0.00    +0.303 C 
ATOM      3  O2  UNL     1       1.292   0.401  -1.097  0.00  0.00    -0.265 OA
ATOM      4  H10 UNL     1       1.074  -2.841  -0.861  0.00  0.00    +0.155 HD
ENDROOT
BRANCH   2   5
ATOM      5  C10 UNL     1      -0.721  -0.827  -0.929  0.00  0.00    +0.302 C 
ATOM      6  O3  UNL     1      -1.273  -1.953  -1.060  0.00  0.00    -0.265 OA
ATOM      7  N3  UNL     1      -1.534   0.344  -0.775  0.00  0.00    -0.289 N 
ATOM      8  C11 UNL     1      -1.332   1.802  -0.949  0.00  0.00    +0.117 C 
ATOM      9  C12 UNL     1      -2.777   2.159  -0.870  0.00  0.00    +0.005 C 
ATOM     10  C13 UNL     1      -3.425   2.868  -2.048  0.00  0.00    +0.010 C 
ATOM     11  C14 UNL     1      -3.844   3.989  -1.088  0.00  0.00    +0.001 C 
ATOM     12  C15 UNL     1      -3.187   3.270   0.095  0.00  0.00    +0.010 C 
ATOM     13  C16 UNL     1      -2.984   0.676  -0.686  0.00  0.00    +0.087 C 
BRANCH  13  14
ATOM     14  C17 UNL     1      -3.635   0.257   0.667  0.00  0.00    +0.014 C 
ATOM     15  C18 UNL     1      -5.170   0.406   0.588  0.00  0.00    +0.033 C 
ATOM     16  C19 UNL     1      -5.817  -0.098   1.886  0.00  0.00    +0.160 C 
ATOM     17  O4  UNL     1      -5.500  -1.456   2.110  0.00  0.00    -0.380 OA
ATOM     18  C20 UNL     1      -4.105  -1.596   2.313  0.00  0.00    +0.160 C 
ATOM     19  C21 UNL     1      -3.315  -1.195   1.058  0.00  0.00    +0.033 C 
ENDBRANCH  13  14
ENDBRANCH   2   5
BRANCH   1  25
ATOM     20  C3  UNL     1       5.076  -0.915   0.064  0.00  0.00    +0.035 A 
ATOM     21  C4  UNL     1       5.803  -1.946  -0.552  0.00  0.00    +0.024 A 
ATOM     22  C5  UNL     1       5.145  -2.938  -1.284  0.00  0.00    +0.007 A 
ATOM     23  C6  UNL     1       3.748  -2.920  -1.417  0.00  0.00    -0.029 A 
ATOM     24  C7  UNL     1       3.070  -3.997  -2.222  0.00  0.00    +0.045 C 
ATOM     25  C8  UNL     1       3.000  -1.905  -0.773  0.00  0.00    +0.038 A 
ATOM     26  C22 UNL     1       3.676  -0.925  -0.016  0.00  0.00    +0.047 A 
BRANCH  20  30
ATOM     27  C1  UNL     1       7.718   1.606   1.370  0.00  0.00    +0.109 C 
ATOM     28  C2  UNL     1       6.999   0.690   0.430  0.00  0.00    +0.214 C 
ATOM     29  O1  UNL     1       7.467   0.498  -0.728  0.00  0.00    -0.276 OA
ATOM     30  N1  UNL     1       5.738   0.117   0.813  0.00  0.00    -0.286 N 
ATOM     31  H4  UNL     1       5.237   0.543   1.626  0.00  0.00    +0.155 HD
ENDBRANCH  20  30
ENDBRANCH   1  25
TORSDOF 4
