MODEL 1
REMARK VINA RESULT:    -7.183      0.000      0.000
REMARK INTER + INTRA:          -9.444
REMARK INTER:                  -8.863
REMARK INTRA:                  -0.581
REMARK UNBOUND:                -0.581
REMARK  Name = /home/qwerty/github/datacon2025hack/step_04_hit_selection/docking/ligands/lig_755.pdb
REMARK  8 active torsions:
REMARK  status: ('A' for Active; 'I' for Inactive)
REMARK    1  A    between atoms: C1_1  and  O1_2
REMARK    2  A    between atoms: O1_2  and  C2_3
REMARK    3  A    between atoms: C2_3  and  C3_5
REMARK    4  A    between atoms: C5_7  and  C6_8
REMARK    5  A    between atoms: N2_24  and  C20_25
REMARK    6  A    between atoms: C23_29  and  N3_30
REMARK    7  A    between atoms: N3_30  and  C24_31
REMARK    8  A    between atoms: N3_30  and  C25_32
REMARK                            x       y       z     vdW  Elec       q    Type
REMARK                         _______ _______ _______ _____ _____    ______ ____
ROOT
ATOM      1  C6  UNL     1      15.452  13.924  35.534  0.00  0.00    +0.247 C 
ATOM      2  O3  UNL     1      15.829  14.926  36.198  0.00  0.00    -0.270 OA
ATOM      3  N1  UNL     1      16.385  12.856  35.267  0.00  0.00    -0.297 N 
ATOM      4  C7  UNL     1      17.825  13.121  35.185  0.00  0.00    +0.109 C 
ATOM      5  C8  UNL     1      18.546  12.373  36.308  0.00  0.00    +0.035 C 
ATOM      6  C9  UNL     1      18.268  10.847  36.270  0.00  0.00    +0.054 C 
ATOM      7  C10 UNL     1      16.721  10.603  36.238  0.00  0.00    +0.035 C 
ATOM      8  C11 UNL     1      15.955  11.454  35.209  0.00  0.00    +0.109 C 
ATOM      9  C12 UNL     1      18.818  10.227  37.594  0.00  0.00    +0.051 C 
ATOM     10  C13 UNL     1      19.024   8.734  37.497  0.00  0.00    -0.042 A 
ATOM     11  C14 UNL     1      18.080   7.855  38.048  0.00  0.00    +0.004 A 
ATOM     12  C15 UNL     1      18.221   6.477  37.877  0.00  0.00    +0.000 A 
ATOM     13  C16 UNL     1      19.302   5.967  37.153  0.00  0.00    +0.000 A 
ATOM     14  C17 UNL     1      20.241   6.833  36.588  0.00  0.00    +0.005 A 
ATOM     15  C18 UNL     1      20.101   8.225  36.743  0.00  0.00    -0.027 A 
ATOM     16  C19 UNL     1      21.054   9.172  36.047  0.00  0.00    +0.142 C 
ATOM     17  N2  UNL     1      20.376   9.949  34.992  0.00  0.00    -0.300 N 
ATOM     18  C20 UNL     1      21.083  10.154  33.725  0.00  0.00    +0.132 C 
ATOM     19  C21 UNL     1      18.957  10.240  35.030  0.00  0.00    +0.222 C 
ATOM     20  O4  UNL     1      18.283  10.037  33.983  0.00  0.00    -0.275 OA
ENDROOT
BRANCH   1  23
ATOM     21  C3  UNL     1      11.675  13.573  35.500  0.00  0.00    +0.061 A 
ATOM     22  C4  UNL     1      13.003  13.649  35.949  0.00  0.00    +0.028 A 
ATOM     23  C5  UNL     1      14.052  13.876  35.048  0.00  0.00    +0.039 A 
ATOM     24  C22 UNL     1      13.761  14.074  33.689  0.00  0.00    +0.036 A 
ATOM     25  C23 UNL     1      12.438  14.002  33.212  0.00  0.00    +0.031 A 
ATOM     26  C26 UNL     1      11.404  13.747  34.134  0.00  0.00    +0.038 A 
BRANCH  25  27
ATOM     27  N3  UNL     1      12.145  14.178  31.800  0.00  0.00    -0.336 N 
ATOM     28  C24 UNL     1      10.915  13.626  31.216  0.00  0.00    +0.129 C 
ATOM     29  C25 UNL     1      13.075  14.910  30.929  0.00  0.00    +0.129 C 
ENDBRANCH  25  27
BRANCH  21  30
ATOM     30  C2  UNL     1      10.574  13.283  36.442  0.00  0.00    +0.339 C 
ATOM     31  O2  UNL     1       9.510  13.958  36.404  0.00  0.00    -0.245 OA
BRANCH  30  33
ATOM     32  C1  UNL     1      10.988  10.913  37.015  0.00  0.00    +0.280 C 
ATOM     33  O1  UNL     1      10.717  12.259  37.382  0.00  0.00    -0.464 OA
ENDBRANCH  30  33
ENDBRANCH  21  30
ENDBRANCH   1  23
TORSDOF 4
ENDMDL
MODEL 2
REMARK VINA RESULT:    -7.102      1.729      3.034
REMARK INTER + INTRA:          -9.343
REMARK INTER:                  -8.792
REMARK INTRA:                  -0.551
REMARK UNBOUND:                -0.581
REMARK  Name = /home/qwerty/github/datacon2025hack/step_04_hit_selection/docking/ligands/lig_755.pdb
REMARK  8 active torsions:
REMARK  status: ('A' for Active; 'I' for Inactive)
REMARK    1  A    between atoms: C1_1  and  O1_2
REMARK    2  A    between atoms: O1_2  and  C2_3
REMARK    3  A    between atoms: C2_3  and  C3_5
REMARK    4  A    between atoms: C5_7  and  C6_8
REMARK    5  A    between atoms: N2_24  and  C20_25
REMARK    6  A    between atoms: C23_29  and  N3_30
REMARK    7  A    between atoms: N3_30  and  C24_31
REMARK    8  A    between atoms: N3_30  and  C25_32
REMARK                            x       y       z     vdW  Elec       q    Type
REMARK                         _______ _______ _______ _____ _____    ______ ____
ROOT
ATOM      1  C6  UNL     1      15.490  13.942  35.365  0.00  0.00    +0.247 C 
ATOM      2  O3  UNL     1      15.859  14.951  36.023  0.00  0.00    -0.270 OA
ATOM      3  N1  UNL     1      16.424  12.867  35.129  0.00  0.00    -0.297 N 
ATOM      4  C7  UNL     1      17.866  13.126  35.071  0.00  0.00    +0.109 C 
ATOM      5  C8  UNL     1      18.563  12.390  36.218  0.00  0.00    +0.035 C 
ATOM      6  C9  UNL     1      18.280  10.864  36.195  0.00  0.00    +0.054 C 
ATOM      7  C10 UNL     1      16.732  10.626  36.136  0.00  0.00    +0.035 C 
ATOM      8  C11 UNL     1      15.990  11.466  35.082  0.00  0.00    +0.109 C 
ATOM      9  C12 UNL     1      18.802  10.260  37.537  0.00  0.00    +0.051 C 
ATOM     10  C13 UNL     1      19.004   8.765  37.464  0.00  0.00    -0.042 A 
ATOM     11  C14 UNL     1      18.046   7.897  38.008  0.00  0.00    +0.004 A 
ATOM     12  C15 UNL     1      18.185   6.517  37.858  0.00  0.00    +0.000 A 
ATOM     13  C16 UNL     1      19.277   5.992  37.161  0.00  0.00    +0.000 A 
ATOM     14  C17 UNL     1      20.230   6.847  36.603  0.00  0.00    +0.005 A 
ATOM     15  C18 UNL     1      20.093   8.242  36.736  0.00  0.00    -0.027 A 
ATOM     16  C19 UNL     1      21.062   9.176  36.047  0.00  0.00    +0.142 C 
ATOM     17  N2  UNL     1      20.408   9.942  34.969  0.00  0.00    -0.300 N 
ATOM     18  C20 UNL     1      21.139  10.127  33.713  0.00  0.00    +0.132 C 
ATOM     19  C21 UNL     1      18.989  10.239  34.975  0.00  0.00    +0.222 C 
ATOM     20  O4  UNL     1      18.334  10.024  33.919  0.00  0.00    -0.275 OA
ENDROOT
BRANCH   1  23
ATOM     21  C3  UNL     1      12.536  14.050  32.989  0.00  0.00    +0.061 A 
ATOM     22  C4  UNL     1      13.849  14.068  33.485  0.00  0.00    +0.028 A 
ATOM     23  C5  UNL     1      14.099  13.892  34.853  0.00  0.00    +0.039 A 
ATOM     24  C22 UNL     1      13.026  13.651  35.724  0.00  0.00    +0.036 A 
ATOM     25  C23 UNL     1      11.699  13.630  35.252  0.00  0.00    +0.031 A 
ATOM     26  C26 UNL     1      11.471  13.835  33.877  0.00  0.00    +0.038 A 
BRANCH  25  27
ATOM     27  N3  UNL     1      10.588  13.409  36.162  0.00  0.00    -0.336 N 
ATOM     28  C24 UNL     1       9.400  14.272  36.116  0.00  0.00    +0.129 C 
ATOM     29  C25 UNL     1      10.634  12.321  37.149  0.00  0.00    +0.129 C 
ENDBRANCH  25  27
BRANCH  21  30
ATOM     30  C2  UNL     1      12.267  14.286  31.554  0.00  0.00    +0.339 C 
ATOM     31  O2  UNL     1      13.093  14.927  30.850  0.00  0.00    -0.245 OA
BRANCH  30  33
ATOM     32  C1  UNL     1      10.872  13.779  29.576  0.00  0.00    +0.280 C 
ATOM     33  O1  UNL     1      11.090  13.799  30.980  0.00  0.00    -0.464 OA
ENDBRANCH  30  33
ENDBRANCH  21  30
ENDBRANCH   1  23
TORSDOF 4
ENDMDL
MODEL 3
REMARK VINA RESULT:    -6.847      7.803     12.890
REMARK INTER + INTRA:          -9.028
REMARK INTER:                  -8.503
REMARK INTRA:                  -0.525
REMARK UNBOUND:                -0.581
REMARK  Name = /home/qwerty/github/datacon2025hack/step_04_hit_selection/docking/ligands/lig_755.pdb
REMARK  8 active torsions:
REMARK  status: ('A' for Active; 'I' for Inactive)
REMARK    1  A    between atoms: C1_1  and  O1_2
REMARK    2  A    between atoms: O1_2  and  C2_3
REMARK    3  A    between atoms: C2_3  and  C3_5
REMARK    4  A    between atoms: C5_7  and  C6_8
REMARK    5  A    between atoms: N2_24  and  C20_25
REMARK    6  A    between atoms: C23_29  and  N3_30
REMARK    7  A    between atoms: N3_30  and  C24_31
REMARK    8  A    between atoms: N3_30  and  C25_32
REMARK                            x       y       z     vdW  Elec       q    Type
REMARK                         _______ _______ _______ _____ _____    ______ ____
ROOT
ATOM      1  C6  UNL     1       8.642  10.683  28.819  0.00  0.00    +0.247 C 
ATOM      2  O3  UNL     1       7.441  10.932  29.104  0.00  0.00    -0.270 OA
ATOM      3  N1  UNL     1       8.943   9.801  27.717  0.00  0.00    -0.297 N 
ATOM      4  C7  UNL     1       8.003   8.748  27.321  0.00  0.00    +0.109 C 
ATOM      5  C8  UNL     1       7.499   9.021  25.902  0.00  0.00    +0.035 C 
ATOM      6  C9  UNL     1       8.661   9.131  24.877  0.00  0.00    +0.054 C 
ATOM      7  C10 UNL     1       9.706  10.178  25.391  0.00  0.00    +0.035 C 
ATOM      8  C11 UNL     1      10.120  10.008  26.864  0.00  0.00    +0.109 C 
ATOM      9  C12 UNL     1       8.067   9.672  23.538  0.00  0.00    +0.051 C 
ATOM     10  C13 UNL     1       8.965   9.404  22.352  0.00  0.00    -0.042 A 
ATOM     11  C14 UNL     1       9.780  10.424  21.840  0.00  0.00    +0.004 A 
ATOM     12  C15 UNL     1      10.677  10.152  20.807  0.00  0.00    +0.000 A 
ATOM     13  C16 UNL     1      10.771   8.862  20.280  0.00  0.00    +0.000 A 
ATOM     14  C17 UNL     1       9.975   7.835  20.791  0.00  0.00    +0.005 A 
ATOM     15  C18 UNL     1       9.076   8.094  21.843  0.00  0.00    -0.027 A 
ATOM     16  C19 UNL     1       8.287   6.967  22.471  0.00  0.00    +0.142 C 
ATOM     17  N2  UNL     1       8.712   6.713  23.861  0.00  0.00    -0.300 N 
ATOM     18  C20 UNL     1       8.835   5.321  24.301  0.00  0.00    +0.132 C 
ATOM     19  C21 UNL     1       9.304   7.741  24.694  0.00  0.00    +0.222 C 
ATOM     20  O4  UNL     1      10.355   7.454  25.330  0.00  0.00    -0.275 OA
ENDROOT
BRANCH   1  23
ATOM     21  C3  UNL     1      11.300  13.128  29.979  0.00  0.00    +0.061 A 
ATOM     22  C4  UNL     1      10.267  12.536  29.236  0.00  0.00    +0.028 A 
ATOM     23  C5  UNL     1       9.713  11.309  29.630  0.00  0.00    +0.039 A 
ATOM     24  C22 UNL     1      10.169  10.695  30.807  0.00  0.00    +0.036 A 
ATOM     25  C23 UNL     1      11.206  11.267  31.570  0.00  0.00    +0.031 A 
ATOM     26  C26 UNL     1      11.764  12.486  31.138  0.00  0.00    +0.038 A 
BRANCH  25  27
ATOM     27  N3  UNL     1      11.695  10.613  32.770  0.00  0.00    -0.336 N 
ATOM     28  C24 UNL     1      11.235  11.041  34.098  0.00  0.00    +0.129 C 
ATOM     29  C25 UNL     1      12.664   9.511  32.680  0.00  0.00    +0.129 C 
ENDBRANCH  25  27
BRANCH  21  30
ATOM     30  C2  UNL     1      11.919  14.395  29.535  0.00  0.00    +0.339 C 
ATOM     31  O2  UNL     1      12.739  14.996  30.280  0.00  0.00    -0.245 OA
BRANCH  30  33
ATOM     32  C1  UNL     1      12.444  14.822  27.156  0.00  0.00    +0.280 C 
ATOM     33  O1  UNL     1      11.589  14.928  28.287  0.00  0.00    -0.464 OA
ENDBRANCH  30  33
ENDBRANCH  21  30
ENDBRANCH   1  23
TORSDOF 4
ENDMDL
MODEL 4
REMARK VINA RESULT:    -6.827      8.048     13.086
REMARK INTER + INTRA:          -9.004
REMARK INTER:                  -8.748
REMARK INTRA:                  -0.256
REMARK UNBOUND:                -0.581
REMARK  Name = /home/qwerty/github/datacon2025hack/step_04_hit_selection/docking/ligands/lig_755.pdb
REMARK  8 active torsions:
REMARK  status: ('A' for Active; 'I' for Inactive)
REMARK    1  A    between atoms: C1_1  and  O1_2
REMARK    2  A    between atoms: O1_2  and  C2_3
REMARK    3  A    between atoms: C2_3  and  C3_5
REMARK    4  A    between atoms: C5_7  and  C6_8
REMARK    5  A    between atoms: N2_24  and  C20_25
REMARK    6  A    between atoms: C23_29  and  N3_30
REMARK    7  A    between atoms: N3_30  and  C24_31
REMARK    8  A    between atoms: N3_30  and  C25_32
REMARK                            x       y       z     vdW  Elec       q    Type
REMARK                         _______ _______ _______ _____ _____    ______ ____
ROOT
ATOM      1  C6  UNL     1       9.235  12.204  27.592  0.00  0.00    +0.247 C 
ATOM      2  O3  UNL     1       8.089  12.713  27.707  0.00  0.00    -0.270 OA
ATOM      3  N1  UNL     1       9.396  10.972  26.857  0.00  0.00    -0.297 N 
ATOM      4  C7  UNL     1       8.298  10.003  26.770  0.00  0.00    +0.109 C 
ATOM      5  C8  UNL     1       7.856   9.864  25.311  0.00  0.00    +0.035 C 
ATOM      6  C9  UNL     1       9.027   9.451  24.379  0.00  0.00    +0.054 C 
ATOM      7  C10 UNL     1      10.226  10.437  24.587  0.00  0.00    +0.035 C 
ATOM      8  C11 UNL     1      10.596  10.703  26.057  0.00  0.00    +0.109 C 
ATOM      9  C12 UNL     1       8.539   9.601  22.903  0.00  0.00    +0.051 C 
ATOM     10  C13 UNL     1       9.389   8.822  21.926  0.00  0.00    -0.042 A 
ATOM     11  C14 UNL     1      10.363   9.479  21.160  0.00  0.00    +0.004 A 
ATOM     12  C15 UNL     1      11.211   8.747  20.328  0.00  0.00    +0.000 A 
ATOM     13  C16 UNL     1      11.096   7.356  20.257  0.00  0.00    +0.000 A 
ATOM     14  C17 UNL     1      10.139   6.690  21.026  0.00  0.00    +0.005 A 
ATOM     15  C18 UNL     1       9.287   7.417  21.879  0.00  0.00    -0.027 A 
ATOM     16  C19 UNL     1       8.320   6.695  22.791  0.00  0.00    +0.142 C 
ATOM     17  N2  UNL     1       8.688   6.855  24.211  0.00  0.00    -0.300 N 
ATOM     18  C20 UNL     1       8.579   5.686  25.087  0.00  0.00    +0.132 C 
ATOM     19  C21 UNL     1       9.435   7.997  24.698  0.00  0.00    +0.222 C 
ATOM     20  O4  UNL     1      10.421   7.781  25.455  0.00  0.00    -0.275 OA
ENDROOT
BRANCH   1  23
ATOM     21  C3  UNL     1      12.487  14.115  27.994  0.00  0.00    +0.061 A 
ATOM     22  C4  UNL     1      11.375  13.483  27.415  0.00  0.00    +0.028 A 
ATOM     23  C5  UNL     1      10.389  12.893  28.218  0.00  0.00    +0.039 A 
ATOM     24  C22 UNL     1      10.496  12.979  29.615  0.00  0.00    +0.036 A 
ATOM     25  C23 UNL     1      11.602  13.607  30.221  0.00  0.00    +0.031 A 
ATOM     26  C26 UNL     1      12.593  14.169  29.392  0.00  0.00    +0.038 A 
BRANCH  25  27
ATOM     27  N3  UNL     1      11.724  13.667  31.667  0.00  0.00    -0.336 N 
ATOM     28  C24 UNL     1      11.998  14.943  32.343  0.00  0.00    +0.129 C 
ATOM     29  C25 UNL     1      11.580  12.452  32.481  0.00  0.00    +0.129 C 
ENDBRANCH  25  27
BRANCH  21  30
ATOM     30  C2  UNL     1      13.553  14.692  27.148  0.00  0.00    +0.339 C 
ATOM     31  O2  UNL     1      13.283  15.133  25.998  0.00  0.00    -0.245 OA
BRANCH  30  33
ATOM     32  C1  UNL     1      15.709  15.871  27.430  0.00  0.00    +0.280 C 
ATOM     33  O1  UNL     1      14.865  14.745  27.625  0.00  0.00    -0.464 OA
ENDBRANCH  30  33
ENDBRANCH  21  30
ENDBRANCH   1  23
TORSDOF 4
ENDMDL
MODEL 5
REMARK VINA RESULT:    -6.823     13.505     15.407
REMARK INTER + INTRA:          -9.000
REMARK INTER:                  -8.664
REMARK INTRA:                  -0.335
REMARK UNBOUND:                -0.581
REMARK  Name = /home/qwerty/github/datacon2025hack/step_04_hit_selection/docking/ligands/lig_755.pdb
REMARK  8 active torsions:
REMARK  status: ('A' for Active; 'I' for Inactive)
REMARK    1  A    between atoms: C1_1  and  O1_2
REMARK    2  A    between atoms: O1_2  and  C2_3
REMARK    3  A    between atoms: C2_3  and  C3_5
REMARK    4  A    between atoms: C5_7  and  C6_8
REMARK    5  A    between atoms: N2_24  and  C20_25
REMARK    6  A    between atoms: C23_29  and  N3_30
REMARK    7  A    between atoms: N3_30  and  C24_31
REMARK    8  A    between atoms: N3_30  and  C25_32
REMARK                            x       y       z     vdW  Elec       q    Type
REMARK                         _______ _______ _______ _____ _____    ______ ____
ROOT
ATOM      1  C6  UNL     1      14.869  -0.012  23.656  0.00  0.00    +0.247 C 
ATOM      2  O3  UNL     1      14.889  -1.256  23.462  0.00  0.00    -0.270 OA
ATOM      3  N1  UNL     1      15.730   0.566  24.660  0.00  0.00    -0.297 N 
ATOM      4  C7  UNL     1      16.149  -0.216  25.827  0.00  0.00    +0.109 C 
ATOM      5  C8  UNL     1      17.668  -0.403  25.799  0.00  0.00    +0.035 C 
ATOM      6  C9  UNL     1      18.425   0.951  25.746  0.00  0.00    +0.054 C 
ATOM      7  C10 UNL     1      17.869   1.810  24.560  0.00  0.00    +0.035 C 
ATOM      8  C11 UNL     1      16.334   1.892  24.487  0.00  0.00    +0.109 C 
ATOM      9  C12 UNL     1      19.928   0.648  25.448  0.00  0.00    +0.051 C 
ATOM     10  C13 UNL     1      20.838   1.798  25.813  0.00  0.00    -0.042 A 
ATOM     11  C14 UNL     1      21.317   2.661  24.816  0.00  0.00    +0.004 A 
ATOM     12  C15 UNL     1      22.079   3.777  25.162  0.00  0.00    +0.000 A 
ATOM     13  C16 UNL     1      22.367   4.042  26.504  0.00  0.00    +0.000 A 
ATOM     14  C17 UNL     1      21.884   3.198  27.506  0.00  0.00    +0.005 A 
ATOM     15  C18 UNL     1      21.102   2.076  27.169  0.00  0.00    -0.027 A 
ATOM     16  C19 UNL     1      20.489   1.217  28.253  0.00  0.00    +0.142 C 
ATOM     17  N2  UNL     1      19.019   1.333  28.273  0.00  0.00    -0.300 N 
ATOM     18  C20 UNL     1      18.351   1.416  29.574  0.00  0.00    +0.132 C 
ATOM     19  C21 UNL     1      18.249   1.680  27.095  0.00  0.00    +0.222 C 
ATOM     20  O4  UNL     1      17.366   2.574  27.207  0.00  0.00    -0.275 OA
ENDROOT
BRANCH   1  23
ATOM     21  C3  UNL     1      11.690   1.516  22.261  0.00  0.00    +0.061 A 
ATOM     22  C4  UNL     1      12.569   0.751  23.043  0.00  0.00    +0.028 A 
ATOM     23  C5  UNL     1      13.955   0.824  22.840  0.00  0.00    +0.039 A 
ATOM     24  C22 UNL     1      14.464   1.706  21.875  0.00  0.00    +0.036 A 
ATOM     25  C23 UNL     1      13.603   2.483  21.075  0.00  0.00    +0.031 A 
ATOM     26  C26 UNL     1      12.214   2.373  21.280  0.00  0.00    +0.038 A 
BRANCH  25  27
ATOM     27  N3  UNL     1      14.133   3.372  20.057  0.00  0.00    -0.336 N 
ATOM     28  C24 UNL     1      13.237   4.234  19.274  0.00  0.00    +0.129 C 
ATOM     29  C25 UNL     1      15.577   3.424  19.787  0.00  0.00    +0.129 C 
ENDBRANCH  25  27
BRANCH  21  30
ATOM     30  C2  UNL     1      10.227   1.402  22.439  0.00  0.00    +0.339 C 
ATOM     31  O2  UNL     1       9.678   0.268  22.480  0.00  0.00    -0.245 OA
BRANCH  30  33
ATOM     32  C1  UNL     1       9.555   3.442  23.665  0.00  0.00    +0.280 C 
ATOM     33  O1  UNL     1       9.450   2.557  22.558  0.00  0.00    -0.464 OA
ENDBRANCH  30  33
ENDBRANCH  21  30
ENDBRANCH   1  23
TORSDOF 4
ENDMDL
MODEL 6
REMARK VINA RESULT:    -6.783     13.177     15.734
REMARK INTER + INTRA:          -8.950
REMARK INTER:                  -8.359
REMARK INTRA:                  -0.591
REMARK UNBOUND:                -0.581
REMARK  Name = /home/qwerty/github/datacon2025hack/step_04_hit_selection/docking/ligands/lig_755.pdb
REMARK  8 active torsions:
REMARK  status: ('A' for Active; 'I' for Inactive)
REMARK    1  A    between atoms: C1_1  and  O1_2
REMARK    2  A    between atoms: O1_2  and  C2_3
REMARK    3  A    between atoms: C2_3  and  C3_5
REMARK    4  A    between atoms: C5_7  and  C6_8
REMARK    5  A    between atoms: N2_24  and  C20_25
REMARK    6  A    between atoms: C23_29  and  N3_30
REMARK    7  A    between atoms: N3_30  and  C24_31
REMARK    8  A    between atoms: N3_30  and  C25_32
REMARK                            x       y       z     vdW  Elec       q    Type
REMARK                         _______ _______ _______ _____ _____    ______ ____
ROOT
ATOM      1  C6  UNL     1       8.563   5.730  22.864  0.00  0.00    +0.247 C 
ATOM      2  O3  UNL     1       7.527   5.217  22.365  0.00  0.00    -0.270 OA
ATOM      3  N1  UNL     1       9.737   4.913  23.061  0.00  0.00    -0.297 N 
ATOM      4  C7  UNL     1       9.616   3.469  23.284  0.00  0.00    +0.109 C 
ATOM      5  C8  UNL     1      10.284   2.716  22.131  0.00  0.00    +0.035 C 
ATOM      6  C9  UNL     1      11.772   3.120  21.950  0.00  0.00    +0.054 C 
ATOM      7  C10 UNL     1      11.876   4.679  21.835  0.00  0.00    +0.035 C 
ATOM      8  C11 UNL     1      11.090   5.459  22.905  0.00  0.00    +0.109 C 
ATOM      9  C12 UNL     1      12.273   2.510  20.603  0.00  0.00    +0.051 C 
ATOM     10  C13 UNL     1      13.780   2.435  20.522  0.00  0.00    -0.042 A 
ATOM     11  C14 UNL     1      14.495   3.397  19.792  0.00  0.00    +0.004 A 
ATOM     12  C15 UNL     1      15.890   3.383  19.795  0.00  0.00    +0.000 A 
ATOM     13  C16 UNL     1      16.582   2.414  20.526  0.00  0.00    +0.000 A 
ATOM     14  C17 UNL     1      15.881   1.460  21.267  0.00  0.00    +0.005 A 
ATOM     15  C18 UNL     1      14.473   1.472  21.283  0.00  0.00    -0.027 A 
ATOM     16  C19 UNL     1      13.710   0.509  22.164  0.00  0.00    +0.142 C 
ATOM     17  N2  UNL     1      13.008   1.210  23.257  0.00  0.00    -0.300 N 
ATOM     18  C20 UNL     1      13.025   0.601  24.589  0.00  0.00    +0.132 C 
ATOM     19  C21 UNL     1      12.586   2.592  23.151  0.00  0.00    +0.222 C 
ATOM     20  O4  UNL     1      12.853   3.368  24.109  0.00  0.00    -0.275 OA
ENDROOT
BRANCH   1  23
ATOM     21  C3  UNL     1       8.471   9.510  22.568  0.00  0.00    +0.061 A 
ATOM     22  C4  UNL     1       8.464   8.147  22.235  0.00  0.00    +0.028 A 
ATOM     23  C5  UNL     1       8.542   7.166  23.234  0.00  0.00    +0.039 A 
ATOM     24  C22 UNL     1       8.581   7.557  24.581  0.00  0.00    +0.036 A 
ATOM     25  C23 UNL     1       8.591   8.918  24.942  0.00  0.00    +0.031 A 
ATOM     26  C26 UNL     1       8.538   9.885  23.919  0.00  0.00    +0.038 A 
BRANCH  25  27
ATOM     27  N3  UNL     1       8.661   9.318  26.336  0.00  0.00    -0.336 N 
ATOM     28  C24 UNL     1       8.275  10.675  26.746  0.00  0.00    +0.129 C 
ATOM     29  C25 UNL     1       9.124   8.374  27.363  0.00  0.00    +0.129 C 
ENDBRANCH  25  27
BRANCH  21  30
ATOM     30  C2  UNL     1       8.440  10.545  21.513  0.00  0.00    +0.339 C 
ATOM     31  O2  UNL     1       7.720  11.570  21.649  0.00  0.00    -0.245 OA
BRANCH  30  33
ATOM     32  C1  UNL     1      10.632  10.388  20.378  0.00  0.00    +0.280 C 
ATOM     33  O1  UNL     1       9.211  10.383  20.359  0.00  0.00    -0.464 OA
ENDBRANCH  30  33
ENDBRANCH  21  30
ENDBRANCH   1  23
TORSDOF 4
ENDMDL
MODEL 7
REMARK VINA RESULT:    -6.765      7.560     12.525
REMARK INTER + INTRA:          -8.928
REMARK INTER:                  -8.455
REMARK INTRA:                  -0.473
REMARK UNBOUND:                -0.581
REMARK  Name = /home/qwerty/github/datacon2025hack/step_04_hit_selection/docking/ligands/lig_755.pdb
REMARK  8 active torsions:
REMARK  status: ('A' for Active; 'I' for Inactive)
REMARK    1  A    between atoms: C1_1  and  O1_2
REMARK    2  A    between atoms: O1_2  and  C2_3
REMARK    3  A    between atoms: C2_3  and  C3_5
REMARK    4  A    between atoms: C5_7  and  C6_8
REMARK    5  A    between atoms: N2_24  and  C20_25
REMARK    6  A    between atoms: C23_29  and  N3_30
REMARK    7  A    between atoms: N3_30  and  C24_31
REMARK    8  A    between atoms: N3_30  and  C25_32
REMARK                            x       y       z     vdW  Elec       q    Type
REMARK                         _______ _______ _______ _____ _____    ______ ____
ROOT
ATOM      1  C6  UNL     1       8.714  10.875  28.771  0.00  0.00    +0.247 C 
ATOM      2  O3  UNL     1       7.526  11.200  29.034  0.00  0.00    -0.270 OA
ATOM      3  N1  UNL     1       8.978   9.958  27.688  0.00  0.00    -0.297 N 
ATOM      4  C7  UNL     1       7.982   8.956  27.296  0.00  0.00    +0.109 C 
ATOM      5  C8  UNL     1       7.515   9.233  25.865  0.00  0.00    +0.035 C 
ATOM      6  C9  UNL     1       8.695   9.257  24.857  0.00  0.00    +0.054 C 
ATOM      7  C10 UNL     1       9.794  10.249  25.368  0.00  0.00    +0.035 C 
ATOM      8  C11 UNL     1      10.176  10.080  26.850  0.00  0.00    +0.109 C 
ATOM      9  C12 UNL     1       8.153   9.808  23.500  0.00  0.00    +0.051 C 
ATOM     10  C13 UNL     1       9.049   9.467  22.332  0.00  0.00    -0.042 A 
ATOM     11  C14 UNL     1       9.930  10.428  21.815  0.00  0.00    +0.004 A 
ATOM     12  C15 UNL     1      10.824  10.085  20.800  0.00  0.00    +0.000 A 
ATOM     13  C16 UNL     1      10.849   8.782  20.296  0.00  0.00    +0.000 A 
ATOM     14  C17 UNL     1       9.986   7.813  20.812  0.00  0.00    +0.005 A 
ATOM     15  C18 UNL     1       9.089   8.144  21.846  0.00  0.00    -0.027 A 
ATOM     16  C19 UNL     1       8.226   7.076  22.481  0.00  0.00    +0.142 C 
ATOM     17  N2  UNL     1       8.616   6.823  23.881  0.00  0.00    -0.300 N 
ATOM     18  C20 UNL     1       8.651   5.434  24.346  0.00  0.00    +0.132 C 
ATOM     19  C21 UNL     1       9.257   7.827  24.706  0.00  0.00    +0.222 C 
ATOM     20  O4  UNL     1      10.280   7.490  25.362  0.00  0.00    -0.275 OA
ENDROOT
BRANCH   1  23
ATOM     21  C3  UNL     1      11.216  11.374  31.578  0.00  0.00    +0.061 A 
ATOM     22  C4  UNL     1      10.199  10.826  30.780  0.00  0.00    +0.028 A 
ATOM     23  C5  UNL     1       9.809  11.451  29.588  0.00  0.00    +0.039 A 
ATOM     24  C22 UNL     1      10.478  12.612  29.169  0.00  0.00    +0.036 A 
ATOM     25  C23 UNL     1      11.500  13.183  29.952  0.00  0.00    +0.031 A 
ATOM     26  C26 UNL     1      11.856  12.550  31.159  0.00  0.00    +0.038 A 
BRANCH  25  27
ATOM     27  N3  UNL     1      12.169  14.402  29.529  0.00  0.00    -0.336 N 
ATOM     28  C24 UNL     1      11.896  14.987  28.210  0.00  0.00    +0.129 C 
ATOM     29  C25 UNL     1      13.134  15.070  30.414  0.00  0.00    +0.129 C 
ENDBRANCH  25  27
BRANCH  21  30
ATOM     30  C2  UNL     1      11.592  10.743  32.861  0.00  0.00    +0.339 C 
ATOM     31  O2  UNL     1      12.515   9.885  32.901  0.00  0.00    -0.245 OA
BRANCH  30  33
ATOM     32  C1  UNL     1      11.295  12.213  34.828  0.00  0.00    +0.280 C 
ATOM     33  O1  UNL     1      10.918  11.097  34.032  0.00  0.00    -0.464 OA
ENDBRANCH  30  33
ENDBRANCH  21  30
ENDBRANCH   1  23
TORSDOF 4
ENDMDL
MODEL 8
REMARK VINA RESULT:    -6.763     13.484     15.673
REMARK INTER + INTRA:          -8.924
REMARK INTER:                  -8.505
REMARK INTRA:                  -0.419
REMARK UNBOUND:                -0.581
REMARK  Name = /home/qwerty/github/datacon2025hack/step_04_hit_selection/docking/ligands/lig_755.pdb
REMARK  8 active torsions:
REMARK  status: ('A' for Active; 'I' for Inactive)
REMARK    1  A    between atoms: C1_1  and  O1_2
REMARK    2  A    between atoms: O1_2  and  C2_3
REMARK    3  A    between atoms: C2_3  and  C3_5
REMARK    4  A    between atoms: C5_7  and  C6_8
REMARK    5  A    between atoms: N2_24  and  C20_25
REMARK    6  A    between atoms: C23_29  and  N3_30
REMARK    7  A    between atoms: N3_30  and  C24_31
REMARK    8  A    between atoms: N3_30  and  C25_32
REMARK                            x       y       z     vdW  Elec       q    Type
REMARK                         _______ _______ _______ _____ _____    ______ ____
ROOT
ATOM      1  C6  UNL     1      14.932   0.074  23.567  0.00  0.00    +0.247 C 
ATOM      2  O3  UNL     1      14.946  -1.168  23.359  0.00  0.00    -0.270 OA
ATOM      3  N1  UNL     1      15.787   0.634  24.586  0.00  0.00    -0.297 N 
ATOM      4  C7  UNL     1      16.189  -0.163  25.749  0.00  0.00    +0.109 C 
ATOM      5  C8  UNL     1      17.707  -0.359  25.733  0.00  0.00    +0.035 C 
ATOM      6  C9  UNL     1      18.473   0.990  25.704  0.00  0.00    +0.054 C 
ATOM      7  C10 UNL     1      17.934   1.866  24.522  0.00  0.00    +0.035 C 
ATOM      8  C11 UNL     1      16.400   1.959  24.435  0.00  0.00    +0.109 C 
ATOM      9  C12 UNL     1      19.977   0.681  25.417  0.00  0.00    +0.051 C 
ATOM     10  C13 UNL     1      20.890   1.821  25.804  0.00  0.00    -0.042 A 
ATOM     11  C14 UNL     1      21.384   2.692  24.822  0.00  0.00    +0.004 A 
ATOM     12  C15 UNL     1      22.150   3.799  25.189  0.00  0.00    +0.000 A 
ATOM     13  C16 UNL     1      22.426   4.047  26.536  0.00  0.00    +0.000 A 
ATOM     14  C17 UNL     1      21.928   3.194  27.524  0.00  0.00    +0.005 A 
ATOM     15  C18 UNL     1      21.142   2.081  27.166  0.00  0.00    -0.027 A 
ATOM     16  C19 UNL     1      20.513   1.214  28.234  0.00  0.00    +0.142 C 
ATOM     17  N2  UNL     1      19.043   1.339  28.240  0.00  0.00    -0.300 N 
ATOM     18  C20 UNL     1      18.364   1.411  29.536  0.00  0.00    +0.132 C 
ATOM     19  C21 UNL     1      18.287   1.704  27.059  0.00  0.00    +0.222 C 
ATOM     20  O4  UNL     1      17.409   2.603  27.173  0.00  0.00    -0.275 OA
ENDROOT
BRANCH   1  23
ATOM     21  C3  UNL     1      13.718   2.536  20.950  0.00  0.00    +0.061 A 
ATOM     22  C4  UNL     1      14.554   1.706  21.713  0.00  0.00    +0.028 A 
ATOM     23  C5  UNL     1      14.031   0.925  22.753  0.00  0.00    +0.039 A 
ATOM     24  C22 UNL     1      12.649   0.943  22.999  0.00  0.00    +0.036 A 
ATOM     25  C23 UNL     1      11.789   1.769  22.250  0.00  0.00    +0.031 A 
ATOM     26  C26 UNL     1      12.342   2.564  21.227  0.00  0.00    +0.038 A 
BRANCH  25  27
ATOM     27  N3  UNL     1      10.364   1.807  22.528  0.00  0.00    -0.336 N 
ATOM     28  C24 UNL     1       9.691   0.658  23.151  0.00  0.00    +0.129 C 
ATOM     29  C25 UNL     1       9.567   2.995  22.189  0.00  0.00    +0.129 C 
ENDBRANCH  25  27
BRANCH  21  30
ATOM     30  C2  UNL     1      14.276   3.399  19.887  0.00  0.00    +0.339 C 
ATOM     31  O2  UNL     1      13.527   4.186  19.249  0.00  0.00    -0.245 OA
BRANCH  30  33
ATOM     32  C1  UNL     1      16.526   4.423  19.813  0.00  0.00    +0.280 C 
ATOM     33  O1  UNL     1      15.640   3.336  19.587  0.00  0.00    -0.464 OA
ENDBRANCH  30  33
ENDBRANCH  21  30
ENDBRANCH   1  23
TORSDOF 4
ENDMDL
MODEL 9
REMARK VINA RESULT:    -6.750      4.927      8.300
REMARK INTER + INTRA:          -8.909
REMARK INTER:                  -8.395
REMARK INTRA:                  -0.514
REMARK UNBOUND:                -0.581
REMARK  Name = /home/qwerty/github/datacon2025hack/step_04_hit_selection/docking/ligands/lig_755.pdb
REMARK  8 active torsions:
REMARK  status: ('A' for Active; 'I' for Inactive)
REMARK    1  A    between atoms: C1_1  and  O1_2
REMARK    2  A    between atoms: O1_2  and  C2_3
REMARK    3  A    between atoms: C2_3  and  C3_5
REMARK    4  A    between atoms: C5_7  and  C6_8
REMARK    5  A    between atoms: N2_24  and  C20_25
REMARK    6  A    between atoms: C23_29  and  N3_30
REMARK    7  A    between atoms: N3_30  and  C24_31
REMARK    8  A    between atoms: N3_30  and  C25_32
REMARK                            x       y       z     vdW  Elec       q    Type
REMARK                         _______ _______ _______ _____ _____    ______ ____
ROOT
ATOM      1  C6  UNL     1      10.796  13.046  28.558  0.00  0.00    +0.247 C 
ATOM      2  O3  UNL     1      10.454  14.214  28.233  0.00  0.00    -0.270 OA
ATOM      3  N1  UNL     1      11.665  12.849  29.693  0.00  0.00    -0.297 N 
ATOM      4  C7  UNL     1      12.621  13.886  30.094  0.00  0.00    +0.109 C 
ATOM      5  C8  UNL     1      12.261  14.399  31.490  0.00  0.00    +0.035 C 
ATOM      6  C9  UNL     1      12.218  13.258  32.542  0.00  0.00    +0.054 C 
ATOM      7  C10 UNL     1      11.281  12.113  32.026  0.00  0.00    +0.035 C 
ATOM      8  C11 UNL     1      11.533  11.680  30.571  0.00  0.00    +0.109 C 
ATOM      9  C12 UNL     1      11.586  13.835  33.848  0.00  0.00    +0.051 C 
ATOM     10  C13 UNL     1      11.893  12.994  35.065  0.00  0.00    -0.042 A 
ATOM     11  C14 UNL     1      10.930  12.106  35.569  0.00  0.00    +0.004 A 
ATOM     12  C15 UNL     1      11.245  11.262  36.634  0.00  0.00    +0.000 A 
ATOM     13  C16 UNL     1      12.522  11.292  37.201  0.00  0.00    +0.000 A 
ATOM     14  C17 UNL     1      13.493  12.162  36.699  0.00  0.00    +0.005 A 
ATOM     15  C18 UNL     1      13.191  13.009  35.616  0.00  0.00    -0.027 A 
ATOM     16  C19 UNL     1      14.265  13.877  35.000  0.00  0.00    +0.142 C 
ATOM     17  N2  UNL     1      14.598  13.441  33.630  0.00  0.00    -0.300 N 
ATOM     18  C20 UNL     1      16.009  13.428  33.235  0.00  0.00    +0.132 C 
ATOM     19  C21 UNL     1      13.652  12.742  32.784  0.00  0.00    +0.222 C 
ATOM     20  O4  UNL     1      14.048  11.704  32.185  0.00  0.00    -0.275 OA
ENDROOT
BRANCH   1  23
ATOM     21  C3  UNL     1       8.639  10.144  27.411  0.00  0.00    +0.061 A 
ATOM     22  C4  UNL     1       9.116  11.243  28.143  0.00  0.00    +0.028 A 
ATOM     23  C5  UNL     1      10.290  11.905  27.757  0.00  0.00    +0.039 A 
ATOM     24  C22 UNL     1      10.965  11.489  26.600  0.00  0.00    +0.036 A 
ATOM     25  C23 UNL     1      10.509  10.389  25.848  0.00  0.00    +0.031 A 
ATOM     26  C26 UNL     1       9.342   9.724  26.271  0.00  0.00    +0.038 A 
BRANCH  25  27
ATOM     27  N3  UNL     1      11.228   9.944  24.667  0.00  0.00    -0.336 N 
ATOM     28  C24 UNL     1      10.798  10.362  23.326  0.00  0.00    +0.129 C 
ATOM     29  C25 UNL     1      12.398   9.062  24.792  0.00  0.00    +0.129 C 
ENDBRANCH  25  27
BRANCH  21  30
ATOM     30  C2  UNL     1       7.430   9.414  27.847  0.00  0.00    +0.339 C 
ATOM     31  O2  UNL     1       6.940   8.507  27.122  0.00  0.00    -0.245 OA
BRANCH  30  33
ATOM     32  C1  UNL     1       7.060   8.993  30.256  0.00  0.00    +0.280 C 
ATOM     33  O1  UNL     1       6.827   9.734  29.066  0.00  0.00    -0.464 OA
ENDBRANCH  30  33
ENDBRANCH  21  30
ENDBRANCH   1  23
TORSDOF 4
ENDMDL
