MODEL 1
REMARK VINA RESULT:    -6.831      0.000      0.000
REMARK INTER + INTRA:         -12.765
REMARK INTER:                  -9.227
REMARK INTRA:                  -3.538
REMARK UNBOUND:                -3.538
REMARK  Name = /home/qwerty/github/datacon2025hack/step_04_hit_selection/docking/ligands/lig_35.pdb
REMARK  7 active torsions:
REMARK  status: ('A' for Active; 'I' for Inactive)
REMARK    1  A    between atoms: C1_1  and  C2_2
REMARK    2  A    between atoms: C2_2  and  N1_3
REMARK    3  A    between atoms: C2_2  and  C25_30
REMARK    4  A    between atoms: C3_4  and  C4_6
REMARK    5  A    between atoms: C9_11  and  N2_12
REMARK    6  A    between atoms: C10_13  and  C11_15
REMARK    7  A    between atoms: C16_20  and  C17_21
REMARK                            x       y       z     vdW  Elec       q    Type
REMARK                         _______ _______ _______ _____ _____    ______ ____
ROOT
ATOM      1  N2  UNL     1      14.298  14.409  29.190  0.00  0.00    -0.281 N 
ATOM      2  C10 UNL     1      13.109  14.738  29.924  0.00  0.00    +0.249 C 
ATOM      3  O2  UNL     1      13.175  15.457  30.960  0.00  0.00    -0.270 OA
ATOM      4  H10 UNL     1      14.199  14.042  28.210  0.00  0.00    +0.155 HD
ENDROOT
BRANCH   1  10
ATOM      5  C4  UNL     1      16.333  14.000  30.540  0.00  0.00    +0.058 A 
ATOM      6  C5  UNL     1      17.573  14.467  31.012  0.00  0.00    +0.015 A 
ATOM      7  C6  UNL     1      18.075  15.703  30.594  0.00  0.00    +0.001 A 
ATOM      8  C7  UNL     1      17.352  16.484  29.697  0.00  0.00    +0.002 A 
ATOM      9  C8  UNL     1      16.122  16.036  29.217  0.00  0.00    +0.024 A 
ATOM     10  C9  UNL     1      15.601  14.803  29.635  0.00  0.00    +0.046 A 
BRANCH   5  12
ATOM     11  N1  UNL     1      15.278  12.404  32.206  0.00  0.00    -0.305 N 
ATOM     12  C3  UNL     1      15.871  12.643  30.922  0.00  0.00    +0.246 C 
ATOM     13  O1  UNL     1      16.027  11.678  30.121  0.00  0.00    -0.270 OA
ATOM     14  H5  UNL     1      14.834  13.202  32.711  0.00  0.00    +0.150 HD
BRANCH  11  16
ATOM     15  C1  UNL     1      14.420  10.121  32.514  0.00  0.00    +0.033 C 
ATOM     16  C2  UNL     1      15.482  11.147  32.928  0.00  0.00    +0.100 C 
BRANCH  16  17
ATOM     17  C25 UNL     1      15.498  11.427  34.417  0.00  0.00    -0.027 A 
ATOM     18  C26 UNL     1      15.400  10.389  35.367  0.00  0.00    +0.005 A 
ATOM     19  C27 UNL     1      15.371  10.687  36.732  0.00  0.00    +0.000 A 
ATOM     20  C28 UNL     1      15.404  12.018  37.162  0.00  0.00    +0.000 A 
ATOM     21  C29 UNL     1      15.458  13.055  36.229  0.00  0.00    +0.000 A 
ATOM     22  C30 UNL     1      15.502  12.764  34.864  0.00  0.00    +0.005 A 
ENDBRANCH  16  17
ENDBRANCH  11  16
ENDBRANCH   5  12
ENDBRANCH   1  10
BRANCH   2  23
ATOM     23  C11 UNL     1      11.793  14.289  29.429  0.00  0.00    +0.046 A 
ATOM     24  C12 UNL     1      11.453  14.555  28.090  0.00  0.00    +0.014 A 
ATOM     25  C13 UNL     1      10.274  14.046  27.544  0.00  0.00    +0.001 A 
ATOM     26  C14 UNL     1       9.420  13.270  28.327  0.00  0.00    +0.001 A 
ATOM     27  C15 UNL     1       9.734  13.010  29.665  0.00  0.00    +0.011 A 
ATOM     28  C16 UNL     1      10.913  13.523  30.236  0.00  0.00    +0.010 A 
BRANCH  28  29
ATOM     29  C17 UNL     1      11.172  13.292  31.677  0.00  0.00    +0.048 A 
ATOM     30  C18 UNL     1      11.419  12.050  32.261  0.00  0.00    +0.036 A 
ATOM     31  C19 UNL     1      11.557  12.310  33.610  0.00  0.00    +0.000 A 
ATOM     32  C20 UNL     1      11.835  11.457  34.679  0.00  0.00    +0.010 A 
ATOM     33  C21 UNL     1      11.925  12.021  35.970  0.00  0.00    +0.001 A 
ATOM     34  C22 UNL     1      11.729  13.407  36.157  0.00  0.00    +0.002 A 
ATOM     35  C23 UNL     1      11.461  14.244  35.055  0.00  0.00    +0.026 A 
ATOM     36  C24 UNL     1      11.383  13.657  33.790  0.00  0.00    +0.047 A 
ATOM     37  N3  UNL     1      11.142  14.268  32.618  0.00  0.00    -0.354 N 
ATOM     38  H20 UNL     1      10.945  15.283  32.474  0.00  0.00    +0.166 HD
ENDBRANCH  28  29
ENDBRANCH   2  23
TORSDOF 6
ENDMDL
MODEL 2
REMARK VINA RESULT:    -6.784      5.329      8.268
REMARK INTER + INTRA:         -12.702
REMARK INTER:                  -9.157
REMARK INTRA:                  -3.545
REMARK UNBOUND:                -3.538
REMARK  Name = /home/qwerty/github/datacon2025hack/step_04_hit_selection/docking/ligands/lig_35.pdb
REMARK  7 active torsions:
REMARK  status: ('A' for Active; 'I' for Inactive)
REMARK    1  A    between atoms: C1_1  and  C2_2
REMARK    2  A    between atoms: C2_2  and  N1_3
REMARK    3  A    between atoms: C2_2  and  C25_30
REMARK    4  A    between atoms: C3_4  and  C4_6
REMARK    5  A    between atoms: C9_11  and  N2_12
REMARK    6  A    between atoms: C10_13  and  C11_15
REMARK    7  A    between atoms: C16_20  and  C17_21
REMARK                            x       y       z     vdW  Elec       q    Type
REMARK                         _______ _______ _______ _____ _____    ______ ____
ROOT
ATOM      1  N2  UNL     1       8.960   7.827  25.680  0.00  0.00    -0.281 N 
ATOM      2  C10 UNL     1       7.824   8.263  26.442  0.00  0.00    +0.249 C 
ATOM      3  O2  UNL     1       7.169   9.282  26.088  0.00  0.00    -0.270 OA
ATOM      4  H10 UNL     1       9.323   6.852  25.830  0.00  0.00    +0.155 HD
ENDROOT
BRANCH   1  10
ATOM      5  C4  UNL     1      10.639   9.315  24.632  0.00  0.00    +0.058 A 
ATOM      6  C5  UNL     1      11.033  10.085  23.522  0.00  0.00    +0.015 A 
ATOM      7  C6  UNL     1      10.261  10.104  22.357  0.00  0.00    +0.001 A 
ATOM      8  C7  UNL     1       9.091   9.353  22.282  0.00  0.00    +0.002 A 
ATOM      9  C8  UNL     1       8.686   8.582  23.371  0.00  0.00    +0.024 A 
ATOM     10  C9  UNL     1       9.445   8.561  24.549  0.00  0.00    +0.046 A 
BRANCH   5  12
ATOM     11  N1  UNL     1      11.518  10.268  26.812  0.00  0.00    -0.305 N 
ATOM     12  C3  UNL     1      11.527   9.236  25.817  0.00  0.00    +0.246 C 
ATOM     13  O1  UNL     1      12.324   8.262  25.940  0.00  0.00    -0.270 OA
ATOM     14  H5  UNL     1      10.665  10.861  26.914  0.00  0.00    +0.150 HD
BRANCH  11  16
ATOM     15  C1  UNL     1      12.901   9.842  28.800  0.00  0.00    +0.033 C 
ATOM     16  C2  UNL     1      12.735  10.669  27.519  0.00  0.00    +0.100 C 
BRANCH  16  17
ATOM     17  C25 UNL     1      12.695  12.163  27.769  0.00  0.00    -0.027 A 
ATOM     18  C26 UNL     1      13.527  12.776  28.729  0.00  0.00    +0.005 A 
ATOM     19  C27 UNL     1      13.431  14.149  28.968  0.00  0.00    +0.000 A 
ATOM     20  C28 UNL     1      12.484  14.917  28.281  0.00  0.00    +0.000 A 
ATOM     21  C29 UNL     1      11.626  14.314  27.360  0.00  0.00    +0.000 A 
ATOM     22  C30 UNL     1      11.727  12.944  27.106  0.00  0.00    +0.005 A 
ENDBRANCH  16  17
ENDBRANCH  11  16
ENDBRANCH   5  12
ENDBRANCH   1  10
BRANCH   2  23
ATOM     23  C11 UNL     1       7.379   7.477  27.610  0.00  0.00    +0.046 A 
ATOM     24  C12 UNL     1       6.783   6.222  27.387  0.00  0.00    +0.014 A 
ATOM     25  C13 UNL     1       6.457   5.392  28.460  0.00  0.00    +0.001 A 
ATOM     26  C14 UNL     1       6.717   5.806  29.767  0.00  0.00    +0.001 A 
ATOM     27  C15 UNL     1       7.293   7.058  30.007  0.00  0.00    +0.011 A 
ATOM     28  C16 UNL     1       7.619   7.912  28.938  0.00  0.00    +0.010 A 
BRANCH  28  29
ATOM     29  C17 UNL     1       8.154   9.263  29.237  0.00  0.00    +0.048 A 
ATOM     30  C18 UNL     1       9.340   9.524  29.923  0.00  0.00    +0.036 A 
ATOM     31  C19 UNL     1       9.411  10.901  30.002  0.00  0.00    +0.000 A 
ATOM     32  C20 UNL     1      10.383  11.733  30.558  0.00  0.00    +0.010 A 
ATOM     33  C21 UNL     1      10.183  13.128  30.482  0.00  0.00    +0.001 A 
ATOM     34  C22 UNL     1       9.024  13.649  29.865  0.00  0.00    +0.002 A 
ATOM     35  C23 UNL     1       8.065  12.782  29.303  0.00  0.00    +0.026 A 
ATOM     36  C24 UNL     1       8.295  11.407  29.390  0.00  0.00    +0.047 A 
ATOM     37  N3  UNL     1       7.516  10.416  28.922  0.00  0.00    -0.354 N 
ATOM     38  H20 UNL     1       6.595  10.523  28.441  0.00  0.00    +0.166 HD
ENDBRANCH  28  29
ENDBRANCH   2  23
TORSDOF 6
ENDMDL
MODEL 3
REMARK VINA RESULT:    -6.693      1.279      5.559
REMARK INTER + INTRA:         -12.579
REMARK INTER:                  -9.109
REMARK INTRA:                  -3.469
REMARK UNBOUND:                -3.538
REMARK  Name = /home/qwerty/github/datacon2025hack/step_04_hit_selection/docking/ligands/lig_35.pdb
REMARK  7 active torsions:
REMARK  status: ('A' for Active; 'I' for Inactive)
REMARK    1  A    between atoms: C1_1  and  C2_2
REMARK    2  A    between atoms: C2_2  and  N1_3
REMARK    3  A    between atoms: C2_2  and  C25_30
REMARK    4  A    between atoms: C3_4  and  C4_6
REMARK    5  A    between atoms: C9_11  and  N2_12
REMARK    6  A    between atoms: C10_13  and  C11_15
REMARK    7  A    between atoms: C16_20  and  C17_21
REMARK                            x       y       z     vdW  Elec       q    Type
REMARK                         _______ _______ _______ _____ _____    ______ ____
ROOT
ATOM      1  N2  UNL     1      14.153  14.559  30.310  0.00  0.00    -0.281 N 
ATOM      2  C10 UNL     1      15.196  13.599  30.539  0.00  0.00    +0.249 C 
ATOM      3  O2  UNL     1      14.968  12.364  30.413  0.00  0.00    -0.270 OA
ATOM      4  H10 UNL     1      14.418  15.565  30.163  0.00  0.00    +0.155 HD
ENDROOT
BRANCH   1  10
ATOM      5  C4  UNL     1      11.855  14.007  31.047  0.00  0.00    +0.058 A 
ATOM      6  C5  UNL     1      10.569  13.541  30.718  0.00  0.00    +0.015 A 
ATOM      7  C6  UNL     1      10.237  13.240  29.394  0.00  0.00    +0.001 A 
ATOM      8  C7  UNL     1      11.179  13.406  28.382  0.00  0.00    +0.002 A 
ATOM      9  C8  UNL     1      12.458  13.869  28.689  0.00  0.00    +0.024 A 
ATOM     10  C9  UNL     1      12.808  14.165  30.014  0.00  0.00    +0.046 A 
BRANCH   5  12
ATOM     11  N1  UNL     1      12.262  13.431  33.483  0.00  0.00    -0.305 N 
ATOM     12  C3  UNL     1      12.149  14.411  32.444  0.00  0.00    +0.246 C 
ATOM     13  O1  UNL     1      12.272  15.637  32.729  0.00  0.00    -0.270 OA
ATOM     14  H5  UNL     1      12.510  12.450  33.226  0.00  0.00    +0.150 HD
BRANCH  11  16
ATOM     15  C1  UNL     1      12.870  14.523  35.601  0.00  0.00    +0.033 C 
ATOM     16  C2  UNL     1      11.814  13.701  34.851  0.00  0.00    +0.100 C 
BRANCH  16  17
ATOM     17  C25 UNL     1      11.480  12.390  35.532  0.00  0.00    -0.027 A 
ATOM     18  C26 UNL     1      11.338  12.297  36.933  0.00  0.00    +0.005 A 
ATOM     19  C27 UNL     1      11.076  11.063  37.532  0.00  0.00    +0.000 A 
ATOM     20  C28 UNL     1      10.986   9.906  36.749  0.00  0.00    +0.000 A 
ATOM     21  C29 UNL     1      11.167   9.979  35.367  0.00  0.00    +0.000 A 
ATOM     22  C30 UNL     1      11.415  11.212  34.760  0.00  0.00    +0.005 A 
ENDBRANCH  16  17
ENDBRANCH  11  16
ENDBRANCH   5  12
ENDBRANCH   1  10
BRANCH   2  23
ATOM     23  C11 UNL     1      16.561  14.061  30.859  0.00  0.00    +0.046 A 
ATOM     24  C12 UNL     1      17.247  14.838  29.907  0.00  0.00    +0.014 A 
ATOM     25  C13 UNL     1      18.489  15.397  30.212  0.00  0.00    +0.001 A 
ATOM     26  C14 UNL     1      19.061  15.185  31.466  0.00  0.00    +0.001 A 
ATOM     27  C15 UNL     1      18.401  14.401  32.418  0.00  0.00    +0.011 A 
ATOM     28  C16 UNL     1      17.153  13.820  32.125  0.00  0.00    +0.010 A 
BRANCH  28  29
ATOM     29  C17 UNL     1      16.522  12.931  33.130  0.00  0.00    +0.048 A 
ATOM     30  C18 UNL     1      16.163  13.307  34.424  0.00  0.00    +0.036 A 
ATOM     31  C19 UNL     1      15.659  12.160  35.003  0.00  0.00    +0.000 A 
ATOM     32  C20 UNL     1      15.128  11.938  36.274  0.00  0.00    +0.010 A 
ATOM     33  C21 UNL     1      14.677  10.637  36.586  0.00  0.00    +0.001 A 
ATOM     34  C22 UNL     1      14.774   9.602  35.630  0.00  0.00    +0.002 A 
ATOM     35  C23 UNL     1      15.305   9.860  34.350  0.00  0.00    +0.026 A 
ATOM     36  C24 UNL     1      15.738  11.159  34.071  0.00  0.00    +0.047 A 
ATOM     37  N3  UNL     1      16.268  11.616  32.924  0.00  0.00    -0.354 N 
ATOM     38  H20 UNL     1      16.467  11.057  32.064  0.00  0.00    +0.166 HD
ENDBRANCH  28  29
ENDBRANCH   2  23
TORSDOF 6
ENDMDL
MODEL 4
REMARK VINA RESULT:    -6.608     10.562     13.663
REMARK INTER + INTRA:         -12.464
REMARK INTER:                  -8.993
REMARK INTRA:                  -3.471
REMARK UNBOUND:                -3.538
REMARK  Name = /home/qwerty/github/datacon2025hack/step_04_hit_selection/docking/ligands/lig_35.pdb
REMARK  7 active torsions:
REMARK  status: ('A' for Active; 'I' for Inactive)
REMARK    1  A    between atoms: C1_1  and  C2_2
REMARK    2  A    between atoms: C2_2  and  N1_3
REMARK    3  A    between atoms: C2_2  and  C25_30
REMARK    4  A    between atoms: C3_4  and  C4_6
REMARK    5  A    between atoms: C9_11  and  N2_12
REMARK    6  A    between atoms: C10_13  and  C11_15
REMARK    7  A    between atoms: C16_20  and  C17_21
REMARK                            x       y       z     vdW  Elec       q    Type
REMARK                         _______ _______ _______ _____ _____    ______ ____
ROOT
ATOM      1  N2  UNL     1      20.471   4.728  33.184  0.00  0.00    -0.281 N 
ATOM      2  C10 UNL     1      20.743   3.342  33.440  0.00  0.00    +0.249 C 
ATOM      3  O2  UNL     1      21.923   2.897  33.365  0.00  0.00    -0.270 OA
ATOM      4  H10 UNL     1      19.552   5.127  33.501  0.00  0.00    +0.155 HD
ENDROOT
BRANCH   1  10
ATOM      5  C4  UNL     1      21.471   6.199  31.461  0.00  0.00    +0.058 A 
ATOM      6  C5  UNL     1      22.537   7.024  31.060  0.00  0.00    +0.015 A 
ATOM      7  C6  UNL     1      23.600   7.288  31.930  0.00  0.00    +0.001 A 
ATOM      8  C7  UNL     1      23.610   6.739  33.209  0.00  0.00    +0.002 A 
ATOM      9  C8  UNL     1      22.559   5.920  33.624  0.00  0.00    +0.024 A 
ATOM     10  C9  UNL     1      21.492   5.638  32.759  0.00  0.00    +0.046 A 
BRANCH   5  12
ATOM     11  N1  UNL     1      20.337   5.025  29.520  0.00  0.00    -0.305 N 
ATOM     12  C3  UNL     1      20.310   6.016  30.555  0.00  0.00    +0.246 C 
ATOM     13  O1  UNL     1      19.296   6.760  30.677  0.00  0.00    -0.270 OA
ATOM     14  H5  UNL     1      20.974   4.204  29.623  0.00  0.00    +0.150 HD
BRANCH  11  16
ATOM     15  C1  UNL     1      18.257   4.680  28.253  0.00  0.00    +0.033 C 
ATOM     16  C2  UNL     1      19.685   5.242  28.227  0.00  0.00    +0.100 C 
BRANCH  16  17
ATOM     17  C25 UNL     1      20.544   4.647  27.131  0.00  0.00    -0.027 A 
ATOM     18  C26 UNL     1      20.022   4.364  25.851  0.00  0.00    +0.005 A 
ATOM     19  C27 UNL     1      20.831   3.772  24.878  0.00  0.00    +0.000 A 
ATOM     20  C28 UNL     1      22.152   3.424  25.179  0.00  0.00    +0.000 A 
ATOM     21  C29 UNL     1      22.667   3.660  26.455  0.00  0.00    +0.000 A 
ATOM     22  C30 UNL     1      21.868   4.265  27.428  0.00  0.00    +0.005 A 
ENDBRANCH  16  17
ENDBRANCH  11  16
ENDBRANCH   5  12
ENDBRANCH   1  10
BRANCH   2  23
ATOM     23  C11 UNL     1      19.649   2.443  33.857  0.00  0.00    +0.046 A 
ATOM     24  C12 UNL     1      19.164   2.543  35.174  0.00  0.00    +0.014 A 
ATOM     25  C13 UNL     1      18.053   1.801  35.578  0.00  0.00    +0.001 A 
ATOM     26  C14 UNL     1      17.416   0.951  34.674  0.00  0.00    +0.001 A 
ATOM     27  C15 UNL     1      17.894   0.827  33.366  0.00  0.00    +0.011 A 
ATOM     28  C16 UNL     1      19.019   1.559  32.944  0.00  0.00    +0.010 A 
BRANCH  28  29
ATOM     29  C17 UNL     1      19.544   1.342  31.574  0.00  0.00    +0.048 A 
ATOM     30  C18 UNL     1      18.851   1.611  30.395  0.00  0.00    +0.036 A 
ATOM     31  C19 UNL     1      19.702   1.219  29.381  0.00  0.00    +0.000 A 
ATOM     32  C20 UNL     1      19.554   1.271  27.995  0.00  0.00    +0.010 A 
ATOM     33  C21 UNL     1      20.616   0.794  27.197  0.00  0.00    +0.001 A 
ATOM     34  C22 UNL     1      21.783   0.275  27.800  0.00  0.00    +0.002 A 
ATOM     35  C23 UNL     1      21.907   0.246  29.204  0.00  0.00    +0.026 A 
ATOM     36  C24 UNL     1      20.841   0.730  29.965  0.00  0.00    +0.047 A 
ATOM     37  N3  UNL     1      20.755   0.796  31.305  0.00  0.00    -0.354 N 
ATOM     38  H20 UNL     1      21.470   0.464  31.992  0.00  0.00    +0.166 HD
ENDBRANCH  28  29
ENDBRANCH   2  23
TORSDOF 6
ENDMDL
MODEL 5
REMARK VINA RESULT:    -6.579      9.558     12.685
REMARK INTER + INTRA:         -12.425
REMARK INTER:                 -10.130
REMARK INTRA:                  -2.294
REMARK UNBOUND:                -3.538
REMARK  Name = /home/qwerty/github/datacon2025hack/step_04_hit_selection/docking/ligands/lig_35.pdb
REMARK  7 active torsions:
REMARK  status: ('A' for Active; 'I' for Inactive)
REMARK    1  A    between atoms: C1_1  and  C2_2
REMARK    2  A    between atoms: C2_2  and  N1_3
REMARK    3  A    between atoms: C2_2  and  C25_30
REMARK    4  A    between atoms: C3_4  and  C4_6
REMARK    5  A    between atoms: C9_11  and  N2_12
REMARK    6  A    between atoms: C10_13  and  C11_15
REMARK    7  A    between atoms: C16_20  and  C17_21
REMARK                            x       y       z     vdW  Elec       q    Type
REMARK                         _______ _______ _______ _____ _____    ______ ____
ROOT
ATOM      1  N2  UNL     1      19.943   1.272  33.426  0.00  0.00    -0.281 N 
ATOM      2  C10 UNL     1      18.593   1.750  33.529  0.00  0.00    +0.249 C 
ATOM      3  O2  UNL     1      17.988   2.183  32.509  0.00  0.00    -0.270 OA
ATOM      4  H10 UNL     1      20.330   0.684  34.207  0.00  0.00    +0.155 HD
ENDROOT
BRANCH   1  10
ATOM      5  C4  UNL     1      21.535   2.434  31.927  0.00  0.00    +0.058 A 
ATOM      6  C5  UNL     1      22.178   2.497  30.677  0.00  0.00    +0.015 A 
ATOM      7  C6  UNL     1      21.981   1.494  29.723  0.00  0.00    +0.001 A 
ATOM      8  C7  UNL     1      21.147   0.416  30.004  0.00  0.00    +0.002 A 
ATOM      9  C8  UNL     1      20.503   0.336  31.238  0.00  0.00    +0.024 A 
ATOM     10  C9  UNL     1      20.683   1.339  32.201  0.00  0.00    +0.046 A 
BRANCH   5  12
ATOM     11  N1  UNL     1      22.269   4.773  32.578  0.00  0.00    -0.305 N 
ATOM     12  C3  UNL     1      21.838   3.459  32.956  0.00  0.00    +0.246 C 
ATOM     13  O1  UNL     1      21.744   3.163  34.181  0.00  0.00    -0.270 OA
ATOM     14  H5  UNL     1      22.020   5.132  31.631  0.00  0.00    +0.150 HD
BRANCH  11  16
ATOM     15  C1  UNL     1      22.746   5.652  34.824  0.00  0.00    +0.033 C 
ATOM     16  C2  UNL     1      23.237   5.526  33.377  0.00  0.00    +0.100 C 
BRANCH  16  17
ATOM     17  C25 UNL     1      23.496   6.863  32.712  0.00  0.00    -0.027 A 
ATOM     18  C26 UNL     1      22.955   7.179  31.448  0.00  0.00    +0.005 A 
ATOM     19  C27 UNL     1      23.252   8.402  30.843  0.00  0.00    +0.000 A 
ATOM     20  C28 UNL     1      24.114   9.307  31.473  0.00  0.00    +0.000 A 
ATOM     21  C29 UNL     1      24.689   8.987  32.704  0.00  0.00    +0.000 A 
ATOM     22  C30 UNL     1      24.385   7.772  33.321  0.00  0.00    +0.005 A 
ENDBRANCH  16  17
ENDBRANCH  11  16
ENDBRANCH   5  12
ENDBRANCH   1  10
BRANCH   2  23
ATOM     23  C11 UNL     1      17.885   1.674  34.822  0.00  0.00    +0.046 A 
ATOM     24  C12 UNL     1      17.268   0.461  35.178  0.00  0.00    +0.014 A 
ATOM     25  C13 UNL     1      16.691   0.303  36.439  0.00  0.00    +0.001 A 
ATOM     26  C14 UNL     1      16.720   1.354  37.356  0.00  0.00    +0.001 A 
ATOM     27  C15 UNL     1      17.314   2.573  37.012  0.00  0.00    +0.011 A 
ATOM     28  C16 UNL     1      17.892   2.753  35.742  0.00  0.00    +0.010 A 
BRANCH  28  29
ATOM     29  C17 UNL     1      18.441   4.084  35.386  0.00  0.00    +0.048 A 
ATOM     30  C18 UNL     1      18.759   5.092  36.296  0.00  0.00    +0.036 A 
ATOM     31  C19 UNL     1      19.190   6.150  35.521  0.00  0.00    +0.000 A 
ATOM     32  C20 UNL     1      19.655   7.415  35.882  0.00  0.00    +0.010 A 
ATOM     33  C21 UNL     1      20.038   8.299  34.851  0.00  0.00    +0.001 A 
ATOM     34  C22 UNL     1      19.939   7.903  33.499  0.00  0.00    +0.002 A 
ATOM     35  C23 UNL     1      19.476   6.614  33.166  0.00  0.00    +0.026 A 
ATOM     36  C24 UNL     1      19.110   5.761  34.210  0.00  0.00    +0.047 A 
ATOM     37  N3  UNL     1      18.649   4.501  34.114  0.00  0.00    -0.354 N 
ATOM     38  H20 UNL     1      18.465   3.971  33.232  0.00  0.00    +0.166 HD
ENDBRANCH  28  29
ENDBRANCH   2  23
TORSDOF 6
ENDMDL
MODEL 6
REMARK VINA RESULT:    -6.564     11.429     14.323
REMARK INTER + INTRA:         -12.405
REMARK INTER:                  -9.022
REMARK INTRA:                  -3.383
REMARK UNBOUND:                -3.538
REMARK  Name = /home/qwerty/github/datacon2025hack/step_04_hit_selection/docking/ligands/lig_35.pdb
REMARK  7 active torsions:
REMARK  status: ('A' for Active; 'I' for Inactive)
REMARK    1  A    between atoms: C1_1  and  C2_2
REMARK    2  A    between atoms: C2_2  and  N1_3
REMARK    3  A    between atoms: C2_2  and  C25_30
REMARK    4  A    between atoms: C3_4  and  C4_6
REMARK    5  A    between atoms: C9_11  and  N2_12
REMARK    6  A    between atoms: C10_13  and  C11_15
REMARK    7  A    between atoms: C16_20  and  C17_21
REMARK                            x       y       z     vdW  Elec       q    Type
REMARK                         _______ _______ _______ _____ _____    ______ ____
ROOT
ATOM      1  N2  UNL     1      18.312   2.236  24.644  0.00  0.00    -0.281 N 
ATOM      2  C10 UNL     1      19.732   2.163  24.446  0.00  0.00    +0.249 C 
ATOM      3  O2  UNL     1      20.336   1.059  24.549  0.00  0.00    -0.270 OA
ATOM      4  H10 UNL     1      17.799   3.088  24.304  0.00  0.00    +0.155 HD
ENDROOT
BRANCH   1  10
ATOM      5  C4  UNL     1      16.956   1.028  26.328  0.00  0.00    +0.058 A 
ATOM      6  C5  UNL     1      16.274  -0.144  26.702  0.00  0.00    +0.015 A 
ATOM      7  C6  UNL     1      16.172  -1.222  25.818  0.00  0.00    +0.001 A 
ATOM      8  C7  UNL     1      16.742  -1.144  24.551  0.00  0.00    +0.002 A 
ATOM      9  C8  UNL     1      17.420   0.012  24.161  0.00  0.00    +0.024 A 
ATOM     10  C9  UNL     1      17.539   1.097  25.041  0.00  0.00    +0.046 A 
BRANCH   5  12
ATOM     11  N1  UNL     1      17.937   2.292  28.296  0.00  0.00    -0.305 N 
ATOM     12  C3  UNL     1      16.965   2.192  27.247  0.00  0.00    +0.246 C 
ATOM     13  O1  UNL     1      16.086   3.093  27.126  0.00  0.00    -0.270 OA
ATOM     14  H5  UNL     1      18.840   1.778  28.196  0.00  0.00    +0.150 HD
BRANCH  11  16
ATOM     15  C1  UNL     1      18.042   4.366  29.613  0.00  0.00    +0.033 C 
ATOM     16  C2  UNL     1      17.616   2.892  29.592  0.00  0.00    +0.100 C 
BRANCH  16  17
ATOM     17  C25 UNL     1      18.252   2.068  30.692  0.00  0.00    -0.027 A 
ATOM     18  C26 UNL     1      18.231   2.487  32.039  0.00  0.00    +0.005 A 
ATOM     19  C27 UNL     1      18.868   1.726  33.021  0.00  0.00    +0.000 A 
ATOM     20  C28 UNL     1      19.558   0.560  32.670  0.00  0.00    +0.000 A 
ATOM     21  C29 UNL     1      19.621   0.158  31.335  0.00  0.00    +0.000 A 
ATOM     22  C30 UNL     1      18.975   0.907  30.349  0.00  0.00    +0.005 A 
ENDBRANCH  16  17
ENDBRANCH  11  16
ENDBRANCH   5  12
ENDBRANCH   1  10
BRANCH   2  23
ATOM     23  C11 UNL     1      20.482   3.373  24.056  0.00  0.00    +0.046 A 
ATOM     24  C12 UNL     1      20.342   3.854  22.741  0.00  0.00    +0.014 A 
ATOM     25  C13 UNL     1      20.934   5.059  22.361  0.00  0.00    +0.001 A 
ATOM     26  C14 UNL     1      21.675   5.795  23.286  0.00  0.00    +0.001 A 
ATOM     27  C15 UNL     1      21.838   5.323  24.593  0.00  0.00    +0.011 A 
ATOM     28  C16 UNL     1      21.257   4.105  24.991  0.00  0.00    +0.010 A 
BRANCH  28  29
ATOM     29  C17 UNL     1      21.518   3.599  26.360  0.00  0.00    +0.048 A 
ATOM     30  C18 UNL     1      21.156   4.248  27.540  0.00  0.00    +0.036 A 
ATOM     31  C19 UNL     1      21.633   3.441  28.553  0.00  0.00    +0.000 A 
ATOM     32  C20 UNL     1      21.548   3.572  29.940  0.00  0.00    +0.010 A 
ATOM     33  C21 UNL     1      22.137   2.567  30.738  0.00  0.00    +0.001 A 
ATOM     34  C22 UNL     1      22.796   1.473  30.134  0.00  0.00    +0.002 A 
ATOM     35  C23 UNL     1      22.855   1.364  28.730  0.00  0.00    +0.026 A 
ATOM     36  C24 UNL     1      22.259   2.372  27.969  0.00  0.00    +0.047 A 
ATOM     37  N3  UNL     1      22.199   2.459  26.629  0.00  0.00    -0.354 N 
ATOM     38  H20 UNL     1      22.621   1.793  25.942  0.00  0.00    +0.166 HD
ENDBRANCH  28  29
ENDBRANCH   2  23
TORSDOF 6
ENDMDL
MODEL 7
REMARK VINA RESULT:    -6.543     12.627     16.109
REMARK INTER + INTRA:         -12.376
REMARK INTER:                  -9.006
REMARK INTRA:                  -3.371
REMARK UNBOUND:                -3.538
REMARK  Name = /home/qwerty/github/datacon2025hack/step_04_hit_selection/docking/ligands/lig_35.pdb
REMARK  7 active torsions:
REMARK  status: ('A' for Active; 'I' for Inactive)
REMARK    1  A    between atoms: C1_1  and  C2_2
REMARK    2  A    between atoms: C2_2  and  N1_3
REMARK    3  A    between atoms: C2_2  and  C25_30
REMARK    4  A    between atoms: C3_4  and  C4_6
REMARK    5  A    between atoms: C9_11  and  N2_12
REMARK    6  A    between atoms: C10_13  and  C11_15
REMARK    7  A    between atoms: C16_20  and  C17_21
REMARK                            x       y       z     vdW  Elec       q    Type
REMARK                         _______ _______ _______ _____ _____    ______ ____
ROOT
ATOM      1  N2  UNL     1      18.411   0.299  26.074  0.00  0.00    -0.281 N 
ATOM      2  C10 UNL     1      19.676   0.670  25.506  0.00  0.00    +0.249 C 
ATOM      3  O2  UNL     1      19.909   0.477  24.280  0.00  0.00    -0.270 OA
ATOM      4  H10 UNL     1      18.142   0.698  27.008  0.00  0.00    +0.155 HD
ENDROOT
BRANCH   1  10
ATOM      5  C4  UNL     1      16.248   0.318  24.868  0.00  0.00    +0.058 A 
ATOM      6  C5  UNL     1      15.245  -0.401  24.192  0.00  0.00    +0.015 A 
ATOM      7  C6  UNL     1      15.386  -1.772  23.958  0.00  0.00    +0.001 A 
ATOM      8  C7  UNL     1      16.527  -2.442  24.389  0.00  0.00    +0.002 A 
ATOM      9  C8  UNL     1      17.533  -1.745  25.060  0.00  0.00    +0.024 A 
ATOM     10  C9  UNL     1      17.401  -0.372  25.310  0.00  0.00    +0.046 A 
BRANCH   5  12
ATOM     11  N1  UNL     1      15.107   2.511  24.301  0.00  0.00    -0.305 N 
ATOM     12  C3  UNL     1      16.118   1.788  25.016  0.00  0.00    +0.246 C 
ATOM     13  O1  UNL     1      16.926   2.418  25.757  0.00  0.00    -0.270 OA
ATOM     14  H5  UNL     1      14.252   2.002  23.987  0.00  0.00    +0.150 HD
BRANCH  11  16
ATOM     15  C1  UNL     1      14.142   4.766  24.131  0.00  0.00    +0.033 C 
ATOM     16  C2  UNL     1      15.338   3.866  23.797  0.00  0.00    +0.100 C 
BRANCH  16  17
ATOM     17  C25 UNL     1      15.643   3.798  22.314  0.00  0.00    -0.027 A 
ATOM     18  C26 UNL     1      16.477   2.796  21.774  0.00  0.00    +0.005 A 
ATOM     19  C27 UNL     1      16.775   2.791  20.409  0.00  0.00    +0.000 A 
ATOM     20  C28 UNL     1      16.276   3.800  19.577  0.00  0.00    +0.000 A 
ATOM     21  C29 UNL     1      15.486   4.821  20.108  0.00  0.00    +0.000 A 
ATOM     22  C30 UNL     1      15.172   4.824  21.469  0.00  0.00    +0.005 A 
ENDBRANCH  16  17
ENDBRANCH  11  16
ENDBRANCH   5  12
ENDBRANCH   1  10
BRANCH   2  23
ATOM     23  C11 UNL     1      20.688   1.343  26.345  0.00  0.00    +0.046 A 
ATOM     24  C12 UNL     1      21.189   0.660  27.468  0.00  0.00    +0.014 A 
ATOM     25  C13 UNL     1      22.231   1.204  28.221  0.00  0.00    +0.001 A 
ATOM     26  C14 UNL     1      22.782   2.435  27.863  0.00  0.00    +0.001 A 
ATOM     27  C15 UNL     1      22.284   3.134  26.758  0.00  0.00    +0.011 A 
ATOM     28  C16 UNL     1      21.227   2.607  25.995  0.00  0.00    +0.010 A 
BRANCH  28  29
ATOM     29  C17 UNL     1      20.675   3.414  24.880  0.00  0.00    +0.048 A 
ATOM     30  C18 UNL     1      19.650   4.352  24.998  0.00  0.00    +0.036 A 
ATOM     31  C19 UNL     1      19.441   4.817  23.714  0.00  0.00    +0.000 A 
ATOM     32  C20 UNL     1      18.557   5.779  23.225  0.00  0.00    +0.010 A 
ATOM     33  C21 UNL     1      18.575   6.053  21.841  0.00  0.00    +0.001 A 
ATOM     34  C22 UNL     1      19.462   5.359  20.989  0.00  0.00    +0.002 A 
ATOM     35  C23 UNL     1      20.351   4.400  21.515  0.00  0.00    +0.026 A 
ATOM     36  C24 UNL     1      20.312   4.156  22.890  0.00  0.00    +0.047 A 
ATOM     37  N3  UNL     1      21.069   3.292  23.589  0.00  0.00    -0.354 N 
ATOM     38  H20 UNL     1      21.790   2.642  23.203  0.00  0.00    +0.166 HD
ENDBRANCH  28  29
ENDBRANCH   2  23
TORSDOF 6
ENDMDL
MODEL 8
REMARK VINA RESULT:    -6.517      2.675      6.708
REMARK INTER + INTRA:         -12.341
REMARK INTER:                  -8.817
REMARK INTRA:                  -3.524
REMARK UNBOUND:                -3.538
REMARK  Name = /home/qwerty/github/datacon2025hack/step_04_hit_selection/docking/ligands/lig_35.pdb
REMARK  7 active torsions:
REMARK  status: ('A' for Active; 'I' for Inactive)
REMARK    1  A    between atoms: C1_1  and  C2_2
REMARK    2  A    between atoms: C2_2  and  N1_3
REMARK    3  A    between atoms: C2_2  and  C25_30
REMARK    4  A    between atoms: C3_4  and  C4_6
REMARK    5  A    between atoms: C9_11  and  N2_12
REMARK    6  A    between atoms: C10_13  and  C11_15
REMARK    7  A    between atoms: C16_20  and  C17_21
REMARK                            x       y       z     vdW  Elec       q    Type
REMARK                         _______ _______ _______ _____ _____    ______ ____
ROOT
ATOM      1  N2  UNL     1      13.766  13.292  31.702  0.00  0.00    -0.281 N 
ATOM      2  C10 UNL     1      13.251  14.336  30.862  0.00  0.00    +0.249 C 
ATOM      3  O2  UNL     1      12.170  14.918  31.154  0.00  0.00    -0.270 OA
ATOM      4  H10 UNL     1      14.772  13.008  31.594  0.00  0.00    +0.155 HD
ENDROOT
BRANCH   1  10
ATOM      5  C4  UNL     1      12.400  11.557  32.822  0.00  0.00    +0.058 A 
ATOM      6  C5  UNL     1      11.640  11.164  33.940  0.00  0.00    +0.015 A 
ATOM      7  C6  UNL     1      11.530  11.999  35.056  0.00  0.00    +0.001 A 
ATOM      8  C7  UNL     1      12.178  13.230  35.074  0.00  0.00    +0.002 A 
ATOM      9  C8  UNL     1      12.938  13.636  33.977  0.00  0.00    +0.024 A 
ATOM     10  C9  UNL     1      13.049  12.813  32.847  0.00  0.00    +0.046 A 
BRANCH   5  12
ATOM     11  N1  UNL     1      11.570  10.469  30.687  0.00  0.00    -0.305 N 
ATOM     12  C3  UNL     1      12.580  10.611  31.694  0.00  0.00    +0.246 C 
ATOM     13  O1  UNL     1      13.623   9.899  31.634  0.00  0.00    -0.270 OA
ATOM     14  H5  UNL     1      10.907  11.258  30.524  0.00  0.00    +0.150 HD
BRANCH  11  16
ATOM     15  C1  UNL     1      12.157   9.013  28.794  0.00  0.00    +0.033 C 
ATOM     16  C2  UNL     1      11.292   9.181  30.049  0.00  0.00    +0.100 C 
BRANCH  16  17
ATOM     17  C25 UNL     1       9.806   9.075  29.772  0.00  0.00    -0.027 A 
ATOM     18  C26 UNL     1       9.284   8.104  28.891  0.00  0.00    +0.005 A 
ATOM     19  C27 UNL     1       7.914   8.065  28.623  0.00  0.00    +0.000 A 
ATOM     20  C28 UNL     1       7.057   9.008  29.199  0.00  0.00    +0.000 A 
ATOM     21  C29 UNL     1       7.568  10.000  30.039  0.00  0.00    +0.000 A 
ATOM     22  C30 UNL     1       8.935  10.037  30.323  0.00  0.00    +0.005 A 
ENDBRANCH  16  17
ENDBRANCH  11  16
ENDBRANCH   5  12
ENDBRANCH   1  10
BRANCH   2  23
ATOM     23  C11 UNL     1      14.024  14.777  29.684  0.00  0.00    +0.046 A 
ATOM     24  C12 UNL     1      15.228  15.475  29.894  0.00  0.00    +0.014 A 
ATOM     25  C13 UNL     1      16.051  15.806  28.817  0.00  0.00    +0.001 A 
ATOM     26  C14 UNL     1      15.682  15.449  27.520  0.00  0.00    +0.001 A 
ATOM     27  C15 UNL     1      14.480  14.771  27.292  0.00  0.00    +0.011 A 
ATOM     28  C16 UNL     1      13.632  14.438  28.364  0.00  0.00    +0.010 A 
BRANCH  28  29
ATOM     29  C17 UNL     1      12.330  13.790  28.074  0.00  0.00    +0.048 A 
ATOM     30  C18 UNL     1      12.169  12.524  27.512  0.00  0.00    +0.036 A 
ATOM     31  C19 UNL     1      10.804  12.358  27.388  0.00  0.00    +0.000 A 
ATOM     32  C20 UNL     1      10.056  11.281  26.911  0.00  0.00    +0.010 A 
ATOM     33  C21 UNL     1       8.650  11.399  26.911  0.00  0.00    +0.001 A 
ATOM     34  C22 UNL     1       8.035  12.583  27.377  0.00  0.00    +0.002 A 
ATOM     35  C23 UNL     1       8.818  13.649  27.864  0.00  0.00    +0.026 A 
ATOM     36  C24 UNL     1      10.206  13.498  27.855  0.00  0.00    +0.047 A 
ATOM     37  N3  UNL     1      11.128  14.383  28.273  0.00  0.00    -0.354 N 
ATOM     38  H20 UNL     1      10.946  15.342  28.646  0.00  0.00    +0.166 HD
ENDBRANCH  28  29
ENDBRANCH   2  23
TORSDOF 6
ENDMDL
MODEL 9
REMARK VINA RESULT:    -6.461      8.700     11.813
REMARK INTER + INTRA:         -12.265
REMARK INTER:                  -8.769
REMARK INTRA:                  -3.496
REMARK UNBOUND:                -3.538
REMARK  Name = /home/qwerty/github/datacon2025hack/step_04_hit_selection/docking/ligands/lig_35.pdb
REMARK  7 active torsions:
REMARK  status: ('A' for Active; 'I' for Inactive)
REMARK    1  A    between atoms: C1_1  and  C2_2
REMARK    2  A    between atoms: C2_2  and  N1_3
REMARK    3  A    between atoms: C2_2  and  C25_30
REMARK    4  A    between atoms: C3_4  and  C4_6
REMARK    5  A    between atoms: C9_11  and  N2_12
REMARK    6  A    between atoms: C10_13  and  C11_15
REMARK    7  A    between atoms: C16_20  and  C17_21
REMARK                            x       y       z     vdW  Elec       q    Type
REMARK                         _______ _______ _______ _____ _____    ______ ____
ROOT
ATOM      1  N2  UNL     1      22.483   4.699  31.714  0.00  0.00    -0.281 N 
ATOM      2  C10 UNL     1      22.148   3.448  32.333  0.00  0.00    +0.249 C 
ATOM      3  O2  UNL     1      22.164   3.331  33.590  0.00  0.00    -0.270 OA
ATOM      4  H10 UNL     1      22.215   4.851  30.709  0.00  0.00    +0.155 HD
ENDROOT
BRANCH   1  10
ATOM      5  C4  UNL     1      22.032   6.877  32.801  0.00  0.00    +0.058 A 
ATOM      6  C5  UNL     1      22.529   8.005  33.479  0.00  0.00    +0.015 A 
ATOM      7  C6  UNL     1      23.881   8.091  33.824  0.00  0.00    +0.001 A 
ATOM      8  C7  UNL     1      24.752   7.053  33.505  0.00  0.00    +0.002 A 
ATOM      9  C8  UNL     1      24.276   5.925  32.835  0.00  0.00    +0.024 A 
ATOM     10  C9  UNL     1      22.925   5.830  32.474  0.00  0.00    +0.046 A 
BRANCH   5  12
ATOM     11  N1  UNL     1      19.627   7.465  33.352  0.00  0.00    -0.305 N 
ATOM     12  C3  UNL     1      20.577   6.769  32.535  0.00  0.00    +0.246 C 
ATOM     13  O1  UNL     1      20.165   6.031  31.595  0.00  0.00    -0.270 OA
ATOM     14  H5  UNL     1      19.938   8.315  33.872  0.00  0.00    +0.150 HD
BRANCH  11  16
ATOM     15  C1  UNL     1      17.203   7.794  33.108  0.00  0.00    +0.033 C 
ATOM     16  C2  UNL     1      18.315   6.897  33.665  0.00  0.00    +0.100 C 
BRANCH  16  17
ATOM     17  C25 UNL     1      18.214   6.675  35.160  0.00  0.00    -0.027 A 
ATOM     18  C26 UNL     1      17.103   7.126  35.903  0.00  0.00    +0.005 A 
ATOM     19  C27 UNL     1      17.064   6.946  37.288  0.00  0.00    +0.000 A 
ATOM     20  C28 UNL     1      18.142   6.347  37.950  0.00  0.00    +0.000 A 
ATOM     21  C29 UNL     1      19.266   5.935  37.230  0.00  0.00    +0.000 A 
ATOM     22  C30 UNL     1      19.305   6.099  35.844  0.00  0.00    +0.005 A 
ENDBRANCH  16  17
ENDBRANCH  11  16
ENDBRANCH   5  12
ENDBRANCH   1  10
BRANCH   2  23
ATOM     23  C11 UNL     1      21.717   2.308  31.499  0.00  0.00    +0.046 A 
ATOM     24  C12 UNL     1      22.523   1.931  30.410  0.00  0.00    +0.014 A 
ATOM     25  C13 UNL     1      22.221   0.789  29.667  0.00  0.00    +0.001 A 
ATOM     26  C14 UNL     1      21.110   0.013  30.000  0.00  0.00    +0.001 A 
ATOM     27  C15 UNL     1      20.288   0.383  31.070  0.00  0.00    +0.011 A 
ATOM     28  C16 UNL     1      20.571   1.537  31.823  0.00  0.00    +0.010 A 
BRANCH  28  29
ATOM     29  C17 UNL     1      19.632   1.940  32.898  0.00  0.00    +0.048 A 
ATOM     30  C18 UNL     1      18.494   2.726  32.719  0.00  0.00    +0.036 A 
ATOM     31  C19 UNL     1      17.961   2.877  33.983  0.00  0.00    +0.000 A 
ATOM     32  C20 UNL     1      16.814   3.544  34.415  0.00  0.00    +0.010 A 
ATOM     33  C21 UNL     1      16.514   3.521  35.794  0.00  0.00    +0.001 A 
ATOM     34  C22 UNL     1      17.365   2.844  36.697  0.00  0.00    +0.002 A 
ATOM     35  C23 UNL     1      18.510   2.170  36.228  0.00  0.00    +0.026 A 
ATOM     36  C24 UNL     1      18.776   2.208  34.857  0.00  0.00    +0.047 A 
ATOM     37  N3  UNL     1      19.804   1.635  34.207  0.00  0.00    -0.354 N 
ATOM     38  H20 UNL     1      20.587   1.091  34.636  0.00  0.00    +0.166 HD
ENDBRANCH  28  29
ENDBRANCH   2  23
TORSDOF 6
ENDMDL
