MODEL 1
REMARK VINA RESULT:    -7.369      0.000      0.000
REMARK INTER + INTRA:         -10.859
REMARK INTER:                  -9.523
REMARK INTRA:                  -1.336
REMARK UNBOUND:                -1.336
REMARK  Name = /home/qwerty/github/datacon2025hack/step_04_hit_selection/docking/ligands/lig_550.pdb
REMARK  6 active torsions:
REMARK  status: ('A' for Active; 'I' for Inactive)
REMARK    1  A    between atoms: C1_1  and  C2_2
REMARK    2  A    between atoms: C2_2  and  N1_3
REMARK    3  A    between atoms: C2_2  and  C17_22
REMARK    4  A    between atoms: C3_4  and  C4_6
REMARK    5  A    between atoms: C9_13  and  C10_14
REMARK    6  A    between atoms: C10_14  and  C11_16
REMARK                            x       y       z     vdW  Elec       q    Type
REMARK                         _______ _______ _______ _____ _____    ______ ____
ROOT
ATOM      1  N1  UNL     1       7.582  10.391  24.523  0.00  0.00    -0.305 N 
ATOM      2  C3  UNL     1       8.547  10.265  25.580  0.00  0.00    +0.245 C 
ATOM      3  O1  UNL     1       9.778  10.364  25.323  0.00  0.00    -0.270 OA
ATOM      4  H5  UNL     1       6.592  10.115  24.714  0.00  0.00    +0.150 HD
ENDROOT
BRANCH   2   5
ATOM      5  C4  UNL     1       8.115   9.975  26.965  0.00  0.00    +0.050 A 
ATOM      6  C5  UNL     1       7.734   8.660  27.288  0.00  0.00    +0.055 A 
ATOM      7  C6  UNL     1       7.257   8.349  28.563  0.00  0.00    +0.159 A 
ATOM      8  F1  UNL     1       6.884   7.079  28.854  0.00  0.00    -0.202 F 
ATOM      9  C7  UNL     1       7.160   9.347  29.534  0.00  0.00    +0.159 A 
ATOM     10  F2  UNL     1       6.698   9.045  30.774  0.00  0.00    -0.202 F 
ATOM     11  C8  UNL     1       7.553  10.653  29.238  0.00  0.00    +0.053 A 
ATOM     12  C9  UNL     1       8.039  10.982  27.961  0.00  0.00    +0.037 A 
BRANCH  12  13
ATOM     13  C10 UNL     1       8.546  12.355  27.725  0.00  0.00    +0.194 C 
ATOM     14  O2  UNL     1       7.738  13.238  27.330  0.00  0.00    -0.287 OA
BRANCH  13  15
ATOM     15  C11 UNL     1       9.973  12.712  27.932  0.00  0.00    +0.022 A 
ATOM     16  C12 UNL     1      10.408  14.032  27.718  0.00  0.00    +0.012 A 
ATOM     17  C13 UNL     1      11.748  14.379  27.923  0.00  0.00    +0.001 A 
ATOM     18  C14 UNL     1      12.663  13.417  28.353  0.00  0.00    +0.000 A 
ATOM     19  C15 UNL     1      12.241  12.106  28.581  0.00  0.00    +0.001 A 
ATOM     20  C16 UNL     1      10.904  11.752  28.376  0.00  0.00    +0.012 A 
ENDBRANCH  13  15
ENDBRANCH  12  13
ENDBRANCH   2   5
BRANCH   1  22
ATOM     21  C1  UNL     1       6.788  11.513  22.482  0.00  0.00    +0.033 C 
ATOM     22  C2  UNL     1       7.960  10.807  23.170  0.00  0.00    +0.101 C 
BRANCH  22  23
ATOM     23  C17 UNL     1       8.406   9.610  22.358  0.00  0.00    -0.024 A 
ATOM     24  C18 UNL     1       9.375   9.749  21.344  0.00  0.00    +0.009 A 
ATOM     25  C19 UNL     1       9.796   8.637  20.609  0.00  0.00    +0.050 A 
ATOM     26  C20 UNL     1       9.261   7.377  20.885  0.00  0.00    +0.162 A 
ATOM     27  C21 UNL     1       8.283   7.231  21.876  0.00  0.00    +0.162 A 
ATOM     28  C22 UNL     1       7.869   8.338  22.624  0.00  0.00    +0.055 A 
ATOM     29  O3  UNL     1       7.730   5.967  22.105  0.00  0.00    -0.485 OA
ATOM     30  C23 UNL     1       7.933   4.895  21.181  0.00  0.00    +0.270 C 
ATOM     31  C24 UNL     1       9.366   4.929  20.633  0.00  0.00    +0.270 C 
ATOM     32  O4  UNL     1       9.691   6.247  20.183  0.00  0.00    -0.485 OA
ENDBRANCH  22  23
ENDBRANCH   1  22
TORSDOF 5
ENDMDL
MODEL 2
REMARK VINA RESULT:    -7.362      3.651      8.880
REMARK INTER + INTRA:         -10.850
REMARK INTER:                  -9.280
REMARK INTRA:                  -1.570
REMARK UNBOUND:                -1.336
REMARK  Name = /home/qwerty/github/datacon2025hack/step_04_hit_selection/docking/ligands/lig_550.pdb
REMARK  6 active torsions:
REMARK  status: ('A' for Active; 'I' for Inactive)
REMARK    1  A    between atoms: C1_1  and  C2_2
REMARK    2  A    between atoms: C2_2  and  N1_3
REMARK    3  A    between atoms: C2_2  and  C17_22
REMARK    4  A    between atoms: C3_4  and  C4_6
REMARK    5  A    between atoms: C9_13  and  C10_14
REMARK    6  A    between atoms: C10_14  and  C11_16
REMARK                            x       y       z     vdW  Elec       q    Type
REMARK                         _______ _______ _______ _____ _____    ______ ____
ROOT
ATOM      1  N1  UNL     1       9.692  10.241  24.812  0.00  0.00    -0.305 N 
ATOM      2  C3  UNL     1      10.613   9.399  24.102  0.00  0.00    +0.245 C 
ATOM      3  O1  UNL     1      11.355   8.601  24.738  0.00  0.00    -0.270 OA
ATOM      4  H5  UNL     1       9.232  11.026  24.298  0.00  0.00    +0.150 HD
ENDROOT
BRANCH   2   5
ATOM      5  C4  UNL     1      10.737   9.490  22.630  0.00  0.00    +0.050 A 
ATOM      6  C5  UNL     1      11.946   9.955  22.085  0.00  0.00    +0.055 A 
ATOM      7  C6  UNL     1      12.089  10.120  20.706  0.00  0.00    +0.159 A 
ATOM      8  F1  UNL     1      13.258  10.582  20.198  0.00  0.00    -0.202 F 
ATOM      9  C7  UNL     1      11.027   9.816  19.852  0.00  0.00    +0.159 A 
ATOM     10  F2  UNL     1      11.166   9.975  18.512  0.00  0.00    -0.202 F 
ATOM     11  C8  UNL     1       9.826   9.332  20.375  0.00  0.00    +0.053 A 
ATOM     12  C9  UNL     1       9.667   9.157  21.760  0.00  0.00    +0.037 A 
BRANCH  12  13
ATOM     13  C10 UNL     1       8.415   8.539  22.259  0.00  0.00    +0.194 C 
ATOM     14  O2  UNL     1       7.504   9.290  22.701  0.00  0.00    -0.287 OA
BRANCH  13  15
ATOM     15  C11 UNL     1       8.212   7.068  22.261  0.00  0.00    +0.022 A 
ATOM     16  C12 UNL     1       7.627   6.435  21.148  0.00  0.00    +0.012 A 
ATOM     17  C13 UNL     1       7.443   5.049  21.136  0.00  0.00    +0.001 A 
ATOM     18  C14 UNL     1       7.849   4.278  22.227  0.00  0.00    +0.000 A 
ATOM     19  C15 UNL     1       8.443   4.893  23.332  0.00  0.00    +0.001 A 
ATOM     20  C16 UNL     1       8.627   6.278  23.351  0.00  0.00    +0.012 A 
ENDBRANCH  13  15
ENDBRANCH  12  13
ENDBRANCH   2   5
BRANCH   1  22
ATOM     21  C1  UNL     1       7.954   9.885  26.519  0.00  0.00    +0.033 C 
ATOM     22  C2  UNL     1       9.448  10.089  26.250  0.00  0.00    +0.101 C 
BRANCH  22  23
ATOM     23  C17 UNL     1       9.959  11.300  27.000  0.00  0.00    -0.024 A 
ATOM     24  C18 UNL     1       9.110  12.024  27.861  0.00  0.00    +0.009 A 
ATOM     25  C19 UNL     1       9.592  13.130  28.566  0.00  0.00    +0.050 A 
ATOM     26  C20 UNL     1      10.926  13.518  28.425  0.00  0.00    +0.162 A 
ATOM     27  C21 UNL     1      11.773  12.818  27.557  0.00  0.00    +0.162 A 
ATOM     28  C22 UNL     1      11.300  11.702  26.861  0.00  0.00    +0.055 A 
ATOM     29  O3  UNL     1      13.094  13.251  27.398  0.00  0.00    -0.485 OA
ATOM     30  C23 UNL     1      13.512  14.532  27.878  0.00  0.00    +0.270 C 
ATOM     31  C24 UNL     1      12.845  14.839  29.225  0.00  0.00    +0.270 C 
ATOM     32  O4  UNL     1      11.437  14.603  29.145  0.00  0.00    -0.485 OA
ENDBRANCH  22  23
ENDBRANCH   1  22
TORSDOF 5
ENDMDL
MODEL 3
REMARK VINA RESULT:    -7.309     13.573     16.826
REMARK INTER + INTRA:         -10.781
REMARK INTER:                  -8.855
REMARK INTRA:                  -1.926
REMARK UNBOUND:                -1.336
REMARK  Name = /home/qwerty/github/datacon2025hack/step_04_hit_selection/docking/ligands/lig_550.pdb
REMARK  6 active torsions:
REMARK  status: ('A' for Active; 'I' for Inactive)
REMARK    1  A    between atoms: C1_1  and  C2_2
REMARK    2  A    between atoms: C2_2  and  N1_3
REMARK    3  A    between atoms: C2_2  and  C17_22
REMARK    4  A    between atoms: C3_4  and  C4_6
REMARK    5  A    between atoms: C9_13  and  C10_14
REMARK    6  A    between atoms: C10_14  and  C11_16
REMARK                            x       y       z     vdW  Elec       q    Type
REMARK                         _______ _______ _______ _____ _____    ______ ____
ROOT
ATOM      1  N1  UNL     1      21.447   7.527  34.875  0.00  0.00    -0.305 N 
ATOM      2  C3  UNL     1      22.306   6.385  35.020  0.00  0.00    +0.245 C 
ATOM      3  O1  UNL     1      23.190   6.374  35.921  0.00  0.00    -0.270 OA
ATOM      4  H5  UNL     1      20.860   7.605  34.013  0.00  0.00    +0.150 HD
ENDROOT
BRANCH   2   5
ATOM      5  C4  UNL     1      22.197   5.237  34.094  0.00  0.00    +0.050 A 
ATOM      6  C5  UNL     1      21.092   4.377  34.217  0.00  0.00    +0.055 A 
ATOM      7  C6  UNL     1      20.978   3.243  33.410  0.00  0.00    +0.159 A 
ATOM      8  F1  UNL     1      19.911   2.418  33.550  0.00  0.00    -0.202 F 
ATOM      9  C7  UNL     1      21.964   2.956  32.465  0.00  0.00    +0.159 A 
ATOM     10  F2  UNL     1      21.853   1.855  31.680  0.00  0.00    -0.202 F 
ATOM     11  C8  UNL     1      23.058   3.810  32.314  0.00  0.00    +0.053 A 
ATOM     12  C9  UNL     1      23.186   4.958  33.116  0.00  0.00    +0.037 A 
BRANCH  12  13
ATOM     13  C10 UNL     1      24.306   5.892  32.846  0.00  0.00    +0.194 C 
ATOM     14  O2  UNL     1      25.484   5.503  33.070  0.00  0.00    -0.287 OA
BRANCH  13  15
ATOM     15  C11 UNL     1      24.076   7.266  32.332  0.00  0.00    +0.022 A 
ATOM     16  C12 UNL     1      24.869   8.333  32.791  0.00  0.00    +0.012 A 
ATOM     17  C13 UNL     1      24.667   9.628  32.302  0.00  0.00    +0.001 A 
ATOM     18  C14 UNL     1      23.681   9.869  31.344  0.00  0.00    +0.000 A 
ATOM     19  C15 UNL     1      22.896   8.816  30.870  0.00  0.00    +0.001 A 
ATOM     20  C16 UNL     1      23.092   7.520  31.357  0.00  0.00    +0.012 A 
ENDBRANCH  13  15
ENDBRANCH  12  13
ENDBRANCH   2   5
BRANCH   1  22
ATOM     21  C1  UNL     1      20.595   8.241  37.070  0.00  0.00    +0.033 C 
ATOM     22  C2  UNL     1      21.436   8.622  35.848  0.00  0.00    +0.101 C 
BRANCH  22  23
ATOM     23  C17 UNL     1      20.900   9.886  35.212  0.00  0.00    -0.024 A 
ATOM     24  C18 UNL     1      20.451  10.958  36.008  0.00  0.00    +0.009 A 
ATOM     25  C19 UNL     1      19.974  12.130  35.415  0.00  0.00    +0.050 A 
ATOM     26  C20 UNL     1      19.950  12.246  34.024  0.00  0.00    +0.162 A 
ATOM     27  C21 UNL     1      20.375  11.179  33.223  0.00  0.00    +0.162 A 
ATOM     28  C22 UNL     1      20.867  10.010  33.811  0.00  0.00    +0.055 A 
ATOM     29  O3  UNL     1      20.301  11.302  31.831  0.00  0.00    -0.485 OA
ATOM     30  C23 UNL     1      19.556  12.360  31.222  0.00  0.00    +0.270 C 
ATOM     31  C24 UNL     1      19.732  13.660  32.019  0.00  0.00    +0.270 C 
ATOM     32  O4  UNL     1      19.506  13.422  33.410  0.00  0.00    -0.485 OA
ENDBRANCH  22  23
ENDBRANCH   1  22
TORSDOF 5
ENDMDL
MODEL 4
REMARK VINA RESULT:    -7.241      5.480      8.311
REMARK INTER + INTRA:         -10.693
REMARK INTER:                  -8.355
REMARK INTRA:                  -2.338
REMARK UNBOUND:                -1.336
REMARK  Name = /home/qwerty/github/datacon2025hack/step_04_hit_selection/docking/ligands/lig_550.pdb
REMARK  6 active torsions:
REMARK  status: ('A' for Active; 'I' for Inactive)
REMARK    1  A    between atoms: C1_1  and  C2_2
REMARK    2  A    between atoms: C2_2  and  N1_3
REMARK    3  A    between atoms: C2_2  and  C17_22
REMARK    4  A    between atoms: C3_4  and  C4_6
REMARK    5  A    between atoms: C9_13  and  C10_14
REMARK    6  A    between atoms: C10_14  and  C11_16
REMARK                            x       y       z     vdW  Elec       q    Type
REMARK                         _______ _______ _______ _____ _____    ______ ____
ROOT
ATOM      1  N1  UNL     1      11.876   6.039  20.659  0.00  0.00    -0.305 N 
ATOM      2  C3  UNL     1      12.069   7.308  21.303  0.00  0.00    +0.245 C 
ATOM      3  O1  UNL     1      13.120   7.522  21.968  0.00  0.00    -0.270 OA
ATOM      4  H5  UNL     1      10.928   5.808  20.282  0.00  0.00    +0.150 HD
ENDROOT
BRANCH   2   5
ATOM      5  C4  UNL     1      11.026   8.355  21.235  0.00  0.00    +0.050 A 
ATOM      6  C5  UNL     1      11.038   9.245  20.147  0.00  0.00    +0.055 A 
ATOM      7  C6  UNL     1      10.114  10.290  20.071  0.00  0.00    +0.159 A 
ATOM      8  F1  UNL     1      10.148  11.147  19.021  0.00  0.00    -0.202 F 
ATOM      9  C7  UNL     1       9.163  10.456  21.079  0.00  0.00    +0.159 A 
ATOM     10  F2  UNL     1       8.265  11.470  21.005  0.00  0.00    -0.202 F 
ATOM     11  C8  UNL     1       9.122   9.568  22.156  0.00  0.00    +0.053 A 
ATOM     12  C9  UNL     1      10.042   8.509  22.245  0.00  0.00    +0.037 A 
BRANCH  12  13
ATOM     13  C10 UNL     1       9.892   7.529  23.347  0.00  0.00    +0.194 C 
ATOM     14  O2  UNL     1      10.527   7.723  24.419  0.00  0.00    -0.287 OA
BRANCH  13  15
ATOM     15  C11 UNL     1       9.026   6.329  23.220  0.00  0.00    +0.022 A 
ATOM     16  C12 UNL     1       8.758   5.530  24.346  0.00  0.00    +0.012 A 
ATOM     17  C13 UNL     1       7.933   4.405  24.237  0.00  0.00    +0.001 A 
ATOM     18  C14 UNL     1       7.360   4.073  23.008  0.00  0.00    +0.000 A 
ATOM     19  C15 UNL     1       7.609   4.866  21.886  0.00  0.00    +0.001 A 
ATOM     20  C16 UNL     1       8.434   5.990  21.988  0.00  0.00    +0.012 A 
ENDBRANCH  13  15
ENDBRANCH  12  13
ENDBRANCH   2   5
BRANCH   1  22
ATOM     21  C1  UNL     1      12.986   4.397  19.199  0.00  0.00    +0.033 C 
ATOM     22  C2  UNL     1      12.936   5.029  20.593  0.00  0.00    +0.101 C 
BRANCH  22  23
ATOM     23  C17 UNL     1      12.716   3.967  21.647  0.00  0.00    -0.024 A 
ATOM     24  C18 UNL     1      11.418   3.670  22.110  0.00  0.00    +0.009 A 
ATOM     25  C19 UNL     1      11.218   2.675  23.070  0.00  0.00    +0.050 A 
ATOM     26  C20 UNL     1      12.309   1.962  23.571  0.00  0.00    +0.162 A 
ATOM     27  C21 UNL     1      13.605   2.262  23.133  0.00  0.00    +0.162 A 
ATOM     28  C22 UNL     1      13.809   3.246  22.162  0.00  0.00    +0.055 A 
ATOM     29  O3  UNL     1      14.687   1.564  23.680  0.00  0.00    -0.485 OA
ATOM     30  C23 UNL     1      14.529   0.762  24.854  0.00  0.00    +0.270 C 
ATOM     31  C24 UNL     1      13.183   0.027  24.820  0.00  0.00    +0.270 C 
ATOM     32  O4  UNL     1      12.128   0.940  24.509  0.00  0.00    -0.485 OA
ENDBRANCH  22  23
ENDBRANCH   1  22
TORSDOF 5
ENDMDL
MODEL 5
REMARK VINA RESULT:    -7.210     14.791     16.740
REMARK INTER + INTRA:         -10.654
REMARK INTER:                  -8.467
REMARK INTRA:                  -2.186
REMARK UNBOUND:                -1.336
REMARK  Name = /home/qwerty/github/datacon2025hack/step_04_hit_selection/docking/ligands/lig_550.pdb
REMARK  6 active torsions:
REMARK  status: ('A' for Active; 'I' for Inactive)
REMARK    1  A    between atoms: C1_1  and  C2_2
REMARK    2  A    between atoms: C2_2  and  N1_3
REMARK    3  A    between atoms: C2_2  and  C17_22
REMARK    4  A    between atoms: C3_4  and  C4_6
REMARK    5  A    between atoms: C9_13  and  C10_14
REMARK    6  A    between atoms: C10_14  and  C11_16
REMARK                            x       y       z     vdW  Elec       q    Type
REMARK                         _______ _______ _______ _____ _____    ______ ____
ROOT
ATOM      1  N1  UNL     1      19.247   3.207  33.403  0.00  0.00    -0.305 N 
ATOM      2  C3  UNL     1      20.504   2.562  33.146  0.00  0.00    +0.245 C 
ATOM      3  O1  UNL     1      21.272   2.276  34.105  0.00  0.00    -0.270 OA
ATOM      4  H5  UNL     1      18.717   3.611  32.596  0.00  0.00    +0.150 HD
ENDROOT
BRANCH   2   5
ATOM      5  C4  UNL     1      20.932   2.269  31.760  0.00  0.00    +0.050 A 
ATOM      6  C5  UNL     1      21.023   0.926  31.355  0.00  0.00    +0.055 A 
ATOM      7  C6  UNL     1      21.484   0.596  30.079  0.00  0.00    +0.159 A 
ATOM      8  F1  UNL     1      21.576  -0.705  29.709  0.00  0.00    -0.202 F 
ATOM      9  C7  UNL     1      21.855   1.605  29.188  0.00  0.00    +0.159 A 
ATOM     10  F2  UNL     1      22.302   1.285  27.948  0.00  0.00    -0.202 F 
ATOM     11  C8  UNL     1      21.751   2.945  29.566  0.00  0.00    +0.053 A 
ATOM     12  C9  UNL     1      21.285   3.294  30.845  0.00  0.00    +0.037 A 
BRANCH  12  13
ATOM     13  C10 UNL     1      21.089   4.729  31.163  0.00  0.00    +0.194 C 
ATOM     14  O2  UNL     1      19.939   5.226  31.027  0.00  0.00    -0.287 OA
BRANCH  13  15
ATOM     15  C11 UNL     1      22.206   5.590  31.627  0.00  0.00    +0.022 A 
ATOM     16  C12 UNL     1      22.379   6.876  31.083  0.00  0.00    +0.012 A 
ATOM     17  C13 UNL     1      23.421   7.698  31.524  0.00  0.00    +0.001 A 
ATOM     18  C14 UNL     1      24.294   7.252  32.517  0.00  0.00    +0.000 A 
ATOM     19  C15 UNL     1      24.125   5.983  33.075  0.00  0.00    +0.001 A 
ATOM     20  C16 UNL     1      23.087   5.155  32.637  0.00  0.00    +0.012 A 
ENDBRANCH  13  15
ENDBRANCH  12  13
ENDBRANCH   2   5
BRANCH   1  22
ATOM     21  C1  UNL     1      17.215   3.185  34.791  0.00  0.00    +0.033 C 
ATOM     22  C2  UNL     1      18.732   3.395  34.762  0.00  0.00    +0.101 C 
BRANCH  22  23
ATOM     23  C17 UNL     1      19.084   4.775  35.272  0.00  0.00    -0.024 A 
ATOM     24  C18 UNL     1      18.536   5.259  36.477  0.00  0.00    +0.009 A 
ATOM     25  C19 UNL     1      18.879   6.527  36.953  0.00  0.00    +0.050 A 
ATOM     26  C20 UNL     1      19.777   7.320  36.235  0.00  0.00    +0.162 A 
ATOM     27  C21 UNL     1      20.311   6.858  35.026  0.00  0.00    +0.162 A 
ATOM     28  C22 UNL     1      19.983   5.584  34.554  0.00  0.00    +0.055 A 
ATOM     29  O3  UNL     1      21.175   7.687  34.303  0.00  0.00    -0.485 OA
ATOM     30  C23 UNL     1      21.304   9.076  34.622  0.00  0.00    +0.270 C 
ATOM     31  C24 UNL     1      21.269   9.277  36.143  0.00  0.00    +0.270 C 
ATOM     32  O4  UNL     1      20.157   8.580  36.710  0.00  0.00    -0.485 OA
ENDBRANCH  22  23
ENDBRANCH   1  22
TORSDOF 5
ENDMDL
MODEL 6
REMARK VINA RESULT:    -7.197      2.919      7.567
REMARK INTER + INTRA:         -10.636
REMARK INTER:                  -9.077
REMARK INTRA:                  -1.559
REMARK UNBOUND:                -1.336
REMARK  Name = /home/qwerty/github/datacon2025hack/step_04_hit_selection/docking/ligands/lig_550.pdb
REMARK  6 active torsions:
REMARK  status: ('A' for Active; 'I' for Inactive)
REMARK    1  A    between atoms: C1_1  and  C2_2
REMARK    2  A    between atoms: C2_2  and  N1_3
REMARK    3  A    between atoms: C2_2  and  C17_22
REMARK    4  A    between atoms: C3_4  and  C4_6
REMARK    5  A    between atoms: C9_13  and  C10_14
REMARK    6  A    between atoms: C10_14  and  C11_16
REMARK                            x       y       z     vdW  Elec       q    Type
REMARK                         _______ _______ _______ _____ _____    ______ ____
ROOT
ATOM      1  N1  UNL     1       8.662   7.960  26.005  0.00  0.00    -0.305 N 
ATOM      2  C3  UNL     1       9.385   7.372  24.912  0.00  0.00    +0.245 C 
ATOM      3  O1  UNL     1      10.643   7.299  24.956  0.00  0.00    -0.270 OA
ATOM      4  H5  UNL     1       7.651   8.190  25.871  0.00  0.00    +0.150 HD
ENDROOT
BRANCH   2   5
ATOM      5  C4  UNL     1       8.670   6.890  23.708  0.00  0.00    +0.050 A 
ATOM      6  C5  UNL     1       8.215   5.560  23.685  0.00  0.00    +0.055 A 
ATOM      7  C6  UNL     1       7.594   5.039  22.548  0.00  0.00    +0.159 A 
ATOM      8  F1  UNL     1       7.172   3.751  22.538  0.00  0.00    -0.202 F 
ATOM      9  C7  UNL     1       7.414   5.843  21.421  0.00  0.00    +0.159 A 
ATOM     10  F2  UNL     1       6.809   5.338  20.316  0.00  0.00    -0.202 F 
ATOM     11  C8  UNL     1       7.840   7.173  21.434  0.00  0.00    +0.053 A 
ATOM     12  C9  UNL     1       8.463   7.713  22.572  0.00  0.00    +0.037 A 
BRANCH  12  13
ATOM     13  C10 UNL     1       8.800   9.157  22.579  0.00  0.00    +0.194 C 
ATOM     14  O2  UNL     1       8.092   9.939  23.269  0.00  0.00    -0.287 OA
BRANCH  13  15
ATOM     15  C11 UNL     1       9.937   9.702  21.795  0.00  0.00    +0.022 A 
ATOM     16  C12 UNL     1      11.173   9.948  22.421  0.00  0.00    +0.012 A 
ATOM     17  C13 UNL     1      12.252  10.449  21.686  0.00  0.00    +0.001 A 
ATOM     18  C14 UNL     1      12.114  10.702  20.320  0.00  0.00    +0.000 A 
ATOM     19  C15 UNL     1      10.896  10.450  19.684  0.00  0.00    +0.001 A 
ATOM     20  C16 UNL     1       9.813   9.950  20.414  0.00  0.00    +0.012 A 
ENDBRANCH  13  15
ENDBRANCH  12  13
ENDBRANCH   2   5
BRANCH   1  22
ATOM     21  C1  UNL     1       8.511   7.809  28.457  0.00  0.00    +0.033 C 
ATOM     22  C2  UNL     1       9.318   8.327  27.263  0.00  0.00    +0.101 C 
BRANCH  22  23
ATOM     23  C17 UNL     1       9.485   9.828  27.350  0.00  0.00    -0.024 A 
ATOM     24  C18 UNL     1       8.367  10.667  27.531  0.00  0.00    +0.009 A 
ATOM     25  C19 UNL     1       8.528  12.052  27.630  0.00  0.00    +0.050 A 
ATOM     26  C20 UNL     1       9.806  12.610  27.556  0.00  0.00    +0.162 A 
ATOM     27  C21 UNL     1      10.921  11.788  27.356  0.00  0.00    +0.162 A 
ATOM     28  C22 UNL     1      10.767  10.401  27.272  0.00  0.00    +0.055 A 
ATOM     29  O3  UNL     1      12.187  12.374  27.243  0.00  0.00    -0.485 OA
ATOM     30  C23 UNL     1      12.332  13.784  27.051  0.00  0.00    +0.270 C 
ATOM     31  C24 UNL     1      11.295  14.544  27.887  0.00  0.00    +0.270 C 
ATOM     32  O4  UNL     1       9.993  13.991  27.683  0.00  0.00    -0.485 OA
ENDBRANCH  22  23
ENDBRANCH   1  22
TORSDOF 5
ENDMDL
MODEL 7
REMARK VINA RESULT:    -7.195     13.657     15.554
REMARK INTER + INTRA:         -10.633
REMARK INTER:                  -9.107
REMARK INTRA:                  -1.527
REMARK UNBOUND:                -1.336
REMARK  Name = /home/qwerty/github/datacon2025hack/step_04_hit_selection/docking/ligands/lig_550.pdb
REMARK  6 active torsions:
REMARK  status: ('A' for Active; 'I' for Inactive)
REMARK    1  A    between atoms: C1_1  and  C2_2
REMARK    2  A    between atoms: C2_2  and  N1_3
REMARK    3  A    between atoms: C2_2  and  C17_22
REMARK    4  A    between atoms: C3_4  and  C4_6
REMARK    5  A    between atoms: C9_13  and  C10_14
REMARK    6  A    between atoms: C10_14  and  C11_16
REMARK                            x       y       z     vdW  Elec       q    Type
REMARK                         _______ _______ _______ _____ _____    ______ ____
ROOT
ATOM      1  N1  UNL     1      20.555   5.337  32.390  0.00  0.00    -0.305 N 
ATOM      2  C3  UNL     1      20.423   6.466  33.267  0.00  0.00    +0.245 C 
ATOM      3  O1  UNL     1      19.705   7.446  32.928  0.00  0.00    -0.270 OA
ATOM      4  H5  UNL     1      21.299   4.629  32.591  0.00  0.00    +0.150 HD
ENDROOT
BRANCH   2   5
ATOM      5  C4  UNL     1      21.160   6.514  34.550  0.00  0.00    +0.050 A 
ATOM      6  C5  UNL     1      20.424   6.514  35.747  0.00  0.00    +0.055 A 
ATOM      7  C6  UNL     1      21.071   6.624  36.981  0.00  0.00    +0.159 A 
ATOM      8  F1  UNL     1      20.344   6.635  38.125  0.00  0.00    -0.202 F 
ATOM      9  C7  UNL     1      22.461   6.730  37.034  0.00  0.00    +0.159 A 
ATOM     10  F2  UNL     1      23.090   6.835  38.231  0.00  0.00    -0.202 F 
ATOM     11  C8  UNL     1      23.210   6.709  35.855  0.00  0.00    +0.053 A 
ATOM     12  C9  UNL     1      22.575   6.595  34.606  0.00  0.00    +0.037 A 
BRANCH  12  13
ATOM     13  C10 UNL     1      23.415   6.469  33.391  0.00  0.00    +0.194 C 
ATOM     14  O2  UNL     1      23.797   5.320  33.037  0.00  0.00    -0.287 OA
BRANCH  13  15
ATOM     15  C11 UNL     1      23.823   7.652  32.591  0.00  0.00    +0.022 A 
ATOM     16  C12 UNL     1      24.926   8.427  32.991  0.00  0.00    +0.012 A 
ATOM     17  C13 UNL     1      25.325   9.536  32.236  0.00  0.00    +0.001 A 
ATOM     18  C14 UNL     1      24.634   9.875  31.071  0.00  0.00    +0.000 A 
ATOM     19  C15 UNL     1      23.545   9.105  30.657  0.00  0.00    +0.001 A 
ATOM     20  C16 UNL     1      23.141   7.998  31.408  0.00  0.00    +0.012 A 
ENDBRANCH  13  15
ENDBRANCH  12  13
ENDBRANCH   2   5
BRANCH   1  22
ATOM     21  C1  UNL     1      18.452   4.431  31.487  0.00  0.00    +0.033 C 
ATOM     22  C2  UNL     1      19.743   5.194  31.178  0.00  0.00    +0.101 C 
BRANCH  22  23
ATOM     23  C17 UNL     1      20.531   4.483  30.099  0.00  0.00    -0.024 A 
ATOM     24  C18 UNL     1      21.075   3.204  30.329  0.00  0.00    +0.009 A 
ATOM     25  C19 UNL     1      21.785   2.544  29.322  0.00  0.00    +0.050 A 
ATOM     26  C20 UNL     1      21.952   3.152  28.076  0.00  0.00    +0.162 A 
ATOM     27  C21 UNL     1      21.433   4.431  27.843  0.00  0.00    +0.162 A 
ATOM     28  C22 UNL     1      20.709   5.089  28.842  0.00  0.00    +0.055 A 
ATOM     29  O3  UNL     1      21.650   5.037  26.601  0.00  0.00    -0.485 OA
ATOM     30  C23 UNL     1      22.607   4.509  25.679  0.00  0.00    +0.270 C 
ATOM     31  C24 UNL     1      22.574   2.975  25.699  0.00  0.00    +0.270 C 
ATOM     32  O4  UNL     1      22.633   2.496  27.045  0.00  0.00    -0.485 OA
ENDBRANCH  22  23
ENDBRANCH   1  22
TORSDOF 5
ENDMDL
MODEL 8
REMARK VINA RESULT:    -7.186      3.691      7.847
REMARK INTER + INTRA:         -10.622
REMARK INTER:                  -8.953
REMARK INTRA:                  -1.669
REMARK UNBOUND:                -1.336
REMARK  Name = /home/qwerty/github/datacon2025hack/step_04_hit_selection/docking/ligands/lig_550.pdb
REMARK  6 active torsions:
REMARK  status: ('A' for Active; 'I' for Inactive)
REMARK    1  A    between atoms: C1_1  and  C2_2
REMARK    2  A    between atoms: C2_2  and  N1_3
REMARK    3  A    between atoms: C2_2  and  C17_22
REMARK    4  A    between atoms: C3_4  and  C4_6
REMARK    5  A    between atoms: C9_13  and  C10_14
REMARK    6  A    between atoms: C10_14  and  C11_16
REMARK                            x       y       z     vdW  Elec       q    Type
REMARK                         _______ _______ _______ _____ _____    ______ ____
ROOT
ATOM      1  N1  UNL     1       8.700  10.102  25.433  0.00  0.00    -0.305 N 
ATOM      2  C3  UNL     1       8.102   9.929  24.139  0.00  0.00    +0.245 C 
ATOM      3  O1  UNL     1       6.853  10.046  24.001  0.00  0.00    -0.270 OA
ATOM      4  H5  UNL     1       9.695   9.812  25.569  0.00  0.00    +0.150 HD
ENDROOT
BRANCH   2   5
ATOM      5  C4  UNL     1       8.932   9.568  22.968  0.00  0.00    +0.050 A 
ATOM      6  C5  UNL     1       9.048  10.493  21.916  0.00  0.00    +0.055 A 
ATOM      7  C6  UNL     1       9.765  10.173  20.761  0.00  0.00    +0.159 A 
ATOM      8  F1  UNL     1       9.857  11.073  19.752  0.00  0.00    -0.202 F 
ATOM      9  C7  UNL     1      10.382   8.926  20.645  0.00  0.00    +0.159 A 
ATOM     10  F2  UNL     1      11.080   8.615  19.525  0.00  0.00    -0.202 F 
ATOM     11  C8  UNL     1      10.295   8.003  21.689  0.00  0.00    +0.053 A 
ATOM     12  C9  UNL     1       9.580   8.310  22.860  0.00  0.00    +0.037 A 
BRANCH  12  13
ATOM     13  C10 UNL     1       9.606   7.344  23.983  0.00  0.00    +0.194 C 
ATOM     14  O2  UNL     1      10.281   7.628  25.009  0.00  0.00    -0.287 OA
BRANCH  13  15
ATOM     15  C11 UNL     1       8.869   6.056  23.929  0.00  0.00    +0.022 A 
ATOM     16  C12 UNL     1       8.090   5.736  22.802  0.00  0.00    +0.012 A 
ATOM     17  C13 UNL     1       7.403   4.519  22.737  0.00  0.00    +0.001 A 
ATOM     18  C14 UNL     1       7.494   3.606  23.790  0.00  0.00    +0.000 A 
ATOM     19  C15 UNL     1       8.274   3.907  24.908  0.00  0.00    +0.001 A 
ATOM     20  C16 UNL     1       8.961   5.122  24.979  0.00  0.00    +0.012 A 
ENDBRANCH  13  15
ENDBRANCH  12  13
ENDBRANCH   2   5
BRANCH   1  22
ATOM     21  C1  UNL     1       8.683  11.725  27.284  0.00  0.00    +0.033 C 
ATOM     22  C2  UNL     1       7.934  10.586  26.586  0.00  0.00    +0.101 C 
BRANCH  22  23
ATOM     23  C17 UNL     1       7.671   9.455  27.555  0.00  0.00    -0.024 A 
ATOM     24  C18 UNL     1       7.705   9.677  28.946  0.00  0.00    +0.009 A 
ATOM     25  C19 UNL     1       7.444   8.632  29.837  0.00  0.00    +0.050 A 
ATOM     26  C20 UNL     1       7.139   7.360  29.348  0.00  0.00    +0.162 A 
ATOM     27  C21 UNL     1       7.122   7.124  27.968  0.00  0.00    +0.162 A 
ATOM     28  C22 UNL     1       7.368   8.169  27.073  0.00  0.00    +0.055 A 
ATOM     29  O3  UNL     1       6.856   5.832  27.503  0.00  0.00    -0.485 OA
ATOM     30  C23 UNL     1       6.876   4.710  28.389  0.00  0.00    +0.270 C 
ATOM     31  C24 UNL     1       6.265   5.092  29.744  0.00  0.00    +0.270 C 
ATOM     32  O4  UNL     1       6.843   6.309  30.222  0.00  0.00    -0.485 OA
ENDBRANCH  22  23
ENDBRANCH   1  22
TORSDOF 5
ENDMDL
MODEL 9
REMARK VINA RESULT:    -7.007      2.524      4.918
REMARK INTER + INTRA:         -10.391
REMARK INTER:                  -8.292
REMARK INTRA:                  -2.099
REMARK UNBOUND:                -1.336
REMARK  Name = /home/qwerty/github/datacon2025hack/step_04_hit_selection/docking/ligands/lig_550.pdb
REMARK  6 active torsions:
REMARK  status: ('A' for Active; 'I' for Inactive)
REMARK    1  A    between atoms: C1_1  and  C2_2
REMARK    2  A    between atoms: C2_2  and  N1_3
REMARK    3  A    between atoms: C2_2  and  C17_22
REMARK    4  A    between atoms: C3_4  and  C4_6
REMARK    5  A    between atoms: C9_13  and  C10_14
REMARK    6  A    between atoms: C10_14  and  C11_16
REMARK                            x       y       z     vdW  Elec       q    Type
REMARK                         _______ _______ _______ _____ _____    ______ ____
ROOT
ATOM      1  N1  UNL     1       8.653   7.243  27.336  0.00  0.00    -0.305 N 
ATOM      2  C3  UNL     1       7.746   8.356  27.297  0.00  0.00    +0.245 C 
ATOM      3  O1  UNL     1       6.539   8.173  26.979  0.00  0.00    -0.270 OA
ATOM      4  H5  UNL     1       9.679   7.435  27.407  0.00  0.00    +0.150 HD
ENDROOT
BRANCH   2   5
ATOM      5  C4  UNL     1       8.223   9.727  27.583  0.00  0.00    +0.050 A 
ATOM      6  C5  UNL     1       7.660  10.421  28.668  0.00  0.00    +0.055 A 
ATOM      7  C6  UNL     1       8.029  11.741  28.938  0.00  0.00    +0.159 A 
ATOM      8  F1  UNL     1       7.467  12.400  29.981  0.00  0.00    -0.202 F 
ATOM      9  C7  UNL     1       8.970  12.382  28.131  0.00  0.00    +0.159 A 
ATOM     10  F2  UNL     1       9.330  13.664  28.394  0.00  0.00    -0.202 F 
ATOM     11  C8  UNL     1       9.556  11.701  27.062  0.00  0.00    +0.053 A 
ATOM     12  C9  UNL     1       9.198  10.371  26.779  0.00  0.00    +0.037 A 
BRANCH  12  13
ATOM     13  C10 UNL     1       9.924   9.654  25.703  0.00  0.00    +0.194 C 
ATOM     14  O2  UNL     1      10.829   8.838  26.026  0.00  0.00    -0.287 OA
BRANCH  13  15
ATOM     15  C11 UNL     1       9.619   9.876  24.267  0.00  0.00    +0.022 A 
ATOM     16  C12 UNL     1      10.665   9.971  23.331  0.00  0.00    +0.012 A 
ATOM     17  C13 UNL     1      10.386  10.168  21.974  0.00  0.00    +0.001 A 
ATOM     18  C14 UNL     1       9.064  10.261  21.537  0.00  0.00    +0.000 A 
ATOM     19  C15 UNL     1       8.017  10.156  22.454  0.00  0.00    +0.001 A 
ATOM     20  C16 UNL     1       8.289   9.961  23.812  0.00  0.00    +0.012 A 
ENDBRANCH  13  15
ENDBRANCH  12  13
ENDBRANCH   2   5
BRANCH   1  22
ATOM     21  C1  UNL     1       9.022   4.925  28.076  0.00  0.00    +0.033 C 
ATOM     22  C2  UNL     1       8.194   5.859  27.188  0.00  0.00    +0.101 C 
BRANCH  22  23
ATOM     23  C17 UNL     1       8.282   5.427  25.741  0.00  0.00    -0.024 A 
ATOM     24  C18 UNL     1       7.940   4.115  25.359  0.00  0.00    +0.009 A 
ATOM     25  C19 UNL     1       8.005   3.727  24.018  0.00  0.00    +0.050 A 
ATOM     26  C20 UNL     1       8.406   4.646  23.047  0.00  0.00    +0.162 A 
ATOM     27  C21 UNL     1       8.768   5.947  23.417  0.00  0.00    +0.162 A 
ATOM     28  C22 UNL     1       8.689   6.344  24.755  0.00  0.00    +0.055 A 
ATOM     29  O3  UNL     1       9.206   6.837  22.432  0.00  0.00    -0.485 OA
ATOM     30  C23 UNL     1       9.553   6.377  21.123  0.00  0.00    +0.270 C 
ATOM     31  C24 UNL     1       8.584   5.277  20.672  0.00  0.00    +0.270 C 
ATOM     32  O4  UNL     1       8.448   4.287  21.695  0.00  0.00    -0.485 OA
ENDBRANCH  22  23
ENDBRANCH   1  22
TORSDOF 5
ENDMDL
