REMARK  Name = /home/qwerty/github/datacon2025hack/step_04_hit_selection/docking/ligands/lig_675.pdb
REMARK  6 active torsions:
REMARK  status: ('A' for Active; 'I' for Inactive)
REMARK    1  A    between atoms: C1_1  and  C2_2
REMARK    2  A    between atoms: C4_5  and  C5_7
REMARK    3  A    between atoms: C5_7  and  C6_8
REMARK    4  A    between atoms: C12_15  and  N2_16
REMARK    5  A    between atoms: N2_16  and  C13_17
REMARK    6  A    between atoms: C16_21  and  C17_22
REMARK                            x       y       z     vdW  Elec       q    Type
REMARK                         _______ _______ _______ _____ _____    ______ ____
ROOT
ATOM      1  C1  UNL     1       0.552   2.119   2.525  0.00  0.00    +0.011 C 
ATOM      2  C2  UNL     1       0.033   1.821   1.111  0.00  0.00    +0.024 C 
ATOM      3  C3  UNL     1      -1.351   1.150   1.178  0.00  0.00    +0.112 C 
ATOM      4  N1  UNL     1      -1.861   0.836  -0.167  0.00  0.00    -0.301 N 
ATOM      5  C4  UNL     1      -3.271   0.606  -0.380  0.00  0.00    +0.220 C 
ATOM      6  O1  UNL     1      -3.764   0.780  -1.529  0.00  0.00    -0.275 OA
ATOM      7  C10 UNL     1      -0.951   0.891  -1.321  0.00  0.00    +0.109 C 
ATOM      8  C11 UNL     1       0.411   0.297  -0.949  0.00  0.00    +0.041 C 
ATOM      9  C12 UNL     1       1.039   0.943   0.317  0.00  0.00    +0.078 C 
ENDROOT
BRANCH   9  10
ATOM     10  N2  UNL     1       2.225   1.727  -0.053  0.00  0.00    -0.325 N 
ATOM     11  H17 UNL     1       2.181   2.772  -0.024  0.00  0.00    +0.148 HD
BRANCH  10  12
ATOM     12  C13 UNL     1       3.466   1.108  -0.425  0.00  0.00    +0.138 A 
ATOM     13  C14 UNL     1       4.577   1.891  -0.761  0.00  0.00    +0.154 A 
ATOM     14  N3  UNL     1       5.741   1.285  -1.113  0.00  0.00    -0.258 NA
ATOM     15  C15 UNL     1       5.851  -0.068  -1.147  0.00  0.00    +0.142 A 
ATOM     16  C16 UNL     1       4.743  -0.859  -0.813  0.00  0.00    +0.131 A 
ATOM     17  N8  UNL     1       3.581  -0.248  -0.460  0.00  0.00    -0.226 NA
BRANCH  16  18
ATOM     18  C17 UNL     1       4.813  -2.328  -0.836  0.00  0.00    +0.224 A 
ATOM     19  N4  UNL     1       5.910  -3.039  -1.168  0.00  0.00    -0.106 NA
ATOM     20  N5  UNL     1       5.539  -4.305  -1.059  0.00  0.00    -0.048 NA
ATOM     21  N6  UNL     1       4.274  -4.354  -0.679  0.00  0.00    -0.176 N 
ATOM     22  N7  UNL     1       3.781  -3.137  -0.528  0.00  0.00    -0.131 NA
ATOM     23  H20 UNL     1       3.737  -5.234  -0.520  0.00  0.00    +0.214 HD
ENDBRANCH  16  18
ENDBRANCH  10  12
ENDBRANCH   9  10
BRANCH   5  24
ATOM     24  C5  UNL     1      -4.187   0.227   0.756  0.00  0.00    +0.134 C 
BRANCH  24  25
ATOM     25  C6  UNL     1      -5.227  -0.756   0.310  0.00  0.00    -0.001 A 
ATOM     26  C7  UNL     1      -6.507  -0.466  -0.113  0.00  0.00    +0.045 A 
ATOM     27  C8  UNL     1      -7.056  -1.679  -0.478  0.00  0.00    +0.195 A 
ATOM     28  O2  UNL     1      -6.175  -2.638  -0.302  0.00  0.00    -0.471 OA
ATOM     29  C9  UNL     1      -5.063  -2.118   0.164  0.00  0.00    +0.198 A 
ENDBRANCH  24  25
ENDBRANCH   5  24
TORSDOF 5
