MODEL 1
REMARK VINA RESULT:    -5.470      0.000      0.000
REMARK INTER + INTRA:          -6.935
REMARK INTER:                  -6.430
REMARK INTRA:                  -0.505
REMARK UNBOUND:                -0.505
REMARK  Name = /home/qwerty/github/datacon2025hack/step_04_hit_selection/docking/ligands/lig_732.pdb
REMARK  5 active torsions:
REMARK  status: ('A' for Active; 'I' for Inactive)
REMARK    1  A    between atoms: C1_1  and  O1_2
REMARK    2  A    between atoms: O1_2  and  C2_3
REMARK    3  A    between atoms: C5_6  and  N1_7
REMARK    4  A    between atoms: C9_13  and  N3_14
REMARK    5  A    between atoms: C14_19  and  C15_20
REMARK                            x       y       z     vdW  Elec       q    Type
REMARK                         _______ _______ _______ _____ _____    ______ ____
ROOT
ATOM      1  N1  UNL     1      18.513  10.265  36.252  0.00  0.00    -0.269 N 
ATOM      2  C6  UNL     1      19.168   9.308  37.103  0.00  0.00    +0.307 C 
ATOM      3  O2  UNL     1      18.705   9.075  38.253  0.00  0.00    -0.252 OA
ATOM      4  N2  UNL     1      20.366   8.635  36.674  0.00  0.00    -0.281 N 
ATOM      5  C7  UNL     1      21.093   7.713  37.533  0.00  0.00    +0.111 C 
ATOM      6  C8  UNL     1      22.203   7.135  36.665  0.00  0.00    +0.040 C 
ATOM      7  C9  UNL     1      22.380   8.153  35.529  0.00  0.00    +0.078 C 
ATOM      8  C14 UNL     1      20.965   8.740  35.347  0.00  0.00    +0.092 C 
ATOM      9  C15 UNL     1      20.094   7.959  34.345  0.00  0.00    +0.029 C 
ATOM     10  H6  UNL     1      19.077  10.754  35.524  0.00  0.00    +0.156 HD
ENDROOT
BRANCH   1  14
ATOM     11  C2  UNL     1      14.452  11.427  36.798  0.00  0.00    +0.120 A 
ATOM     12  C3  UNL     1      14.774  10.176  36.237  0.00  0.00    +0.047 A 
ATOM     13  C4  UNL     1      16.110   9.806  36.061  0.00  0.00    +0.027 A 
ATOM     14  C5  UNL     1      17.146  10.680  36.423  0.00  0.00    +0.035 A 
ATOM     15  C16 UNL     1      16.822  11.919  37.001  0.00  0.00    +0.027 A 
ATOM     16  C17 UNL     1      15.486  12.289  37.179  0.00  0.00    +0.047 A 
BRANCH  11  18
ATOM     17  C1  UNL     1      12.027  10.964  37.188  0.00  0.00    +0.277 C 
ATOM     18  O1  UNL     1      13.128  11.846  36.995  0.00  0.00    -0.495 OA
ENDBRANCH  11  18
ENDBRANCH   1  14
BRANCH   7  19
ATOM     19  N3  UNL     1      22.939   7.563  34.285  0.00  0.00    -0.298 NA
ATOM     20  C10 UNL     1      23.947   6.529  34.553  0.00  0.00    +0.085 C 
ATOM     21  C11 UNL     1      24.867   6.481  33.344  0.00  0.00    +0.017 C 
ATOM     22  C12 UNL     1      24.654   7.802  32.626  0.00  0.00    +0.017 C 
ATOM     23  C13 UNL     1      23.657   8.563  33.482  0.00  0.00    +0.085 C 
ENDBRANCH   7  19
TORSDOF 3
ENDMDL
MODEL 2
REMARK VINA RESULT:    -5.348     11.910     14.002
REMARK INTER + INTRA:          -6.791
REMARK INTER:                  -6.314
REMARK INTRA:                  -0.477
REMARK UNBOUND:                -0.505
REMARK  Name = /home/qwerty/github/datacon2025hack/step_04_hit_selection/docking/ligands/lig_732.pdb
REMARK  5 active torsions:
REMARK  status: ('A' for Active; 'I' for Inactive)
REMARK    1  A    between atoms: C1_1  and  O1_2
REMARK    2  A    between atoms: O1_2  and  C2_3
REMARK    3  A    between atoms: C5_6  and  N1_7
REMARK    4  A    between atoms: C9_13  and  N3_14
REMARK    5  A    between atoms: C14_19  and  C15_20
REMARK                            x       y       z     vdW  Elec       q    Type
REMARK                         _______ _______ _______ _____ _____    ______ ____
ROOT
ATOM      1  N1  UNL     1      18.698   0.417  25.043  0.00  0.00    -0.269 N 
ATOM      2  C6  UNL     1      19.910   1.185  25.142  0.00  0.00    +0.307 C 
ATOM      3  O2  UNL     1      20.486   1.581  24.093  0.00  0.00    -0.252 OA
ATOM      4  N2  UNL     1      20.495   1.481  26.424  0.00  0.00    -0.281 N 
ATOM      5  C7  UNL     1      21.755   2.197  26.560  0.00  0.00    +0.111 C 
ATOM      6  C8  UNL     1      21.945   2.410  28.056  0.00  0.00    +0.040 C 
ATOM      7  C9  UNL     1      21.062   1.341  28.717  0.00  0.00    +0.078 C 
ATOM      8  C14 UNL     1      19.899   1.164  27.718  0.00  0.00    +0.092 C 
ATOM      9  C15 UNL     1      18.717   2.118  27.969  0.00  0.00    +0.029 C 
ATOM     10  H6  UNL     1      18.456  -0.237  25.820  0.00  0.00    +0.156 HD
ENDROOT
BRANCH   1  14
ATOM     11  C2  UNL     1      16.156   0.323  21.628  0.00  0.00    +0.120 A 
ATOM     12  C3  UNL     1      16.819  -0.840  22.065  0.00  0.00    +0.047 A 
ATOM     13  C4  UNL     1      17.653  -0.797  23.185  0.00  0.00    +0.027 A 
ATOM     14  C5  UNL     1      17.853   0.405  23.879  0.00  0.00    +0.035 A 
ATOM     15  C16 UNL     1      17.174   1.560  23.454  0.00  0.00    +0.027 A 
ATOM     16  C17 UNL     1      16.339   1.517  22.334  0.00  0.00    +0.047 A 
BRANCH  11  18
ATOM     17  C1  UNL     1      14.783   1.513  19.911  0.00  0.00    +0.277 C 
ATOM     18  O1  UNL     1      15.309   0.333  20.510  0.00  0.00    -0.495 OA
ENDBRANCH  11  18
ENDBRANCH   1  14
BRANCH   7  19
ATOM     19  N3  UNL     1      20.615   1.704  30.086  0.00  0.00    -0.298 NA
ATOM     20  C10 UNL     1      21.620   2.483  30.822  0.00  0.00    +0.085 C 
ATOM     21  C11 UNL     1      21.377   2.236  32.302  0.00  0.00    +0.017 C 
ATOM     22  C12 UNL     1      20.551   0.963  32.367  0.00  0.00    +0.017 C 
ATOM     23  C13 UNL     1      20.400   0.515  30.923  0.00  0.00    +0.085 C 
ENDBRANCH   7  19
TORSDOF 3
ENDMDL
MODEL 3
REMARK VINA RESULT:    -5.308     11.573     13.996
REMARK INTER + INTRA:          -6.744
REMARK INTER:                  -6.249
REMARK INTRA:                  -0.495
REMARK UNBOUND:                -0.505
REMARK  Name = /home/qwerty/github/datacon2025hack/step_04_hit_selection/docking/ligands/lig_732.pdb
REMARK  5 active torsions:
REMARK  status: ('A' for Active; 'I' for Inactive)
REMARK    1  A    between atoms: C1_1  and  O1_2
REMARK    2  A    between atoms: O1_2  and  C2_3
REMARK    3  A    between atoms: C5_6  and  N1_7
REMARK    4  A    between atoms: C9_13  and  N3_14
REMARK    5  A    between atoms: C14_19  and  C15_20
REMARK                            x       y       z     vdW  Elec       q    Type
REMARK                         _______ _______ _______ _____ _____    ______ ____
ROOT
ATOM      1  N1  UNL     1      21.017   5.478  23.989  0.00  0.00    -0.269 N 
ATOM      2  C6  UNL     1      20.626   4.121  23.716  0.00  0.00    +0.307 C 
ATOM      3  O2  UNL     1      20.281   3.792  22.549  0.00  0.00    -0.252 OA
ATOM      4  N2  UNL     1      20.591   3.136  24.767  0.00  0.00    -0.281 N 
ATOM      5  C7  UNL     1      20.137   1.772  24.542  0.00  0.00    +0.111 C 
ATOM      6  C8  UNL     1      20.378   1.040  25.856  0.00  0.00    +0.040 C 
ATOM      7  C9  UNL     1      20.453   2.151  26.914  0.00  0.00    +0.078 C 
ATOM      8  C14 UNL     1      21.042   3.349  26.138  0.00  0.00    +0.092 C 
ATOM      9  C15 UNL     1      22.581   3.399  26.154  0.00  0.00    +0.029 C 
ATOM     10  H6  UNL     1      20.901   5.845  24.958  0.00  0.00    +0.156 HD
ENDROOT
BRANCH   1  14
ATOM     11  C2  UNL     1      22.275   8.277  21.036  0.00  0.00    +0.120 A 
ATOM     12  C3  UNL     1      20.988   8.357  21.602  0.00  0.00    +0.047 A 
ATOM     13  C4  UNL     1      20.585   7.431  22.569  0.00  0.00    +0.027 A 
ATOM     14  C5  UNL     1      21.448   6.403  22.975  0.00  0.00    +0.035 A 
ATOM     15  C16 UNL     1      22.739   6.337  22.424  0.00  0.00    +0.027 A 
ATOM     16  C17 UNL     1      23.143   7.263  21.458  0.00  0.00    +0.047 A 
BRANCH  11  18
ATOM     17  C1  UNL     1      23.725  10.171  20.288  0.00  0.00    +0.277 C 
ATOM     18  O1  UNL     1      22.728   9.179  20.063  0.00  0.00    -0.495 OA
ENDBRANCH  11  18
ENDBRANCH   1  14
BRANCH   7  19
ATOM     19  N3  UNL     1      21.246   1.776  28.113  0.00  0.00    -0.298 NA
ATOM     20  C10 UNL     1      21.864   0.450  27.991  0.00  0.00    +0.085 C 
ATOM     21  C11 UNL     1      22.059  -0.081  29.402  0.00  0.00    +0.017 C 
ATOM     22  C12 UNL     1      21.124   0.739  30.272  0.00  0.00    +0.017 C 
ATOM     23  C13 UNL     1      20.403   1.670  29.312  0.00  0.00    +0.085 C 
ENDBRANCH   7  19
TORSDOF 3
ENDMDL
MODEL 4
REMARK VINA RESULT:    -5.299     16.409     18.710
REMARK INTER + INTRA:          -6.734
REMARK INTER:                  -6.201
REMARK INTRA:                  -0.533
REMARK UNBOUND:                -0.505
REMARK  Name = /home/qwerty/github/datacon2025hack/step_04_hit_selection/docking/ligands/lig_732.pdb
REMARK  5 active torsions:
REMARK  status: ('A' for Active; 'I' for Inactive)
REMARK    1  A    between atoms: C1_1  and  O1_2
REMARK    2  A    between atoms: O1_2  and  C2_3
REMARK    3  A    between atoms: C5_6  and  N1_7
REMARK    4  A    between atoms: C9_13  and  N3_14
REMARK    5  A    between atoms: C14_19  and  C15_20
REMARK                            x       y       z     vdW  Elec       q    Type
REMARK                         _______ _______ _______ _____ _____    ______ ____
ROOT
ATOM      1  N1  UNL     1      13.538   3.738  20.721  0.00  0.00    -0.269 N 
ATOM      2  C6  UNL     1      12.105   3.634  20.790  0.00  0.00    +0.307 C 
ATOM      3  O2  UNL     1      11.565   2.501  20.905  0.00  0.00    -0.252 OA
ATOM      4  N2  UNL     1      11.274   4.806  20.697  0.00  0.00    -0.281 N 
ATOM      5  C7  UNL     1       9.820   4.734  20.695  0.00  0.00    +0.111 C 
ATOM      6  C8  UNL     1       9.339   6.179  20.712  0.00  0.00    +0.040 C 
ATOM      7  C9  UNL     1      10.529   6.993  20.182  0.00  0.00    +0.078 C 
ATOM      8  C14 UNL     1      11.757   6.183  20.648  0.00  0.00    +0.092 C 
ATOM      9  C15 UNL     1      12.267   6.581  22.045  0.00  0.00    +0.029 C 
ATOM     10  H6  UNL     1      13.956   4.558  20.232  0.00  0.00    +0.156 HD
ENDROOT
BRANCH   1  14
ATOM     11  C2  UNL     1      16.249   0.729  22.038  0.00  0.00    +0.120 A 
ATOM     12  C3  UNL     1      15.938   0.870  20.672  0.00  0.00    +0.047 A 
ATOM     13  C4  UNL     1      15.045   1.859  20.252  0.00  0.00    +0.027 A 
ATOM     14  C5  UNL     1      14.435   2.712  21.183  0.00  0.00    +0.035 A 
ATOM     15  C16 UNL     1      14.762   2.583  22.544  0.00  0.00    +0.027 A 
ATOM     16  C17 UNL     1      15.656   1.594  22.965  0.00  0.00    +0.047 A 
BRANCH  11  18
ATOM     17  C1  UNL     1      16.843  -1.640  22.571  0.00  0.00    +0.277 C 
ATOM     18  O1  UNL     1      17.137  -0.247  22.512  0.00  0.00    -0.495 OA
ENDBRANCH  11  18
ENDBRANCH   1  14
BRANCH   7  19
ATOM     19  N3  UNL     1      10.539   8.403  20.649  0.00  0.00    -0.298 NA
ATOM     20  C10 UNL     1       9.195   8.903  20.967  0.00  0.00    +0.085 C 
ATOM     21  C11 UNL     1       9.230  10.412  20.790  0.00  0.00    +0.017 C 
ATOM     22  C12 UNL     1      10.447  10.687  19.924  0.00  0.00    +0.017 C 
ATOM     23  C13 UNL     1      11.025   9.319  19.607  0.00  0.00    +0.085 C 
ENDBRANCH   7  19
TORSDOF 3
ENDMDL
MODEL 5
REMARK VINA RESULT:    -5.238      2.418      8.942
REMARK INTER + INTRA:          -6.662
REMARK INTER:                  -6.182
REMARK INTRA:                  -0.479
REMARK UNBOUND:                -0.505
REMARK  Name = /home/qwerty/github/datacon2025hack/step_04_hit_selection/docking/ligands/lig_732.pdb
REMARK  5 active torsions:
REMARK  status: ('A' for Active; 'I' for Inactive)
REMARK    1  A    between atoms: C1_1  and  O1_2
REMARK    2  A    between atoms: O1_2  and  C2_3
REMARK    3  A    between atoms: C5_6  and  N1_7
REMARK    4  A    between atoms: C9_13  and  N3_14
REMARK    5  A    between atoms: C14_19  and  C15_20
REMARK                            x       y       z     vdW  Elec       q    Type
REMARK                         _______ _______ _______ _____ _____    ______ ____
ROOT
ATOM      1  N1  UNL     1      18.329   9.966  36.687  0.00  0.00    -0.269 N 
ATOM      2  C6  UNL     1      18.109  11.387  36.709  0.00  0.00    +0.307 C 
ATOM      3  O2  UNL     1      19.095  12.172  36.723  0.00  0.00    -0.252 OA
ATOM      4  N2  UNL     1      16.775  11.928  36.749  0.00  0.00    -0.281 N 
ATOM      5  C7  UNL     1      16.515  13.357  36.841  0.00  0.00    +0.111 C 
ATOM      6  C8  UNL     1      15.003  13.505  36.728  0.00  0.00    +0.040 C 
ATOM      7  C9  UNL     1      14.446  12.128  37.118  0.00  0.00    +0.078 C 
ATOM      8  C14 UNL     1      15.544  11.149  36.653  0.00  0.00    +0.092 C 
ATOM      9  C15 UNL     1      15.371  10.670  35.200  0.00  0.00    +0.029 C 
ATOM     10  H6  UNL     1      17.592   9.340  37.080  0.00  0.00    +0.156 HD
ENDROOT
BRANCH   1  14
ATOM     11  C2  UNL     1      21.949   8.090  35.458  0.00  0.00    +0.120 A 
ATOM     12  C3  UNL     1      21.476   7.947  36.776  0.00  0.00    +0.047 A 
ATOM     13  C4  UNL     1      20.288   8.570  37.169  0.00  0.00    +0.027 A 
ATOM     14  C5  UNL     1      19.561   9.356  36.263  0.00  0.00    +0.035 A 
ATOM     15  C16 UNL     1      20.025   9.480  34.942  0.00  0.00    +0.027 A 
ATOM     16  C17 UNL     1      21.212   8.857  34.548  0.00  0.00    +0.047 A 
BRANCH  11  18
ATOM     17  C1  UNL     1      23.737   6.350  35.625  0.00  0.00    +0.277 C 
ATOM     18  O1  UNL     1      23.135   7.488  35.014  0.00  0.00    -0.495 OA
ENDBRANCH  11  18
ENDBRANCH   1  14
BRANCH   7  19
ATOM     19  N3  UNL     1      13.111  11.841  36.532  0.00  0.00    -0.298 NA
ATOM     20  C10 UNL     1      12.397  13.058  36.127  0.00  0.00    +0.085 C 
ATOM     21  C11 UNL     1      10.912  12.739  36.175  0.00  0.00    +0.017 C 
ATOM     22  C12 UNL     1      10.794  11.507  37.056  0.00  0.00    +0.017 C 
ATOM     23  C13 UNL     1      12.213  11.206  37.508  0.00  0.00    +0.085 C 
ENDBRANCH   7  19
TORSDOF 3
ENDMDL
MODEL 6
REMARK VINA RESULT:    -5.228      6.524      9.577
REMARK INTER + INTRA:          -6.649
REMARK INTER:                  -6.129
REMARK INTRA:                  -0.520
REMARK UNBOUND:                -0.505
REMARK  Name = /home/qwerty/github/datacon2025hack/step_04_hit_selection/docking/ligands/lig_732.pdb
REMARK  5 active torsions:
REMARK  status: ('A' for Active; 'I' for Inactive)
REMARK    1  A    between atoms: C1_1  and  O1_2
REMARK    2  A    between atoms: O1_2  and  C2_3
REMARK    3  A    between atoms: C5_6  and  N1_7
REMARK    4  A    between atoms: C9_13  and  N3_14
REMARK    5  A    between atoms: C14_19  and  C15_20
REMARK                            x       y       z     vdW  Elec       q    Type
REMARK                         _______ _______ _______ _____ _____    ______ ____
ROOT
ATOM      1  N1  UNL     1      12.510  13.534  31.266  0.00  0.00    -0.269 N 
ATOM      2  C6  UNL     1      12.468  14.284  32.492  0.00  0.00    +0.307 C 
ATOM      3  O2  UNL     1      11.696  15.276  32.591  0.00  0.00    -0.252 OA
ATOM      4  N2  UNL     1      13.320  13.940  33.600  0.00  0.00    -0.281 N 
ATOM      5  C7  UNL     1      13.353  14.717  34.830  0.00  0.00    +0.111 C 
ATOM      6  C8  UNL     1      14.272  13.951  35.773  0.00  0.00    +0.040 C 
ATOM      7  C9  UNL     1      15.132  13.073  34.852  0.00  0.00    +0.078 C 
ATOM      8  C14 UNL     1      14.196  12.775  33.661  0.00  0.00    +0.092 C 
ATOM      9  C15 UNL     1      13.334  11.513  33.854  0.00  0.00    +0.029 C 
ATOM     10  H6  UNL     1      13.383  13.014  31.029  0.00  0.00    +0.156 HD
ENDROOT
BRANCH   1  14
ATOM     11  C2  UNL     1       9.452  13.550  28.303  0.00  0.00    +0.120 A 
ATOM     12  C3  UNL     1      10.708  14.129  28.044  0.00  0.00    +0.047 A 
ATOM     13  C4  UNL     1      11.704  14.121  29.025  0.00  0.00    +0.027 A 
ATOM     14  C5  UNL     1      11.460  13.551  30.283  0.00  0.00    +0.035 A 
ATOM     15  C16 UNL     1      10.212  12.955  30.532  0.00  0.00    +0.027 A 
ATOM     16  C17 UNL     1       9.216  12.962  29.552  0.00  0.00    +0.047 A 
BRANCH  11  18
ATOM     17  C1  UNL     1       7.328  14.450  27.338  0.00  0.00    +0.277 C 
ATOM     18  O1  UNL     1       8.419  13.534  27.354  0.00  0.00    -0.495 OA
ENDBRANCH  11  18
ENDBRANCH   1  14
BRANCH   7  19
ATOM     19  N3  UNL     1      15.653  11.851  35.515  0.00  0.00    -0.298 NA
ATOM     20  C10 UNL     1      15.396  11.838  36.961  0.00  0.00    +0.085 C 
ATOM     21  C11 UNL     1      16.468  10.965  37.595  0.00  0.00    +0.017 C 
ATOM     22  C12 UNL     1      17.582  10.887  36.566  0.00  0.00    +0.017 C 
ATOM     23  C13 UNL     1      17.117  11.756  35.410  0.00  0.00    +0.085 C 
ENDBRANCH   7  19
TORSDOF 3
ENDMDL
MODEL 7
REMARK VINA RESULT:    -5.210      8.211      9.270
REMARK INTER + INTRA:          -6.628
REMARK INTER:                  -6.091
REMARK INTRA:                  -0.538
REMARK UNBOUND:                -0.505
REMARK  Name = /home/qwerty/github/datacon2025hack/step_04_hit_selection/docking/ligands/lig_732.pdb
REMARK  5 active torsions:
REMARK  status: ('A' for Active; 'I' for Inactive)
REMARK    1  A    between atoms: C1_1  and  O1_2
REMARK    2  A    between atoms: O1_2  and  C2_3
REMARK    3  A    between atoms: C5_6  and  N1_7
REMARK    4  A    between atoms: C9_13  and  N3_14
REMARK    5  A    between atoms: C14_19  and  C15_20
REMARK                            x       y       z     vdW  Elec       q    Type
REMARK                         _______ _______ _______ _____ _____    ______ ____
ROOT
ATOM      1  N1  UNL     1      17.198   1.211  34.279  0.00  0.00    -0.269 N 
ATOM      2  C6  UNL     1      18.447   1.867  34.560  0.00  0.00    +0.307 C 
ATOM      3  O2  UNL     1      18.649   2.361  35.702  0.00  0.00    -0.252 OA
ATOM      4  N2  UNL     1      19.459   1.998  33.544  0.00  0.00    -0.281 N 
ATOM      5  C7  UNL     1      20.705   2.714  33.772  0.00  0.00    +0.111 C 
ATOM      6  C8  UNL     1      21.532   2.506  32.510  0.00  0.00    +0.040 C 
ATOM      7  C9  UNL     1      20.507   2.140  31.427  0.00  0.00    +0.078 C 
ATOM      8  C14 UNL     1      19.399   1.405  32.212  0.00  0.00    +0.092 C 
ATOM      9  C15 UNL     1      19.630  -0.113  32.332  0.00  0.00    +0.029 C 
ATOM     10  H6  UNL     1      16.864   1.176  33.292  0.00  0.00    +0.156 HD
ENDROOT
BRANCH   1  14
ATOM     11  C2  UNL     1      14.532  -0.291  37.241  0.00  0.00    +0.120 A 
ATOM     12  C3  UNL     1      14.323   0.974  36.659  0.00  0.00    +0.047 A 
ATOM     13  C4  UNL     1      15.206   1.458  35.690  0.00  0.00    +0.027 A 
ATOM     14  C5  UNL     1      16.319   0.699  35.296  0.00  0.00    +0.035 A 
ATOM     15  C16 UNL     1      16.513  -0.572  35.864  0.00  0.00    +0.027 A 
ATOM     16  C17 UNL     1      15.630  -1.056  36.832  0.00  0.00    +0.047 A 
BRANCH  11  18
ATOM     17  C1  UNL     1      12.774  -1.900  37.995  0.00  0.00    +0.277 C 
ATOM     18  O1  UNL     1      13.677  -0.821  38.218  0.00  0.00    -0.495 OA
ENDBRANCH  11  18
ENDBRANCH   1  14
BRANCH   7  19
ATOM     19  N3  UNL     1      21.078   1.336  30.317  0.00  0.00    -0.298 NA
ATOM     20  C10 UNL     1      22.538   1.458  30.223  0.00  0.00    +0.085 C 
ATOM     21  C11 UNL     1      22.915   1.178  28.777  0.00  0.00    +0.017 C 
ATOM     22  C12 UNL     1      21.633   1.368  27.984  0.00  0.00    +0.017 C 
ATOM     23  C13 UNL     1      20.594   1.794  29.007  0.00  0.00    +0.085 C 
ENDBRANCH   7  19
TORSDOF 3
ENDMDL
MODEL 8
REMARK VINA RESULT:    -5.174     12.729     15.640
REMARK INTER + INTRA:          -6.586
REMARK INTER:                  -6.103
REMARK INTRA:                  -0.483
REMARK UNBOUND:                -0.505
REMARK  Name = /home/qwerty/github/datacon2025hack/step_04_hit_selection/docking/ligands/lig_732.pdb
REMARK  5 active torsions:
REMARK  status: ('A' for Active; 'I' for Inactive)
REMARK    1  A    between atoms: C1_1  and  O1_2
REMARK    2  A    between atoms: O1_2  and  C2_3
REMARK    3  A    between atoms: C5_6  and  N1_7
REMARK    4  A    between atoms: C9_13  and  N3_14
REMARK    5  A    between atoms: C14_19  and  C15_20
REMARK                            x       y       z     vdW  Elec       q    Type
REMARK                         _______ _______ _______ _____ _____    ______ ____
ROOT
ATOM      1  N1  UNL     1       8.744   9.681  24.754  0.00  0.00    -0.269 N 
ATOM      2  C6  UNL     1       8.130   9.676  26.054  0.00  0.00    +0.307 C 
ATOM      3  O2  UNL     1       7.145   8.922  26.278  0.00  0.00    -0.252 OA
ATOM      4  N2  UNL     1       8.605  10.547  27.098  0.00  0.00    -0.281 N 
ATOM      5  C7  UNL     1       7.967  10.619  28.405  0.00  0.00    +0.111 C 
ATOM      6  C8  UNL     1       8.843  11.545  29.237  0.00  0.00    +0.040 C 
ATOM      7  C9  UNL     1       9.627  12.371  28.206  0.00  0.00    +0.078 C 
ATOM      8  C14 UNL     1       9.782  11.406  27.012  0.00  0.00    +0.092 C 
ATOM      9  C15 UNL     1      11.045  10.528  27.087  0.00  0.00    +0.029 C 
ATOM     10  H6  UNL     1       9.246  10.540  24.441  0.00  0.00    +0.156 HD
ENDROOT
BRANCH   1  14
ATOM     11  C2  UNL     1       8.368   6.558  21.883  0.00  0.00    +0.120 A 
ATOM     12  C3  UNL     1       7.826   7.833  21.634  0.00  0.00    +0.047 A 
ATOM     13  C4  UNL     1       7.953   8.850  22.585  0.00  0.00    +0.027 A 
ATOM     14  C5  UNL     1       8.606   8.610  23.803  0.00  0.00    +0.035 A 
ATOM     15  C16 UNL     1       9.164   7.342  24.039  0.00  0.00    +0.027 A 
ATOM     16  C17 UNL     1       9.038   6.325  23.089  0.00  0.00    +0.047 A 
BRANCH  11  18
ATOM     17  C1  UNL     1       9.218   4.452  20.838  0.00  0.00    +0.277 C 
ATOM     18  O1  UNL     1       8.266   5.504  20.963  0.00  0.00    -0.495 OA
ENDBRANCH  11  18
ENDBRANCH   1  14
BRANCH   7  19
ATOM     19  N3  UNL     1      10.921  12.888  28.720  0.00  0.00    -0.298 NA
ATOM     20  C10 UNL     1      10.860  13.254  30.141  0.00  0.00    +0.085 C 
ATOM     21  C11 UNL     1      11.926  14.313  30.373  0.00  0.00    +0.017 C 
ATOM     22  C12 UNL     1      12.248  14.867  28.996  0.00  0.00    +0.017 C 
ATOM     23  C13 UNL     1      11.318  14.132  28.046  0.00  0.00    +0.085 C 
ENDBRANCH   7  19
TORSDOF 3
ENDMDL
MODEL 9
REMARK VINA RESULT:    -5.125      4.962      9.101
REMARK INTER + INTRA:          -6.529
REMARK INTER:                  -5.982
REMARK INTRA:                  -0.547
REMARK UNBOUND:                -0.505
REMARK  Name = /home/qwerty/github/datacon2025hack/step_04_hit_selection/docking/ligands/lig_732.pdb
REMARK  5 active torsions:
REMARK  status: ('A' for Active; 'I' for Inactive)
REMARK    1  A    between atoms: C1_1  and  O1_2
REMARK    2  A    between atoms: O1_2  and  C2_3
REMARK    3  A    between atoms: C5_6  and  N1_7
REMARK    4  A    between atoms: C9_13  and  N3_14
REMARK    5  A    between atoms: C14_19  and  C15_20
REMARK                            x       y       z     vdW  Elec       q    Type
REMARK                         _______ _______ _______ _____ _____    ______ ____
ROOT
ATOM      1  N1  UNL     1      21.459   4.646  32.662  0.00  0.00    -0.269 N 
ATOM      2  C6  UNL     1      22.378   5.662  33.100  0.00  0.00    +0.307 C 
ATOM      3  O2  UNL     1      23.556   5.676  32.650  0.00  0.00    -0.252 OA
ATOM      4  N2  UNL     1      21.982   6.646  34.074  0.00  0.00    -0.281 N 
ATOM      5  C7  UNL     1      22.905   7.647  34.591  0.00  0.00    +0.111 C 
ATOM      6  C8  UNL     1      22.066   8.554  35.481  0.00  0.00    +0.040 C 
ATOM      7  C9  UNL     1      20.836   7.711  35.850  0.00  0.00    +0.078 C 
ATOM      8  C14 UNL     1      20.637   6.805  34.616  0.00  0.00    +0.092 C 
ATOM      9  C15 UNL     1      19.734   7.425  33.533  0.00  0.00    +0.029 C 
ATOM     10  H6  UNL     1      20.674   4.376  33.294  0.00  0.00    +0.156 HD
ENDROOT
BRANCH   1  14
ATOM     11  C2  UNL     1      21.906   2.348  29.105  0.00  0.00    +0.120 A 
ATOM     12  C3  UNL     1      22.266   1.814  30.357  0.00  0.00    +0.047 A 
ATOM     13  C4  UNL     1      22.117   2.578  31.518  0.00  0.00    +0.027 A 
ATOM     14  C5  UNL     1      21.625   3.889  31.450  0.00  0.00    +0.035 A 
ATOM     15  C16 UNL     1      21.247   4.413  30.201  0.00  0.00    +0.027 A 
ATOM     16  C17 UNL     1      21.395   3.649  29.040  0.00  0.00    +0.047 A 
BRANCH  11  18
ATOM     17  C1  UNL     1      21.711   2.133  26.622  0.00  0.00    +0.277 C 
ATOM     18  O1  UNL     1      22.037   1.623  27.911  0.00  0.00    -0.495 OA
ENDBRANCH  11  18
ENDBRANCH   1  14
BRANCH   7  19
ATOM     19  N3  UNL     1      19.639   8.523  36.186  0.00  0.00    -0.298 NA
ATOM     20  C10 UNL     1      19.911   9.966  36.170  0.00  0.00    +0.085 C 
ATOM     21  C11 UNL     1      18.908  10.618  37.109  0.00  0.00    +0.017 C 
ATOM     22  C12 UNL     1      18.400   9.494  37.995  0.00  0.00    +0.017 C 
ATOM     23  C13 UNL     1      19.169   8.261  37.554  0.00  0.00    +0.085 C 
ENDBRANCH   7  19
TORSDOF 3
ENDMDL
