MODEL 1
REMARK VINA RESULT:    -6.065      0.000      0.000
REMARK INTER + INTRA:          -7.561
REMARK INTER:                  -7.483
REMARK INTRA:                  -0.077
REMARK UNBOUND:                -0.077
REMARK  Name = /home/qwerty/github/datacon2025hack/step_04_hit_selection/docking/ligands/lig_747.pdb
REMARK  5 active torsions:
REMARK  status: ('A' for Active; 'I' for Inactive)
REMARK    1  A    between atoms: C1_1  and  C2_2
REMARK    2  A    between atoms: C4_5  and  C5_6
REMARK    3  A    between atoms: C5_6  and  N2_7
REMARK    4  A    between atoms: C7_9  and  N3_10
REMARK    5  A    between atoms: C8_11  and  C9_13
REMARK                            x       y       z     vdW  Elec       q    Type
REMARK                         _______ _______ _______ _____ _____    ______ ____
ROOT
ATOM      1  N3  UNL     1      22.922   5.168  34.708  0.00  0.00    -0.306 N 
ATOM      2  C8  UNL     1      22.884   4.854  33.307  0.00  0.00    +0.246 C 
ATOM      3  O1  UNL     1      23.437   5.630  32.481  0.00  0.00    -0.270 OA
ATOM      4  H10 UNL     1      22.680   4.428  35.403  0.00  0.00    +0.149 HD
ENDROOT
BRANCH   2   5
ATOM      5  C9  UNL     1      22.215   3.626  32.817  0.00  0.00    +0.057 A 
ATOM      6  C10 UNL     1      21.295   2.932  33.653  0.00  0.00    +0.126 A 
ATOM      7  N4  UNL     1      20.676   1.792  33.220  0.00  0.00    -0.235 NA
ATOM      8  C11 UNL     1      20.959   1.330  31.978  0.00  0.00    +0.158 A 
ATOM      9  N5  UNL     1      20.464   0.236  31.392  0.00  0.00    -0.329 N 
ATOM     10  C12 UNL     1      21.078   0.224  30.182  0.00  0.00    +0.198 A 
ATOM     11  N6  UNL     1      21.934   1.265  29.993  0.00  0.00    -0.234 NA
ATOM     12  C13 UNL     1      21.833   1.946  31.148  0.00  0.00    +0.108 A 
ATOM     13  C14 UNL     1      22.494   3.106  31.529  0.00  0.00    +0.046 A 
ATOM     14  H12 UNL     1      19.775  -0.448  31.774  0.00  0.00    +0.168 HD
ENDBRANCH   2   5
BRANCH   1  17
ATOM     15  N2  UNL     1      22.141   7.792  36.349  0.00  0.00    -0.293 NA
ATOM     16  C6  UNL     1      23.108   6.724  36.652  0.00  0.00    +0.108 C 
ATOM     17  C7  UNL     1      23.408   6.466  35.182  0.00  0.00    +0.101 C 
ATOM     18  C15 UNL     1      22.413   7.586  34.917  0.00  0.00    +0.108 C 
BRANCH  15  19
ATOM     19  C5  UNL     1      20.760   7.402  36.690  0.00  0.00    +0.147 C 
BRANCH  19  24
ATOM     20  C1  UNL     1      18.416  12.226  36.522  0.00  0.00    +0.053 C 
ATOM     21  C2  UNL     1      18.837  10.814  36.753  0.00  0.00    +0.006 A 
ATOM     22  C3  UNL     1      18.401   9.994  37.788  0.00  0.00    +0.122 A 
ATOM     23  N1  UNL     1      18.999   8.774  37.833  0.00  0.00    -0.251 NA
ATOM     24  C4  UNL     1      19.908   8.619  36.845  0.00  0.00    +0.092 A 
ATOM     25  S1  UNL     1      20.029  10.001  35.889  0.00  0.00    -0.076 S 
ENDBRANCH  19  24
ENDBRANCH  15  19
ENDBRANCH   1  17
TORSDOF 4
ENDMDL
MODEL 2
REMARK VINA RESULT:    -5.933      4.545      6.089
REMARK INTER + INTRA:          -7.398
REMARK INTER:                  -6.995
REMARK INTRA:                  -0.403
REMARK UNBOUND:                -0.077
REMARK  Name = /home/qwerty/github/datacon2025hack/step_04_hit_selection/docking/ligands/lig_747.pdb
REMARK  5 active torsions:
REMARK  status: ('A' for Active; 'I' for Inactive)
REMARK    1  A    between atoms: C1_1  and  C2_2
REMARK    2  A    between atoms: C4_5  and  C5_6
REMARK    3  A    between atoms: C5_6  and  N2_7
REMARK    4  A    between atoms: C7_9  and  N3_10
REMARK    5  A    between atoms: C8_11  and  C9_13
REMARK                            x       y       z     vdW  Elec       q    Type
REMARK                         _______ _______ _______ _____ _____    ______ ____
ROOT
ATOM      1  N3  UNL     1      19.755   8.320  36.520  0.00  0.00    -0.306 N 
ATOM      2  C8  UNL     1      20.907   7.516  36.822  0.00  0.00    +0.246 C 
ATOM      3  O1  UNL     1      20.944   6.865  37.902  0.00  0.00    -0.270 OA
ATOM      4  H10 UNL     1      19.617   8.664  35.545  0.00  0.00    +0.149 HD
ENDROOT
BRANCH   2   5
ATOM      5  C9  UNL     1      22.048   7.430  35.881  0.00  0.00    +0.057 A 
ATOM      6  C10 UNL     1      22.990   6.368  35.996  0.00  0.00    +0.126 A 
ATOM      7  N4  UNL     1      24.054   6.279  35.142  0.00  0.00    -0.235 NA
ATOM      8  C11 UNL     1      24.200   7.226  34.184  0.00  0.00    +0.158 A 
ATOM      9  N5  UNL     1      25.175   7.310  33.274  0.00  0.00    -0.329 N 
ATOM     10  C12 UNL     1      24.863   8.434  32.582  0.00  0.00    +0.198 A 
ATOM     11  N6  UNL     1      23.734   9.053  33.025  0.00  0.00    -0.234 NA
ATOM     12  C13 UNL     1      23.340   8.260  34.038  0.00  0.00    +0.108 A 
ATOM     13  C14 UNL     1      22.240   8.407  34.874  0.00  0.00    +0.046 A 
ATOM     14  H12 UNL     1      25.985   6.667  33.132  0.00  0.00    +0.168 HD
ENDBRANCH   2   5
BRANCH   1  17
ATOM     15  N2  UNL     1      17.299  10.198  37.310  0.00  0.00    -0.293 NA
ATOM     16  C6  UNL     1      17.335   8.779  36.921  0.00  0.00    +0.108 C 
ATOM     17  C7  UNL     1      18.716   8.564  37.523  0.00  0.00    +0.101 C 
ATOM     18  C15 UNL     1      18.629  10.030  37.918  0.00  0.00    +0.108 C 
BRANCH  15  19
ATOM     19  C5  UNL     1      17.359  11.095  36.140  0.00  0.00    +0.147 C 
BRANCH  19  24
ATOM     20  C1  UNL     1      14.358  15.543  36.063  0.00  0.00    +0.053 C 
ATOM     21  C2  UNL     1      14.943  14.178  36.201  0.00  0.00    +0.006 A 
ATOM     22  C3  UNL     1      14.442  13.155  36.999  0.00  0.00    +0.122 A 
ATOM     23  N1  UNL     1      15.205  12.030  37.023  0.00  0.00    -0.251 NA
ATOM     24  C4  UNL     1      16.309  12.153  36.253  0.00  0.00    +0.092 A 
ATOM     25  S1  UNL     1      16.401  13.672  35.533  0.00  0.00    -0.076 S 
ENDBRANCH  19  24
ENDBRANCH  15  19
ENDBRANCH   1  17
TORSDOF 4
ENDMDL
MODEL 3
REMARK VINA RESULT:    -5.930      6.219      7.612
REMARK INTER + INTRA:          -7.394
REMARK INTER:                  -7.032
REMARK INTRA:                  -0.362
REMARK UNBOUND:                -0.077
REMARK  Name = /home/qwerty/github/datacon2025hack/step_04_hit_selection/docking/ligands/lig_747.pdb
REMARK  5 active torsions:
REMARK  status: ('A' for Active; 'I' for Inactive)
REMARK    1  A    between atoms: C1_1  and  C2_2
REMARK    2  A    between atoms: C4_5  and  C5_6
REMARK    3  A    between atoms: C5_6  and  N2_7
REMARK    4  A    between atoms: C7_9  and  N3_10
REMARK    5  A    between atoms: C8_11  and  C9_13
REMARK                            x       y       z     vdW  Elec       q    Type
REMARK                         _______ _______ _______ _____ _____    ______ ____
ROOT
ATOM      1  N3  UNL     1      20.605   1.178  30.385  0.00  0.00    -0.306 N 
ATOM      2  C8  UNL     1      21.445   0.646  29.348  0.00  0.00    +0.246 C 
ATOM      3  O1  UNL     1      22.100  -0.410  29.559  0.00  0.00    -0.270 OA
ATOM      4  H10 UNL     1      19.893   1.901  30.143  0.00  0.00    +0.149 HD
ENDROOT
BRANCH   2   5
ATOM      5  C9  UNL     1      21.546   1.314  28.029  0.00  0.00    +0.057 A 
ATOM      6  C10 UNL     1      22.573   2.270  27.789  0.00  0.00    +0.126 A 
ATOM      7  N4  UNL     1      22.675   2.903  26.581  0.00  0.00    -0.235 NA
ATOM      8  C11 UNL     1      21.774   2.606  25.614  0.00  0.00    +0.158 A 
ATOM      9  N5  UNL     1      21.709   3.126  24.385  0.00  0.00    -0.329 N 
ATOM     10  C12 UNL     1      20.630   2.510  23.840  0.00  0.00    +0.198 A 
ATOM     11  N6  UNL     1      20.022   1.628  24.680  0.00  0.00    -0.234 NA
ATOM     12  C13 UNL     1      20.773   1.713  25.794  0.00  0.00    +0.108 A 
ATOM     13  C14 UNL     1      20.615   1.038  26.997  0.00  0.00    +0.046 A 
ATOM     14  H12 UNL     1      22.334   3.839  23.950  0.00  0.00    +0.168 HD
ENDBRANCH   2   5
BRANCH   1  17
ATOM     15  N2  UNL     1      19.051   1.029  33.169  0.00  0.00    -0.293 NA
ATOM     16  C6  UNL     1      19.344  -0.019  32.177  0.00  0.00    +0.108 C 
ATOM     17  C7  UNL     1      20.647   0.639  31.747  0.00  0.00    +0.101 C 
ATOM     18  C15 UNL     1      20.311   1.689  32.794  0.00  0.00    +0.108 C 
BRANCH  15  19
ATOM     19  C5  UNL     1      17.886   1.847  32.783  0.00  0.00    +0.147 C 
BRANCH  19  24
ATOM     20  C1  UNL     1      14.655   0.667  36.902  0.00  0.00    +0.053 C 
ATOM     21  C2  UNL     1      15.379   1.243  35.732  0.00  0.00    +0.006 A 
ATOM     22  C3  UNL     1      14.892   2.225  34.876  0.00  0.00    +0.122 A 
ATOM     23  N1  UNL     1      15.708   2.520  33.829  0.00  0.00    -0.251 NA
ATOM     24  C4  UNL     1      16.838   1.778  33.846  0.00  0.00    +0.092 A 
ATOM     25  S1  UNL     1      16.859   0.704  35.143  0.00  0.00    -0.076 S 
ENDBRANCH  19  24
ENDBRANCH  15  19
ENDBRANCH   1  17
TORSDOF 4
ENDMDL
MODEL 4
REMARK VINA RESULT:    -5.915      4.237      6.609
REMARK INTER + INTRA:          -7.375
REMARK INTER:                  -7.037
REMARK INTRA:                  -0.339
REMARK UNBOUND:                -0.077
REMARK  Name = /home/qwerty/github/datacon2025hack/step_04_hit_selection/docking/ligands/lig_747.pdb
REMARK  5 active torsions:
REMARK  status: ('A' for Active; 'I' for Inactive)
REMARK    1  A    between atoms: C1_1  and  C2_2
REMARK    2  A    between atoms: C4_5  and  C5_6
REMARK    3  A    between atoms: C5_6  and  N2_7
REMARK    4  A    between atoms: C7_9  and  N3_10
REMARK    5  A    between atoms: C8_11  and  C9_13
REMARK                            x       y       z     vdW  Elec       q    Type
REMARK                         _______ _______ _______ _____ _____    ______ ____
ROOT
ATOM      1  N3  UNL     1      20.279   0.870  30.162  0.00  0.00    -0.306 N 
ATOM      2  C8  UNL     1      21.335   0.538  29.246  0.00  0.00    +0.246 C 
ATOM      3  O1  UNL     1      22.140  -0.388  29.535  0.00  0.00    -0.270 OA
ATOM      4  H10 UNL     1      19.484   1.458  29.831  0.00  0.00    +0.149 HD
ENDROOT
BRANCH   2   5
ATOM      5  C9  UNL     1      21.486   1.259  27.960  0.00  0.00    +0.057 A 
ATOM      6  C10 UNL     1      22.531   2.212  27.795  0.00  0.00    +0.126 A 
ATOM      7  N4  UNL     1      22.679   2.894  26.619  0.00  0.00    -0.235 NA
ATOM      8  C11 UNL     1      21.807   2.649  25.612  0.00  0.00    +0.158 A 
ATOM      9  N5  UNL     1      21.787   3.221  24.404  0.00  0.00    -0.329 N 
ATOM     10  C12 UNL     1      20.721   2.641  23.799  0.00  0.00    +0.198 A 
ATOM     11  N6  UNL     1      20.076   1.732  24.581  0.00  0.00    -0.234 NA
ATOM     12  C13 UNL     1      20.791   1.761  25.720  0.00  0.00    +0.108 A 
ATOM     13  C14 UNL     1      20.587   1.039  26.888  0.00  0.00    +0.046 A 
ATOM     14  H12 UNL     1      22.434   3.945  24.020  0.00  0.00    +0.168 HD
ENDBRANCH   2   5
BRANCH   1  17
ATOM     15  N2  UNL     1      19.287   1.353  33.157  0.00  0.00    -0.293 NA
ATOM     16  C6  UNL     1      18.859   0.364  32.152  0.00  0.00    +0.108 C 
ATOM     17  C7  UNL     1      20.238   0.300  31.511  0.00  0.00    +0.101 C 
ATOM     18  C15 UNL     1      20.638   1.309  32.576  0.00  0.00    +0.108 C 
BRANCH  15  19
ATOM     19  C5  UNL     1      18.657   2.669  32.940  0.00  0.00    +0.147 C 
BRANCH  19  24
ATOM     20  C1  UNL     1      18.585   5.923  37.207  0.00  0.00    +0.053 C 
ATOM     21  C2  UNL     1      18.410   4.852  36.184  0.00  0.00    +0.006 A 
ATOM     22  C3  UNL     1      17.899   3.580  36.417  0.00  0.00    +0.122 A 
ATOM     23  N1  UNL     1      17.923   2.754  35.337  0.00  0.00    -0.251 NA
ATOM     24  C4  UNL     1      18.451   3.359  34.250  0.00  0.00    +0.092 A 
ATOM     25  S1  UNL     1      18.938   4.935  34.589  0.00  0.00    -0.076 S 
ENDBRANCH  19  24
ENDBRANCH  15  19
ENDBRANCH   1  17
TORSDOF 4
ENDMDL
MODEL 5
REMARK VINA RESULT:    -5.850      4.233      9.409
REMARK INTER + INTRA:          -7.296
REMARK INTER:                  -6.966
REMARK INTRA:                  -0.330
REMARK UNBOUND:                -0.077
REMARK  Name = /home/qwerty/github/datacon2025hack/step_04_hit_selection/docking/ligands/lig_747.pdb
REMARK  5 active torsions:
REMARK  status: ('A' for Active; 'I' for Inactive)
REMARK    1  A    between atoms: C1_1  and  C2_2
REMARK    2  A    between atoms: C4_5  and  C5_6
REMARK    3  A    between atoms: C5_6  and  N2_7
REMARK    4  A    between atoms: C7_9  and  N3_10
REMARK    5  A    between atoms: C8_11  and  C9_13
REMARK                            x       y       z     vdW  Elec       q    Type
REMARK                         _______ _______ _______ _____ _____    ______ ____
ROOT
ATOM      1  N3  UNL     1      22.583   2.525  31.243  0.00  0.00    -0.306 N 
ATOM      2  C8  UNL     1      21.948   3.023  32.431  0.00  0.00    +0.246 C 
ATOM      3  O1  UNL     1      20.977   2.390  32.929  0.00  0.00    -0.270 OA
ATOM      4  H10 UNL     1      23.515   2.905  30.968  0.00  0.00    +0.149 HD
ENDROOT
BRANCH   2   5
ATOM      5  C9  UNL     1      22.421   4.264  33.089  0.00  0.00    +0.057 A 
ATOM      6  C10 UNL     1      23.629   4.884  32.660  0.00  0.00    +0.126 A 
ATOM      7  N4  UNL     1      24.085   6.023  33.263  0.00  0.00    -0.235 NA
ATOM      8  C11 UNL     1      23.367   6.551  34.283  0.00  0.00    +0.158 A 
ATOM      9  N5  UNL     1      23.658   7.644  34.994  0.00  0.00    -0.329 N 
ATOM     10  C12 UNL     1      22.641   7.718  35.888  0.00  0.00    +0.198 A 
ATOM     11  N6  UNL     1      21.729   6.715  35.762  0.00  0.00    -0.234 NA
ATOM     12  C13 UNL     1      22.219   5.996  34.736  0.00  0.00    +0.108 A 
ATOM     13  C14 UNL     1      21.704   4.839  34.167  0.00  0.00    +0.046 A 
ATOM     14  H12 UNL     1      24.475   8.285  34.890  0.00  0.00    +0.168 HD
ENDBRANCH   2   5
BRANCH   1  17
ATOM     15  N2  UNL     1      21.942   1.445  28.309  0.00  0.00    -0.293 NA
ATOM     16  C6  UNL     1      22.884   0.953  29.328  0.00  0.00    +0.108 C 
ATOM     17  C7  UNL     1      22.005   1.416  30.481  0.00  0.00    +0.101 C 
ATOM     18  C15 UNL     1      21.056   1.895  29.394  0.00  0.00    +0.108 C 
BRANCH  15  19
ATOM     19  C5  UNL     1      22.489   2.592  27.559  0.00  0.00    +0.147 C 
BRANCH  19  24
ATOM     20  C1  UNL     1      20.466   4.007  22.794  0.00  0.00    +0.053 C 
ATOM     21  C2  UNL     1      20.919   3.339  24.048  0.00  0.00    +0.006 A 
ATOM     22  C3  UNL     1      20.448   2.127  24.541  0.00  0.00    +0.122 A 
ATOM     23  N1  UNL     1      20.956   1.772  25.751  0.00  0.00    -0.251 NA
ATOM     24  C4  UNL     1      21.825   2.692  26.223  0.00  0.00    +0.092 A 
ATOM     25  S1  UNL     1      21.978   4.001  25.174  0.00  0.00    -0.076 S 
ENDBRANCH  19  24
ENDBRANCH  15  19
ENDBRANCH   1  17
TORSDOF 4
ENDMDL
MODEL 6
REMARK VINA RESULT:    -5.848      6.333      9.544
REMARK INTER + INTRA:          -7.293
REMARK INTER:                  -6.914
REMARK INTRA:                  -0.379
REMARK UNBOUND:                -0.077
REMARK  Name = /home/qwerty/github/datacon2025hack/step_04_hit_selection/docking/ligands/lig_747.pdb
REMARK  5 active torsions:
REMARK  status: ('A' for Active; 'I' for Inactive)
REMARK    1  A    between atoms: C1_1  and  C2_2
REMARK    2  A    between atoms: C4_5  and  C5_6
REMARK    3  A    between atoms: C5_6  and  N2_7
REMARK    4  A    between atoms: C7_9  and  N3_10
REMARK    5  A    between atoms: C8_11  and  C9_13
REMARK                            x       y       z     vdW  Elec       q    Type
REMARK                         _______ _______ _______ _____ _____    ______ ____
ROOT
ATOM      1  N3  UNL     1      21.715   2.542  27.498  0.00  0.00    -0.306 N 
ATOM      2  C8  UNL     1      22.439   1.888  28.553  0.00  0.00    +0.246 C 
ATOM      3  O1  UNL     1      23.622   1.504  28.348  0.00  0.00    -0.270 OA
ATOM      4  H10 UNL     1      20.841   3.064  27.729  0.00  0.00    +0.149 HD
ENDROOT
BRANCH   2   5
ATOM      5  C9  UNL     1      21.821   1.667  29.881  0.00  0.00    +0.057 A 
ATOM      6  C10 UNL     1      20.959   0.554  30.091  0.00  0.00    +0.126 A 
ATOM      7  N4  UNL     1      20.373   0.340  31.308  0.00  0.00    -0.235 NA
ATOM      8  C11 UNL     1      20.624   1.213  32.313  0.00  0.00    +0.158 A 
ATOM      9  N5  UNL     1      20.138   1.174  33.557  0.00  0.00    -0.329 N 
ATOM     10  C12 UNL     1      20.681   2.271  34.141  0.00  0.00    +0.198 A 
ATOM     11  N6  UNL     1      21.485   2.990  33.312  0.00  0.00    -0.234 NA
ATOM     12  C13 UNL     1      21.428   2.292  32.164  0.00  0.00    +0.108 A 
ATOM     13  C14 UNL     1      22.051   2.564  30.953  0.00  0.00    +0.046 A 
ATOM     14  H12 UNL     1      19.490   0.471  33.977  0.00  0.00    +0.168 HD
ENDBRANCH   2   5
BRANCH   1  17
ATOM     15  N2  UNL     1      21.699   4.192  24.766  0.00  0.00    -0.293 NA
ATOM     16  C6  UNL     1      22.778   3.962  25.741  0.00  0.00    +0.108 C 
ATOM     17  C7  UNL     1      22.243   2.591  26.133  0.00  0.00    +0.101 C 
ATOM     18  C15 UNL     1      21.157   2.866  25.104  0.00  0.00    +0.108 C 
BRANCH  15  19
ATOM     19  C5  UNL     1      20.784   5.266  25.196  0.00  0.00    +0.147 C 
BRANCH  19  24
ATOM     20  C1  UNL     1      21.237   8.457  20.905  0.00  0.00    +0.053 C 
ATOM     21  C2  UNL     1      20.859   7.731  22.152  0.00  0.00    +0.006 A 
ATOM     22  C3  UNL     1      19.968   8.184  23.119  0.00  0.00    +0.122 A 
ATOM     23  N1  UNL     1      19.858   7.378  24.209  0.00  0.00    -0.251 NA
ATOM     24  C4  UNL     1      20.656   6.291  24.115  0.00  0.00    +0.092 A 
ATOM     25  S1  UNL     1      21.553   6.297  22.691  0.00  0.00    -0.076 S 
ENDBRANCH  19  24
ENDBRANCH  15  19
ENDBRANCH   1  17
TORSDOF 4
ENDMDL
MODEL 7
REMARK VINA RESULT:    -5.738      9.066     13.023
REMARK INTER + INTRA:          -7.157
REMARK INTER:                  -6.765
REMARK INTRA:                  -0.392
REMARK UNBOUND:                -0.077
REMARK  Name = /home/qwerty/github/datacon2025hack/step_04_hit_selection/docking/ligands/lig_747.pdb
REMARK  5 active torsions:
REMARK  status: ('A' for Active; 'I' for Inactive)
REMARK    1  A    between atoms: C1_1  and  C2_2
REMARK    2  A    between atoms: C4_5  and  C5_6
REMARK    3  A    between atoms: C5_6  and  N2_7
REMARK    4  A    between atoms: C7_9  and  N3_10
REMARK    5  A    between atoms: C8_11  and  C9_13
REMARK                            x       y       z     vdW  Elec       q    Type
REMARK                         _______ _______ _______ _____ _____    ______ ____
ROOT
ATOM      1  N3  UNL     1      13.543  14.036  33.767  0.00  0.00    -0.306 N 
ATOM      2  C8  UNL     1      14.050  14.322  35.080  0.00  0.00    +0.246 C 
ATOM      3  O1  UNL     1      13.489  15.205  35.784  0.00  0.00    -0.270 OA
ATOM      4  H10 UNL     1      13.846  13.162  33.284  0.00  0.00    +0.149 HD
ENDROOT
BRANCH   2   5
ATOM      5  C9  UNL     1      15.216  13.588  35.627  0.00  0.00    +0.057 A 
ATOM      6  C10 UNL     1      15.072  12.790  36.798  0.00  0.00    +0.126 A 
ATOM      7  N4  UNL     1      16.139  12.114  37.321  0.00  0.00    -0.235 NA
ATOM      8  C11 UNL     1      17.341  12.222  36.707  0.00  0.00    +0.158 A 
ATOM      9  N5  UNL     1      18.490  11.648  37.076  0.00  0.00    -0.329 N 
ATOM     10  C12 UNL     1      19.374  12.088  36.146  0.00  0.00    +0.198 A 
ATOM     11  N6  UNL     1      18.822  12.912  35.214  0.00  0.00    -0.234 NA
ATOM     12  C13 UNL     1      17.534  12.974  35.599  0.00  0.00    +0.108 A 
ATOM     13  C14 UNL     1      16.491  13.685  35.019  0.00  0.00    +0.046 A 
ATOM     14  H12 UNL     1      18.667  11.016  37.888  0.00  0.00    +0.168 HD
ENDBRANCH   2   5
BRANCH   1  17
ATOM     15  N2  UNL     1      11.203  14.117  31.599  0.00  0.00    -0.293 NA
ATOM     16  C6  UNL     1      11.154  14.220  33.067  0.00  0.00    +0.108 C 
ATOM     17  C7  UNL     1      12.522  14.883  33.147  0.00  0.00    +0.101 C 
ATOM     18  C15 UNL     1      12.522  14.770  31.630  0.00  0.00    +0.108 C 
BRANCH  15  19
ATOM     19  C5  UNL     1      11.312  12.717  31.146  0.00  0.00    +0.147 C 
BRANCH  19  24
ATOM     20  C1  UNL     1       8.255  10.846  27.152  0.00  0.00    +0.053 C 
ATOM     21  C2  UNL     1       8.880  11.568  28.298  0.00  0.00    +0.006 A 
ATOM     22  C3  UNL     1       8.535  12.838  28.745  0.00  0.00    +0.122 A 
ATOM     23  N1  UNL     1       9.314  13.314  29.753  0.00  0.00    -0.251 NA
ATOM     24  C4  UNL     1      10.275  12.434  30.108  0.00  0.00    +0.092 A 
ATOM     25  S1  UNL     1      10.220  11.038  29.166  0.00  0.00    -0.076 S 
ENDBRANCH  19  24
ENDBRANCH  15  19
ENDBRANCH   1  17
TORSDOF 4
ENDMDL
MODEL 8
REMARK VINA RESULT:    -5.730      5.354     10.697
REMARK INTER + INTRA:          -7.147
REMARK INTER:                  -6.790
REMARK INTRA:                  -0.357
REMARK UNBOUND:                -0.077
REMARK  Name = /home/qwerty/github/datacon2025hack/step_04_hit_selection/docking/ligands/lig_747.pdb
REMARK  5 active torsions:
REMARK  status: ('A' for Active; 'I' for Inactive)
REMARK    1  A    between atoms: C1_1  and  C2_2
REMARK    2  A    between atoms: C4_5  and  C5_6
REMARK    3  A    between atoms: C5_6  and  N2_7
REMARK    4  A    between atoms: C7_9  and  N3_10
REMARK    5  A    between atoms: C8_11  and  C9_13
REMARK                            x       y       z     vdW  Elec       q    Type
REMARK                         _______ _______ _______ _____ _____    ______ ____
ROOT
ATOM      1  N3  UNL     1      17.904  13.021  35.429  0.00  0.00    -0.306 N 
ATOM      2  C8  UNL     1      17.029  13.663  34.489  0.00  0.00    +0.246 C 
ATOM      3  O1  UNL     1      17.481  14.030  33.370  0.00  0.00    -0.270 OA
ATOM      4  H10 UNL     1      17.493  12.512  36.242  0.00  0.00    +0.149 HD
ENDROOT
BRANCH   2   5
ATOM      5  C9  UNL     1      15.600  13.891  34.806  0.00  0.00    +0.057 A 
ATOM      6  C10 UNL     1      15.234  14.560  36.009  0.00  0.00    +0.126 A 
ATOM      7  N4  UNL     1      13.919  14.770  36.323  0.00  0.00    -0.235 NA
ATOM      8  C11 UNL     1      12.968  14.325  35.468  0.00  0.00    +0.158 A 
ATOM      9  N5  UNL     1      11.643  14.427  35.610  0.00  0.00    -0.329 N 
ATOM     10  C12 UNL     1      11.160  13.814  34.501  0.00  0.00    +0.198 A 
ATOM     11  N6  UNL     1      12.130  13.333  33.676  0.00  0.00    -0.234 NA
ATOM     12  C13 UNL     1      13.262  13.675  34.318  0.00  0.00    +0.108 A 
ATOM     13  C14 UNL     1      14.576  13.430  33.943  0.00  0.00    +0.046 A 
ATOM     14  H12 UNL     1      11.108  14.870  36.389  0.00  0.00    +0.168 HD
ENDBRANCH   2   5
BRANCH   1  17
ATOM     15  N2  UNL     1      20.509  11.197  35.709  0.00  0.00    -0.293 NA
ATOM     16  C6  UNL     1      19.806  11.690  34.512  0.00  0.00    +0.108 C 
ATOM     17  C7  UNL     1      19.351  12.967  35.205  0.00  0.00    +0.101 C 
ATOM     18  C15 UNL     1      20.102  12.425  36.411  0.00  0.00    +0.108 C 
BRANCH  15  19
ATOM     19  C5  UNL     1      19.851  10.011  36.287  0.00  0.00    +0.147 C 
BRANCH  19  24
ATOM     20  C1  UNL     1      23.634   6.232  35.827  0.00  0.00    +0.053 C 
ATOM     21  C2  UNL     1      22.579   7.199  36.247  0.00  0.00    +0.006 A 
ATOM     22  C3  UNL     1      21.825   7.126  37.413  0.00  0.00    +0.122 A 
ATOM     23  N1  UNL     1      20.863   8.080  37.527  0.00  0.00    -0.251 NA
ATOM     24  C4  UNL     1      20.845   8.908  36.460  0.00  0.00    +0.092 A 
ATOM     25  S1  UNL     1      22.002   8.475  35.315  0.00  0.00    -0.076 S 
ENDBRANCH  19  24
ENDBRANCH  15  19
ENDBRANCH   1  17
TORSDOF 4
ENDMDL
MODEL 9
REMARK VINA RESULT:    -5.537     13.956     17.166
REMARK INTER + INTRA:          -6.909
REMARK INTER:                  -6.531
REMARK INTRA:                  -0.378
REMARK UNBOUND:                -0.077
REMARK  Name = /home/qwerty/github/datacon2025hack/step_04_hit_selection/docking/ligands/lig_747.pdb
REMARK  5 active torsions:
REMARK  status: ('A' for Active; 'I' for Inactive)
REMARK    1  A    between atoms: C1_1  and  C2_2
REMARK    2  A    between atoms: C4_5  and  C5_6
REMARK    3  A    between atoms: C5_6  and  N2_7
REMARK    4  A    between atoms: C7_9  and  N3_10
REMARK    5  A    between atoms: C8_11  and  C9_13
REMARK                            x       y       z     vdW  Elec       q    Type
REMARK                         _______ _______ _______ _____ _____    ______ ____
ROOT
ATOM      1  N3  UNL     1       9.071  11.008  27.082  0.00  0.00    -0.306 N 
ATOM      2  C8  UNL     1       8.914  11.798  28.272  0.00  0.00    +0.246 C 
ATOM      3  O1  UNL     1       7.895  11.634  28.997  0.00  0.00    -0.270 OA
ATOM      4  H10 UNL     1      10.004  10.970  26.617  0.00  0.00    +0.149 HD
ENDROOT
BRANCH   2   5
ATOM      5  C9  UNL     1       9.935  12.795  28.669  0.00  0.00    +0.057 A 
ATOM      6  C10 UNL     1      10.426  13.732  27.716  0.00  0.00    +0.126 A 
ATOM      7  N4  UNL     1      11.376  14.653  28.062  0.00  0.00    -0.235 NA
ATOM      8  C11 UNL     1      11.848  14.654  29.332  0.00  0.00    +0.158 A 
ATOM      9  N5  UNL     1      12.777  15.464  29.847  0.00  0.00    -0.329 N 
ATOM     10  C12 UNL     1      12.889  15.037  31.130  0.00  0.00    +0.198 A 
ATOM     11  N6  UNL     1      12.069  13.995  31.433  0.00  0.00    -0.234 NA
ATOM     12  C13 UNL     1      11.423  13.779  30.273  0.00  0.00    +0.108 A 
ATOM     13  C14 UNL     1      10.461  12.820  29.984  0.00  0.00    +0.046 A 
ATOM     14  H12 UNL     1      13.295  16.237  29.375  0.00  0.00    +0.168 HD
ENDBRANCH   2   5
BRANCH   1  17
ATOM     15  N2  UNL     1       8.320   8.688  25.024  0.00  0.00    -0.293 NA
ATOM     16  C6  UNL     1       8.351   8.691  26.496  0.00  0.00    +0.108 C 
ATOM     17  C7  UNL     1       7.982  10.165  26.582  0.00  0.00    +0.101 C 
ATOM     18  C15 UNL     1       7.947  10.111  25.063  0.00  0.00    +0.108 C 
BRANCH  15  19
ATOM     19  C5  UNL     1       9.663   8.505  24.442  0.00  0.00    +0.147 C 
BRANCH  19  24
ATOM     20  C1  UNL     1      10.473   5.302  20.214  0.00  0.00    +0.053 C 
ATOM     21  C2  UNL     1       9.991   6.034  21.420  0.00  0.00    +0.006 A 
ATOM     22  C3  UNL     1       8.685   6.042  21.899  0.00  0.00    +0.122 A 
ATOM     23  N1  UNL     1       8.479   6.858  22.967  0.00  0.00    -0.251 NA
ATOM     24  C4  UNL     1       9.609   7.499  23.338  0.00  0.00    +0.092 A 
ATOM     25  S1  UNL     1      10.906   7.104  22.339  0.00  0.00    -0.076 S 
ENDBRANCH  19  24
ENDBRANCH  15  19
ENDBRANCH   1  17
TORSDOF 4
ENDMDL
