MODEL 1
REMARK VINA RESULT:    -6.407      0.000      0.000
REMARK INTER + INTRA:         -10.518
REMARK INTER:                  -8.842
REMARK INTRA:                  -1.675
REMARK UNBOUND:                -1.675
REMARK  Name = /home/qwerty/github/datacon2025hack/step_04_hit_selection/docking/ligands/lig_63.pdb
REMARK  13 active torsions:
REMARK  status: ('A' for Active; 'I' for Inactive)
REMARK    1  A    between atoms: C2_2  and  C3_3
REMARK    2  A    between atoms: C2_2  and  C4_4
REMARK    3  A    between atoms: C4_4  and  N1_5
REMARK    4  A    between atoms: N1_5  and  C5_6
REMARK    5  A    between atoms: C5_6  and  C6_7
REMARK    6  A    between atoms: C9_10  and  C10_11
REMARK    7  A    between atoms: C10_11  and  O1_12
REMARK    8  A    between atoms: C11_14  and  C12_16
REMARK    9  A    between atoms: C13_17  and  C14_18
REMARK   10  A    between atoms: N2_19  and  C15_20
REMARK   11  A    between atoms: N3_27  and  C22_28
REMARK   12  A    between atoms: C24_31  and  C25_32
REMARK   13  A    between atoms: C24_31  and  C26_33
REMARK                            x       y       z     vdW  Elec       q    Type
REMARK                         _______ _______ _______ _____ _____    ______ ____
ROOT
ATOM      1  C12 UNL     1      19.406  10.950  34.913  0.00  0.00    +0.065 A 
ATOM      2  C13 UNL     1      19.069  11.650  33.754  0.00  0.00    +0.029 A 
ATOM      3  C14 UNL     1      17.952  12.646  33.634  0.00  0.00    +0.064 C 
ATOM      4  N2  UNL     1      19.937  11.348  32.750  0.00  0.00    -0.346 N 
ATOM      5  C15 UNL     1      19.901  11.832  31.371  0.00  0.00    +0.149 C 
ATOM      6  C16 UNL     1      20.790  10.429  33.256  0.00  0.00    +0.050 A 
ATOM      7  C17 UNL     1      21.835   9.763  32.593  0.00  0.00    +0.033 A 
ATOM      8  C18 UNL     1      22.569   8.829  33.347  0.00  0.00    -0.010 A 
ATOM      9  C19 UNL     1      22.272   8.586  34.688  0.00  0.00    +0.041 A 
ATOM     10  C20 UNL     1      21.213   9.239  35.339  0.00  0.00    +0.034 A 
ATOM     11  C21 UNL     1      20.493  10.168  34.580  0.00  0.00    +0.014 A 
ATOM     12  N3  UNL     1      23.133   7.606  35.249  0.00  0.00    -0.273 N 
ATOM     13  C22 UNL     1      22.918   6.880  36.496  0.00  0.00    +0.138 C 
ATOM     14  C23 UNL     1      23.958   7.181  34.165  0.00  0.00    +0.230 C 
ATOM     15  O4  UNL     1      24.805   6.257  34.273  0.00  0.00    -0.274 OA
ATOM     16  C24 UNL     1      23.693   7.938  32.887  0.00  0.00    +0.068 C 
ATOM     17  C25 UNL     1      23.228   6.987  31.775  0.00  0.00    +0.025 C 
ATOM     18  C26 UNL     1      24.922   8.752  32.462  0.00  0.00    +0.025 C 
ENDROOT
BRANCH   1  20
ATOM     19  N1  UNL     1      17.445  10.358  36.413  0.00  0.00    -0.286 N 
ATOM     20  C11 UNL     1      18.726  10.995  36.218  0.00  0.00    +0.250 C 
ATOM     21  O3  UNL     1      19.281  11.612  37.170  0.00  0.00    -0.270 OA
BRANCH  19  22
ATOM     22  C4  UNL     1      16.561  10.800  37.504  0.00  0.00    +0.138 C 
BRANCH  22  24
ATOM     23  C1  UNL     1      14.274  11.417  36.784  0.00  0.00    +0.009 C 
ATOM     24  C2  UNL     1      15.537  11.801  37.011  0.00  0.00    -0.063 C 
ATOM     25  C3  UNL     1      15.923  13.237  36.777  0.00  0.00    +0.040 C 
ENDBRANCH  22  24
ENDBRANCH  19  22
BRANCH  19  26
ATOM     26  C5  UNL     1      17.106   9.139  35.664  0.00  0.00    +0.182 C 
BRANCH  26  27
ATOM     27  C6  UNL     1      17.225   7.934  36.537  0.00  0.00    +0.123 A 
ATOM     28  C7  UNL     1      18.403   7.307  36.896  0.00  0.00    +0.046 A 
ATOM     29  C8  UNL     1      18.037   6.281  37.744  0.00  0.00    +0.047 A 
ATOM     30  C9  UNL     1      16.660   6.347  37.836  0.00  0.00    +0.131 A 
ATOM     31  O2  UNL     1      16.204   7.338  37.105  0.00  0.00    -0.461 OA
BRANCH  30  32
ATOM     32  C10 UNL     1      15.790   5.443  38.645  0.00  0.00    +0.230 C 
BRANCH  32  33
ATOM     33  O1  UNL     1      14.473   5.915  38.659  0.00  0.00    -0.387 OA
ATOM     34  H14 UNL     1      14.486   6.809  38.222  0.00  0.00    +0.210 HD
ENDBRANCH  32  33
ENDBRANCH  30  32
ENDBRANCH  26  27
ENDBRANCH  19  26
ENDBRANCH   1  20
TORSDOF 7
ENDMDL
MODEL 2
REMARK VINA RESULT:    -6.298     14.890     16.826
REMARK INTER + INTRA:         -10.366
REMARK INTER:                  -8.690
REMARK INTRA:                  -1.676
REMARK UNBOUND:                -1.675
REMARK  Name = /home/qwerty/github/datacon2025hack/step_04_hit_selection/docking/ligands/lig_63.pdb
REMARK  13 active torsions:
REMARK  status: ('A' for Active; 'I' for Inactive)
REMARK    1  A    between atoms: C2_2  and  C3_3
REMARK    2  A    between atoms: C2_2  and  C4_4
REMARK    3  A    between atoms: C4_4  and  N1_5
REMARK    4  A    between atoms: N1_5  and  C5_6
REMARK    5  A    between atoms: C5_6  and  C6_7
REMARK    6  A    between atoms: C9_10  and  C10_11
REMARK    7  A    between atoms: C10_11  and  O1_12
REMARK    8  A    between atoms: C11_14  and  C12_16
REMARK    9  A    between atoms: C13_17  and  C14_18
REMARK   10  A    between atoms: N2_19  and  C15_20
REMARK   11  A    between atoms: N3_27  and  C22_28
REMARK   12  A    between atoms: C24_31  and  C25_32
REMARK   13  A    between atoms: C24_31  and  C26_33
REMARK                            x       y       z     vdW  Elec       q    Type
REMARK                         _______ _______ _______ _____ _____    ______ ____
ROOT
ATOM      1  C12 UNL     1      11.992   2.184  22.773  0.00  0.00    +0.065 A 
ATOM      2  C13 UNL     1      11.213   2.437  23.903  0.00  0.00    +0.029 A 
ATOM      3  C14 UNL     1      10.100   3.439  23.984  0.00  0.00    +0.064 C 
ATOM      4  N2  UNL     1      11.567   1.600  24.917  0.00  0.00    -0.346 N 
ATOM      5  C15 UNL     1      11.026   1.576  26.275  0.00  0.00    +0.149 C 
ATOM      6  C16 UNL     1      12.591   0.853  24.447  0.00  0.00    +0.050 A 
ATOM      7  C17 UNL     1      13.338  -0.118  25.136  0.00  0.00    +0.033 A 
ATOM      8  C18 UNL     1      14.375  -0.744  24.419  0.00  0.00    -0.010 A 
ATOM      9  C19 UNL     1      14.639  -0.414  23.089  0.00  0.00    +0.041 A 
ATOM     10  C20 UNL     1      13.903   0.573  22.414  0.00  0.00    +0.034 A 
ATOM     11  C21 UNL     1      12.872   1.184  23.136  0.00  0.00    +0.014 A 
ATOM     12  N3  UNL     1      15.727  -1.162  22.568  0.00  0.00    -0.273 N 
ATOM     13  C22 UNL     1      16.476  -0.863  21.352  0.00  0.00    +0.138 C 
ATOM     14  C23 UNL     1      16.194  -1.943  23.666  0.00  0.00    +0.230 C 
ATOM     15  O4  UNL     1      17.208  -2.686  23.595  0.00  0.00    -0.274 OA
ATOM     16  C24 UNL     1      15.363  -1.768  24.913  0.00  0.00    +0.068 C 
ATOM     17  C25 UNL     1      16.213  -1.210  26.063  0.00  0.00    +0.025 C 
ATOM     18  C26 UNL     1      14.669  -3.080  25.303  0.00  0.00    +0.025 C 
ENDROOT
BRANCH   1  20
ATOM     19  N1  UNL     1      12.532   4.158  21.271  0.00  0.00    -0.286 N 
ATOM     20  C11 UNL     1      11.927   2.862  21.468  0.00  0.00    +0.250 C 
ATOM     21  O3  UNL     1      11.321   2.292  20.518  0.00  0.00    -0.270 OA
BRANCH  19  22
ATOM     22  C4  UNL     1      12.065   5.031  20.182  0.00  0.00    +0.138 C 
BRANCH  22  24
ATOM     23  C1  UNL     1       9.750   5.691  20.763  0.00  0.00    +0.009 C 
ATOM     24  C2  UNL     1      11.043   6.032  20.679  0.00  0.00    -0.063 C 
ATOM     25  C3  UNL     1      11.467   7.417  21.090  0.00  0.00    +0.040 C 
ENDBRANCH  22  24
ENDBRANCH  19  22
BRANCH  19  26
ATOM     26  C5  UNL     1      13.744   4.527  22.018  0.00  0.00    +0.182 C 
BRANCH  26  27
ATOM     27  C6  UNL     1      14.953   4.412  21.149  0.00  0.00    +0.123 A 
ATOM     28  C7  UNL     1      15.534   3.234  20.723  0.00  0.00    +0.046 A 
ATOM     29  C8  UNL     1      16.584   3.607  19.908  0.00  0.00    +0.047 A 
ATOM     30  C9  UNL     1      16.575   4.989  19.901  0.00  0.00    +0.131 A 
ATOM     31  O2  UNL     1      15.596   5.440  20.650  0.00  0.00    -0.461 OA
BRANCH  30  32
ATOM     32  C10 UNL     1      17.524   5.869  19.155  0.00  0.00    +0.230 C 
BRANCH  32  33
ATOM     33  O1  UNL     1      16.895   7.063  18.784  0.00  0.00    -0.387 OA
ATOM     34  H14 UNL     1      15.915   6.902  18.855  0.00  0.00    +0.210 HD
ENDBRANCH  32  33
ENDBRANCH  30  32
ENDBRANCH  26  27
ENDBRANCH  19  26
ENDBRANCH   1  20
TORSDOF 7
ENDMDL
MODEL 3
REMARK VINA RESULT:    -6.132      3.904      6.564
REMARK INTER + INTRA:         -10.137
REMARK INTER:                  -8.540
REMARK INTRA:                  -1.598
REMARK UNBOUND:                -1.675
REMARK  Name = /home/qwerty/github/datacon2025hack/step_04_hit_selection/docking/ligands/lig_63.pdb
REMARK  13 active torsions:
REMARK  status: ('A' for Active; 'I' for Inactive)
REMARK    1  A    between atoms: C2_2  and  C3_3
REMARK    2  A    between atoms: C2_2  and  C4_4
REMARK    3  A    between atoms: C4_4  and  N1_5
REMARK    4  A    between atoms: N1_5  and  C5_6
REMARK    5  A    between atoms: C5_6  and  C6_7
REMARK    6  A    between atoms: C9_10  and  C10_11
REMARK    7  A    between atoms: C10_11  and  O1_12
REMARK    8  A    between atoms: C11_14  and  C12_16
REMARK    9  A    between atoms: C13_17  and  C14_18
REMARK   10  A    between atoms: N2_19  and  C15_20
REMARK   11  A    between atoms: N3_27  and  C22_28
REMARK   12  A    between atoms: C24_31  and  C25_32
REMARK   13  A    between atoms: C24_31  and  C26_33
REMARK                            x       y       z     vdW  Elec       q    Type
REMARK                         _______ _______ _______ _____ _____    ______ ____
ROOT
ATOM      1  C12 UNL     1      18.781   5.435  36.178  0.00  0.00    +0.065 A 
ATOM      2  C13 UNL     1      17.547   4.963  36.628  0.00  0.00    +0.029 A 
ATOM      3  C14 UNL     1      16.753   5.549  37.758  0.00  0.00    +0.064 C 
ATOM      4  N2  UNL     1      17.129   3.922  35.856  0.00  0.00    -0.346 N 
ATOM      5  C15 UNL     1      15.916   3.124  36.026  0.00  0.00    +0.149 C 
ATOM      6  C16 UNL     1      18.111   3.708  34.952  0.00  0.00    +0.050 A 
ATOM      7  C17 UNL     1      18.177   2.704  33.970  0.00  0.00    +0.033 A 
ATOM      8  C18 UNL     1      19.327   2.686  33.161  0.00  0.00    -0.010 A 
ATOM      9  C19 UNL     1      20.347   3.623  33.328  0.00  0.00    +0.041 A 
ATOM     10  C20 UNL     1      20.286   4.609  34.326  0.00  0.00    +0.034 A 
ATOM     11  C21 UNL     1      19.135   4.620  35.121  0.00  0.00    +0.014 A 
ATOM     12  N3  UNL     1      21.410   3.414  32.410  0.00  0.00    -0.273 N 
ATOM     13  C22 UNL     1      22.752   3.978  32.501  0.00  0.00    +0.138 C 
ATOM     14  C23 UNL     1      21.044   2.239  31.689  0.00  0.00    +0.230 C 
ATOM     15  O4  UNL     1      21.791   1.705  30.828  0.00  0.00    -0.274 OA
ATOM     16  C24 UNL     1      19.689   1.701  32.079  0.00  0.00    +0.068 C 
ATOM     17  C25 UNL     1      19.807   0.277  32.640  0.00  0.00    +0.025 C 
ATOM     18  C26 UNL     1      18.708   1.770  30.902  0.00  0.00    +0.025 C 
ENDROOT
BRANCH   1  20
ATOM     19  N1  UNL     1      19.608   7.833  36.078  0.00  0.00    -0.286 N 
ATOM     20  C11 UNL     1      19.573   6.544  36.731  0.00  0.00    +0.250 C 
ATOM     21  O3  UNL     1      20.234   6.350  37.789  0.00  0.00    -0.270 OA
BRANCH  19  22
ATOM     22  C4  UNL     1      20.733   8.751  36.320  0.00  0.00    +0.138 C 
BRANCH  22  24
ATOM     23  C1  UNL     1      22.854   7.713  35.573  0.00  0.00    +0.009 C 
ATOM     24  C2  UNL     1      21.838   8.545  35.305  0.00  0.00    -0.063 C 
ATOM     25  C3  UNL     1      21.806   9.265  33.983  0.00  0.00    +0.040 C 
ENDBRANCH  22  24
ENDBRANCH  19  22
BRANCH  19  26
ATOM     26  C5  UNL     1      18.432   8.317  35.339  0.00  0.00    +0.182 C 
BRANCH  26  27
ATOM     27  C6  UNL     1      17.796   9.463  36.054  0.00  0.00    +0.123 A 
ATOM     28  C7  UNL     1      17.154   9.400  37.275  0.00  0.00    +0.046 A 
ATOM     29  C8  UNL     1      16.773  10.695  37.565  0.00  0.00    +0.047 A 
ATOM     30  C9  UNL     1      17.203  11.457  36.496  0.00  0.00    +0.131 A 
ATOM     31  O2  UNL     1      17.805  10.697  35.611  0.00  0.00    -0.461 OA
BRANCH  30  32
ATOM     32  C10 UNL     1      17.028  12.932  36.343  0.00  0.00    +0.230 C 
BRANCH  32  33
ATOM     33  O1  UNL     1      16.665  13.510  37.565  0.00  0.00    -0.387 OA
ATOM     34  H14 UNL     1      17.476  13.487  38.143  0.00  0.00    +0.210 HD
ENDBRANCH  32  33
ENDBRANCH  30  32
ENDBRANCH  26  27
ENDBRANCH  19  26
ENDBRANCH   1  20
TORSDOF 7
ENDMDL
MODEL 4
REMARK VINA RESULT:    -6.132     14.878     16.626
REMARK INTER + INTRA:         -10.137
REMARK INTER:                  -8.509
REMARK INTRA:                  -1.628
REMARK UNBOUND:                -1.675
REMARK  Name = /home/qwerty/github/datacon2025hack/step_04_hit_selection/docking/ligands/lig_63.pdb
REMARK  13 active torsions:
REMARK  status: ('A' for Active; 'I' for Inactive)
REMARK    1  A    between atoms: C2_2  and  C3_3
REMARK    2  A    between atoms: C2_2  and  C4_4
REMARK    3  A    between atoms: C4_4  and  N1_5
REMARK    4  A    between atoms: N1_5  and  C5_6
REMARK    5  A    between atoms: C5_6  and  C6_7
REMARK    6  A    between atoms: C9_10  and  C10_11
REMARK    7  A    between atoms: C10_11  and  O1_12
REMARK    8  A    between atoms: C11_14  and  C12_16
REMARK    9  A    between atoms: C13_17  and  C14_18
REMARK   10  A    between atoms: N2_19  and  C15_20
REMARK   11  A    between atoms: N3_27  and  C22_28
REMARK   12  A    between atoms: C24_31  and  C25_32
REMARK   13  A    between atoms: C24_31  and  C26_33
REMARK                            x       y       z     vdW  Elec       q    Type
REMARK                         _______ _______ _______ _____ _____    ______ ____
ROOT
ATOM      1  C12 UNL     1      11.301   1.498  23.873  0.00  0.00    +0.065 A 
ATOM      2  C13 UNL     1      10.926   1.552  25.217  0.00  0.00    +0.029 A 
ATOM      3  C14 UNL     1       9.694   2.224  25.748  0.00  0.00    +0.064 C 
ATOM      4  N2  UNL     1      11.810   0.855  25.982  0.00  0.00    -0.346 N 
ATOM      5  C15 UNL     1      11.799   0.709  27.437  0.00  0.00    +0.149 C 
ATOM      6  C16 UNL     1      12.761   0.400  25.136  0.00  0.00    +0.050 A 
ATOM      7  C17 UNL     1      13.922  -0.326  25.453  0.00  0.00    +0.033 A 
ATOM      8  C18 UNL     1      14.768  -0.665  24.381  0.00  0.00    -0.010 A 
ATOM      9  C19 UNL     1      14.461  -0.297  23.070  0.00  0.00    +0.041 A 
ATOM     10  C20 UNL     1      13.312   0.448  22.764  0.00  0.00    +0.034 A 
ATOM     11  C21 UNL     1      12.476   0.775  23.837  0.00  0.00    +0.014 A 
ATOM     12  N3  UNL     1      15.453  -0.737  22.155  0.00  0.00    -0.273 N 
ATOM     13  C22 UNL     1      15.630  -0.268  20.785  0.00  0.00    +0.138 C 
ATOM     14  C23 UNL     1      16.455  -1.348  22.966  0.00  0.00    +0.230 C 
ATOM     15  O4  UNL     1      17.534  -1.796  22.498  0.00  0.00    -0.274 OA
ATOM     16  C24 UNL     1      16.092  -1.381  24.430  0.00  0.00    +0.068 C 
ATOM     17  C25 UNL     1      17.117  -0.600  25.264  0.00  0.00    +0.025 C 
ATOM     18  C26 UNL     1      15.935  -2.824  24.927  0.00  0.00    +0.025 C 
ENDROOT
BRANCH   1  20
ATOM     19  N1  UNL     1      10.634   3.545  22.528  0.00  0.00    -0.286 N 
ATOM     20  C11 UNL     1      10.617   2.114  22.726  0.00  0.00    +0.250 C 
ATOM     21  O3  UNL     1      10.002   1.368  21.913  0.00  0.00    -0.270 OA
BRANCH  19  22
ATOM     22  C4  UNL     1       9.588   4.189  21.717  0.00  0.00    +0.138 C 
BRANCH  22  24
ATOM     23  C1  UNL     1       7.609   4.038  23.199  0.00  0.00    +0.009 C 
ATOM     24  C2  UNL     1       8.519   4.811  22.592  0.00  0.00    -0.063 C 
ATOM     25  C3  UNL     1       8.470   6.302  22.795  0.00  0.00    +0.040 C 
ENDBRANCH  22  24
ENDBRANCH  19  22
BRANCH  19  26
ATOM     26  C5  UNL     1      11.797   4.335  22.957  0.00  0.00    +0.182 C 
BRANCH  26  27
ATOM     27  C6  UNL     1      12.819   4.400  21.871  0.00  0.00    +0.123 A 
ATOM     28  C7  UNL     1      12.803   5.264  20.794  0.00  0.00    +0.046 A 
ATOM     29  C8  UNL     1      13.959   5.003  20.086  0.00  0.00    +0.047 A 
ATOM     30  C9  UNL     1      14.597   3.991  20.777  0.00  0.00    +0.131 A 
ATOM     31  O2  UNL     1      13.895   3.650  21.832  0.00  0.00    -0.461 OA
BRANCH  30  32
ATOM     32  C10 UNL     1      15.899   3.361  20.406  0.00  0.00    +0.230 C 
BRANCH  32  33
ATOM     33  O1  UNL     1      15.795   2.717  19.168  0.00  0.00    -0.387 OA
ATOM     34  H14 UNL     1      16.288   3.281  18.512  0.00  0.00    +0.210 HD
ENDBRANCH  32  33
ENDBRANCH  30  32
ENDBRANCH  26  27
ENDBRANCH  19  26
ENDBRANCH   1  20
TORSDOF 7
ENDMDL
MODEL 5
REMARK VINA RESULT:    -6.092     13.248     15.149
REMARK INTER + INTRA:         -10.082
REMARK INTER:                  -8.327
REMARK INTRA:                  -1.755
REMARK UNBOUND:                -1.675
REMARK  Name = /home/qwerty/github/datacon2025hack/step_04_hit_selection/docking/ligands/lig_63.pdb
REMARK  13 active torsions:
REMARK  status: ('A' for Active; 'I' for Inactive)
REMARK    1  A    between atoms: C2_2  and  C3_3
REMARK    2  A    between atoms: C2_2  and  C4_4
REMARK    3  A    between atoms: C4_4  and  N1_5
REMARK    4  A    between atoms: N1_5  and  C5_6
REMARK    5  A    between atoms: C5_6  and  C6_7
REMARK    6  A    between atoms: C9_10  and  C10_11
REMARK    7  A    between atoms: C10_11  and  O1_12
REMARK    8  A    between atoms: C11_14  and  C12_16
REMARK    9  A    between atoms: C13_17  and  C14_18
REMARK   10  A    between atoms: N2_19  and  C15_20
REMARK   11  A    between atoms: N3_27  and  C22_28
REMARK   12  A    between atoms: C24_31  and  C25_32
REMARK   13  A    between atoms: C24_31  and  C26_33
REMARK                            x       y       z     vdW  Elec       q    Type
REMARK                         _______ _______ _______ _____ _____    ______ ____
ROOT
ATOM      1  C12 UNL     1      15.753   1.456  22.131  0.00  0.00    +0.065 A 
ATOM      2  C13 UNL     1      15.165   2.071  21.024  0.00  0.00    +0.029 A 
ATOM      3  C14 UNL     1      13.905   1.618  20.347  0.00  0.00    +0.064 C 
ATOM      4  N2  UNL     1      15.867   3.183  20.674  0.00  0.00    -0.346 N 
ATOM      5  C15 UNL     1      15.607   4.076  19.545  0.00  0.00    +0.149 C 
ATOM      6  C16 UNL     1      16.916   3.249  21.524  0.00  0.00    +0.050 A 
ATOM      7  C17 UNL     1      17.962   4.186  21.534  0.00  0.00    +0.033 A 
ATOM      8  C18 UNL     1      18.952   4.020  22.520  0.00  0.00    -0.010 A 
ATOM      9  C19 UNL     1      18.889   2.974  23.441  0.00  0.00    +0.041 A 
ATOM     10  C20 UNL     1      17.853   2.027  23.412  0.00  0.00    +0.034 A 
ATOM     11  C21 UNL     1      16.872   2.206  22.431  0.00  0.00    +0.014 A 
ATOM     12  N3  UNL     1      19.990   2.995  24.337  0.00  0.00    -0.273 N 
ATOM     13  C22 UNL     1      20.420   1.901  25.202  0.00  0.00    +0.138 C 
ATOM     14  C23 UNL     1      20.805   4.077  23.890  0.00  0.00    +0.230 C 
ATOM     15  O4  UNL     1      21.918   4.354  24.409  0.00  0.00    -0.274 OA
ATOM     16  C24 UNL     1      20.204   4.831  22.729  0.00  0.00    +0.068 C 
ATOM     17  C25 UNL     1      21.122   4.763  21.500  0.00  0.00    +0.025 C 
ATOM     18  C26 UNL     1      19.880   6.279  23.119  0.00  0.00    +0.025 C 
ENDROOT
BRANCH   1  20
ATOM     19  N1  UNL     1      14.854   0.279  24.193  0.00  0.00    -0.286 N 
ATOM     20  C11 UNL     1      15.307   0.236  22.822  0.00  0.00    +0.250 C 
ATOM     21  O3  UNL     1      15.333  -0.860  22.195  0.00  0.00    -0.270 OA
BRANCH  19  22
ATOM     22  C4  UNL     1      14.884  -0.939  25.017  0.00  0.00    +0.138 C 
BRANCH  22  24
ATOM     23  C1  UNL     1      17.071  -2.093  25.149  0.00  0.00    +0.009 C 
ATOM     24  C2  UNL     1      16.251  -1.152  25.635  0.00  0.00    -0.063 C 
ATOM     25  C3  UNL     1      16.705  -0.307  26.794  0.00  0.00    +0.040 C 
ENDBRANCH  22  24
ENDBRANCH  19  22
BRANCH  19  26
ATOM     26  C5  UNL     1      14.174   1.477  24.707  0.00  0.00    +0.182 C 
BRANCH  26  27
ATOM     27  C6  UNL     1      12.848   1.655  24.045  0.00  0.00    +0.123 A 
ATOM     28  C7  UNL     1      12.392   2.812  23.443  0.00  0.00    +0.046 A 
ATOM     29  C8  UNL     1      11.150   2.500  22.926  0.00  0.00    +0.047 A 
ATOM     30  C9  UNL     1      10.932   1.176  23.256  0.00  0.00    +0.131 A 
ATOM     31  O2  UNL     1      11.957   0.700  23.924  0.00  0.00    -0.461 OA
BRANCH  30  32
ATOM     32  C10 UNL     1       9.719   0.375  22.912  0.00  0.00    +0.230 C 
BRANCH  32  33
ATOM     33  O1  UNL     1       9.941  -0.371  21.749  0.00  0.00    -0.387 OA
ATOM     34  H14 UNL     1       9.603  -1.289  21.931  0.00  0.00    +0.210 HD
ENDBRANCH  32  33
ENDBRANCH  30  32
ENDBRANCH  26  27
ENDBRANCH  19  26
ENDBRANCH   1  20
TORSDOF 7
ENDMDL
MODEL 6
REMARK VINA RESULT:    -6.086     14.386     16.918
REMARK INTER + INTRA:         -10.073
REMARK INTER:                  -8.577
REMARK INTRA:                  -1.496
REMARK UNBOUND:                -1.675
REMARK  Name = /home/qwerty/github/datacon2025hack/step_04_hit_selection/docking/ligands/lig_63.pdb
REMARK  13 active torsions:
REMARK  status: ('A' for Active; 'I' for Inactive)
REMARK    1  A    between atoms: C2_2  and  C3_3
REMARK    2  A    between atoms: C2_2  and  C4_4
REMARK    3  A    between atoms: C4_4  and  N1_5
REMARK    4  A    between atoms: N1_5  and  C5_6
REMARK    5  A    between atoms: C5_6  and  C6_7
REMARK    6  A    between atoms: C9_10  and  C10_11
REMARK    7  A    between atoms: C10_11  and  O1_12
REMARK    8  A    between atoms: C11_14  and  C12_16
REMARK    9  A    between atoms: C13_17  and  C14_18
REMARK   10  A    between atoms: N2_19  and  C15_20
REMARK   11  A    between atoms: N3_27  and  C22_28
REMARK   12  A    between atoms: C24_31  and  C25_32
REMARK   13  A    between atoms: C24_31  and  C26_33
REMARK                            x       y       z     vdW  Elec       q    Type
REMARK                         _______ _______ _______ _____ _____    ______ ____
ROOT
ATOM      1  C12 UNL     1       7.994   4.686  25.239  0.00  0.00    +0.065 A 
ATOM      2  C13 UNL     1       7.964   3.716  26.243  0.00  0.00    +0.029 A 
ATOM      3  C14 UNL     1       7.905   2.234  26.018  0.00  0.00    +0.064 C 
ATOM      4  N2  UNL     1       8.054   4.302  27.468  0.00  0.00    -0.346 N 
ATOM      5  C15 UNL     1       8.009   3.641  28.772  0.00  0.00    +0.149 C 
ATOM      6  C16 UNL     1       8.096   5.635  27.245  0.00  0.00    +0.050 A 
ATOM      7  C17 UNL     1       8.134   6.669  28.196  0.00  0.00    +0.033 A 
ATOM      8  C18 UNL     1       8.153   7.985  27.698  0.00  0.00    -0.010 A 
ATOM      9  C19 UNL     1       8.140   8.242  26.327  0.00  0.00    +0.041 A 
ATOM     10  C20 UNL     1       8.080   7.205  25.383  0.00  0.00    +0.034 A 
ATOM     11  C21 UNL     1       8.065   5.901  25.889  0.00  0.00    +0.014 A 
ATOM     12  N3  UNL     1       8.159   9.635  26.053  0.00  0.00    -0.273 N 
ATOM     13  C22 UNL     1       7.833  10.268  24.780  0.00  0.00    +0.138 C 
ATOM     14  C23 UNL     1       8.112  10.261  27.334  0.00  0.00    +0.230 C 
ATOM     15  O4  UNL     1       8.042  11.508  27.483  0.00  0.00    -0.274 OA
ATOM     16  C24 UNL     1       8.137   9.275  28.476  0.00  0.00    +0.068 C 
ATOM     17  C25 UNL     1       6.866   9.394  29.328  0.00  0.00    +0.025 C 
ATOM     18  C26 UNL     1       9.407   9.440  29.321  0.00  0.00    +0.025 C 
ENDROOT
BRANCH   1  20
ATOM     19  N1  UNL     1       9.021   4.853  22.923  0.00  0.00    -0.286 N 
ATOM     20  C11 UNL     1       7.925   4.473  23.785  0.00  0.00    +0.250 C 
ATOM     21  O3  UNL     1       6.882   3.957  23.296  0.00  0.00    -0.270 OA
BRANCH  19  22
ATOM     22  C4  UNL     1       8.780   5.105  21.494  0.00  0.00    +0.138 C 
BRANCH  22  24
ATOM     23  C1  UNL     1       8.393   7.545  21.658  0.00  0.00    +0.009 C 
ATOM     24  C2  UNL     1       7.933   6.343  21.288  0.00  0.00    -0.063 C 
ATOM     25  C3  UNL     1       6.569   6.240  20.658  0.00  0.00    +0.040 C 
ENDBRANCH  22  24
ENDBRANCH  19  22
BRANCH  19  26
ATOM     26  C5  UNL     1      10.404   4.791  23.419  0.00  0.00    +0.182 C 
BRANCH  26  27
ATOM     27  C6  UNL     1      11.087   3.561  22.920  0.00  0.00    +0.123 A 
ATOM     28  C7  UNL     1      10.808   2.265  23.307  0.00  0.00    +0.046 A 
ATOM     29  C8  UNL     1      11.642   1.462  22.556  0.00  0.00    +0.047 A 
ATOM     30  C9  UNL     1      12.378   2.325  21.767  0.00  0.00    +0.131 A 
ATOM     31  O2  UNL     1      12.029   3.567  22.007  0.00  0.00    -0.461 OA
BRANCH  30  32
ATOM     32  C10 UNL     1      13.421   1.931  20.773  0.00  0.00    +0.230 C 
BRANCH  32  33
ATOM     33  O1  UNL     1      13.497   0.538  20.670  0.00  0.00    -0.387 OA
ATOM     34  H14 UNL     1      13.856   0.207  21.537  0.00  0.00    +0.210 HD
ENDBRANCH  32  33
ENDBRANCH  30  32
ENDBRANCH  26  27
ENDBRANCH  19  26
ENDBRANCH   1  20
TORSDOF 7
ENDMDL
MODEL 7
REMARK VINA RESULT:    -6.006     14.582     17.024
REMARK INTER + INTRA:          -9.963
REMARK INTER:                  -8.360
REMARK INTRA:                  -1.603
REMARK UNBOUND:                -1.675
REMARK  Name = /home/qwerty/github/datacon2025hack/step_04_hit_selection/docking/ligands/lig_63.pdb
REMARK  13 active torsions:
REMARK  status: ('A' for Active; 'I' for Inactive)
REMARK    1  A    between atoms: C2_2  and  C3_3
REMARK    2  A    between atoms: C2_2  and  C4_4
REMARK    3  A    between atoms: C4_4  and  N1_5
REMARK    4  A    between atoms: N1_5  and  C5_6
REMARK    5  A    between atoms: C5_6  and  C6_7
REMARK    6  A    between atoms: C9_10  and  C10_11
REMARK    7  A    between atoms: C10_11  and  O1_12
REMARK    8  A    between atoms: C11_14  and  C12_16
REMARK    9  A    between atoms: C13_17  and  C14_18
REMARK   10  A    between atoms: N2_19  and  C15_20
REMARK   11  A    between atoms: N3_27  and  C22_28
REMARK   12  A    between atoms: C24_31  and  C25_32
REMARK   13  A    between atoms: C24_31  and  C26_33
REMARK                            x       y       z     vdW  Elec       q    Type
REMARK                         _______ _______ _______ _____ _____    ______ ____
ROOT
ATOM      1  C12 UNL     1      13.632   4.798  22.737  0.00  0.00    +0.065 A 
ATOM      2  C13 UNL     1      14.907   5.311  22.491  0.00  0.00    +0.029 A 
ATOM      3  C14 UNL     1      16.197   4.577  22.713  0.00  0.00    +0.064 C 
ATOM      4  N2  UNL     1      14.818   6.562  21.962  0.00  0.00    -0.346 N 
ATOM      5  C15 UNL     1      15.921   7.456  21.611  0.00  0.00    +0.149 C 
ATOM      6  C16 UNL     1      13.500   6.857  21.914  0.00  0.00    +0.050 A 
ATOM      7  C17 UNL     1      12.897   8.056  21.498  0.00  0.00    +0.033 A 
ATOM      8  C18 UNL     1      11.493   8.115  21.564  0.00  0.00    -0.010 A 
ATOM      9  C19 UNL     1      10.742   7.030  22.018  0.00  0.00    +0.041 A 
ATOM     10  C20 UNL     1      11.351   5.843  22.453  0.00  0.00    +0.034 A 
ATOM     11  C21 UNL     1      12.747   5.794  22.378  0.00  0.00    +0.014 A 
ATOM     12  N3  UNL     1       9.350   7.311  22.005  0.00  0.00    -0.273 N 
ATOM     13  C22 UNL     1       8.312   6.556  22.697  0.00  0.00    +0.138 C 
ATOM     14  C23 UNL     1       9.256   8.671  21.583  0.00  0.00    +0.230 C 
ATOM     15  O4  UNL     1       8.164   9.293  21.523  0.00  0.00    -0.274 OA
ATOM     16  C24 UNL     1      10.593   9.280  21.241  0.00  0.00    +0.068 C 
ATOM     17  C25 UNL     1      10.894  10.482  22.146  0.00  0.00    +0.025 C 
ATOM     18  C26 UNL     1      10.666   9.653  19.754  0.00  0.00    +0.025 C 
ENDROOT
BRANCH   1  20
ATOM     19  N1  UNL     1      12.614   2.484  22.502  0.00  0.00    -0.286 N 
ATOM     20  C11 UNL     1      13.288   3.482  23.299  0.00  0.00    +0.250 C 
ATOM     21  O3  UNL     1      13.587   3.240  24.502  0.00  0.00    -0.270 OA
BRANCH  19  22
ATOM     22  C4  UNL     1      11.848   1.412  23.157  0.00  0.00    +0.138 C 
BRANCH  22  24
ATOM     23  C1  UNL     1       9.777   0.277  22.413  0.00  0.00    +0.009 C 
ATOM     24  C2  UNL     1      10.399   1.424  22.720  0.00  0.00    -0.063 C 
ATOM     25  C3  UNL     1       9.637   2.719  22.632  0.00  0.00    +0.040 C 
ENDBRANCH  22  24
ENDBRANCH  19  22
BRANCH  19  26
ATOM     26  C5  UNL     1      12.854   2.412  21.053  0.00  0.00    +0.182 C 
BRANCH  26  27
ATOM     27  C6  UNL     1      14.174   1.776  20.769  0.00  0.00    +0.123 A 
ATOM     28  C7  UNL     1      15.201   2.333  20.033  0.00  0.00    +0.046 A 
ATOM     29  C8  UNL     1      16.234   1.419  20.077  0.00  0.00    +0.047 A 
ATOM     30  C9  UNL     1      15.762   0.362  20.832  0.00  0.00    +0.131 A 
ATOM     31  O2  UNL     1      14.533   0.600  21.227  0.00  0.00    -0.461 OA
BRANCH  30  32
ATOM     32  C10 UNL     1      16.517  -0.881  21.170  0.00  0.00    +0.230 C 
BRANCH  32  33
ATOM     33  O1  UNL     1      15.771  -1.686  22.038  0.00  0.00    -0.387 OA
ATOM     34  H14 UNL     1      15.429  -2.448  21.496  0.00  0.00    +0.210 HD
ENDBRANCH  32  33
ENDBRANCH  30  32
ENDBRANCH  26  27
ENDBRANCH  19  26
ENDBRANCH   1  20
TORSDOF 7
ENDMDL
MODEL 8
REMARK VINA RESULT:    -5.931     14.359     16.734
REMARK INTER + INTRA:          -9.860
REMARK INTER:                  -8.417
REMARK INTRA:                  -1.443
REMARK UNBOUND:                -1.675
REMARK  Name = /home/qwerty/github/datacon2025hack/step_04_hit_selection/docking/ligands/lig_63.pdb
REMARK  13 active torsions:
REMARK  status: ('A' for Active; 'I' for Inactive)
REMARK    1  A    between atoms: C2_2  and  C3_3
REMARK    2  A    between atoms: C2_2  and  C4_4
REMARK    3  A    between atoms: C4_4  and  N1_5
REMARK    4  A    between atoms: N1_5  and  C5_6
REMARK    5  A    between atoms: C5_6  and  C6_7
REMARK    6  A    between atoms: C9_10  and  C10_11
REMARK    7  A    between atoms: C10_11  and  O1_12
REMARK    8  A    between atoms: C11_14  and  C12_16
REMARK    9  A    between atoms: C13_17  and  C14_18
REMARK   10  A    between atoms: N2_19  and  C15_20
REMARK   11  A    between atoms: N3_27  and  C22_28
REMARK   12  A    between atoms: C24_31  and  C25_32
REMARK   13  A    between atoms: C24_31  and  C26_33
REMARK                            x       y       z     vdW  Elec       q    Type
REMARK                         _______ _______ _______ _____ _____    ______ ____
ROOT
ATOM      1  C12 UNL     1       8.642   6.315  23.146  0.00  0.00    +0.065 A 
ATOM      2  C13 UNL     1       8.636   7.092  21.987  0.00  0.00    +0.029 A 
ATOM      3  C14 UNL     1       8.462   6.568  20.591  0.00  0.00    +0.064 C 
ATOM      4  N2  UNL     1       8.752   8.411  22.302  0.00  0.00    -0.346 N 
ATOM      5  C15 UNL     1       8.833   9.539  21.376  0.00  0.00    +0.149 C 
ATOM      6  C16 UNL     1       8.875   8.466  23.647  0.00  0.00    +0.050 A 
ATOM      7  C17 UNL     1       9.079   9.601  24.450  0.00  0.00    +0.033 A 
ATOM      8  C18 UNL     1       9.195   9.384  25.835  0.00  0.00    -0.010 A 
ATOM      9  C19 UNL     1       9.108   8.102  26.378  0.00  0.00    +0.041 A 
ATOM     10  C20 UNL     1       8.927   6.969  25.568  0.00  0.00    +0.034 A 
ATOM     11  C21 UNL     1       8.808   7.198  24.194  0.00  0.00    +0.014 A 
ATOM     12  N3  UNL     1       9.258   8.117  27.790  0.00  0.00    -0.273 N 
ATOM     13  C22 UNL     1       9.542   6.965  28.639  0.00  0.00    +0.138 C 
ATOM     14  C23 UNL     1       9.520   9.481  28.115  0.00  0.00    +0.230 C 
ATOM     15  O4  UNL     1       9.779   9.866  29.285  0.00  0.00    -0.274 OA
ATOM     16  C24 UNL     1       9.470  10.396  26.917  0.00  0.00    +0.068 C 
ATOM     17  C25 UNL     1      10.824  11.086  26.700  0.00  0.00    +0.025 C 
ATOM     18  C26 UNL     1       8.327  11.411  27.044  0.00  0.00    +0.025 C 
ENDROOT
BRANCH   1  20
ATOM     19  N1  UNL     1       9.631   3.995  22.854  0.00  0.00    -0.286 N 
ATOM     20  C11 UNL     1       8.535   4.850  23.245  0.00  0.00    +0.250 C 
ATOM     21  O3  UNL     1       7.459   4.348  23.674  0.00  0.00    -0.270 OA
BRANCH  19  22
ATOM     22  C4  UNL     1       9.376   2.593  22.484  0.00  0.00    +0.138 C 
BRANCH  22  24
ATOM     23  C1  UNL     1      10.783   0.714  23.273  0.00  0.00    +0.009 C 
ATOM     24  C2  UNL     1       9.861   1.644  23.560  0.00  0.00    -0.063 C 
ATOM     25  C3  UNL     1       9.321   1.736  24.962  0.00  0.00    +0.040 C 
ENDBRANCH  22  24
ENDBRANCH  19  22
BRANCH  19  26
ATOM     26  C5  UNL     1      11.019   4.453  23.018  0.00  0.00    +0.182 C 
BRANCH  26  27
ATOM     27  C6  UNL     1      11.841   4.080  21.829  0.00  0.00    +0.123 A 
ATOM     28  C7  UNL     1      11.761   4.655  20.576  0.00  0.00    +0.046 A 
ATOM     29  C8  UNL     1      12.733   4.036  19.817  0.00  0.00    +0.047 A 
ATOM     30  C9  UNL     1      13.334   3.119  20.658  0.00  0.00    +0.131 A 
ATOM     31  O2  UNL     1      12.781   3.165  21.847  0.00  0.00    -0.461 OA
BRANCH  30  32
ATOM     32  C10 UNL     1      14.455   2.201  20.297  0.00  0.00    +0.230 C 
BRANCH  32  33
ATOM     33  O1  UNL     1      15.162   2.701  19.198  0.00  0.00    -0.387 OA
ATOM     34  H14 UNL     1      14.932   2.121  18.423  0.00  0.00    +0.210 HD
ENDBRANCH  32  33
ENDBRANCH  30  32
ENDBRANCH  26  27
ENDBRANCH  19  26
ENDBRANCH   1  20
TORSDOF 7
ENDMDL
MODEL 9
REMARK VINA RESULT:    -5.898     14.006     16.566
REMARK INTER + INTRA:          -9.815
REMARK INTER:                  -8.074
REMARK INTRA:                  -1.741
REMARK UNBOUND:                -1.675
REMARK  Name = /home/qwerty/github/datacon2025hack/step_04_hit_selection/docking/ligands/lig_63.pdb
REMARK  13 active torsions:
REMARK  status: ('A' for Active; 'I' for Inactive)
REMARK    1  A    between atoms: C2_2  and  C3_3
REMARK    2  A    between atoms: C2_2  and  C4_4
REMARK    3  A    between atoms: C4_4  and  N1_5
REMARK    4  A    between atoms: N1_5  and  C5_6
REMARK    5  A    between atoms: C5_6  and  C6_7
REMARK    6  A    between atoms: C9_10  and  C10_11
REMARK    7  A    between atoms: C10_11  and  O1_12
REMARK    8  A    between atoms: C11_14  and  C12_16
REMARK    9  A    between atoms: C13_17  and  C14_18
REMARK   10  A    between atoms: N2_19  and  C15_20
REMARK   11  A    between atoms: N3_27  and  C22_28
REMARK   12  A    between atoms: C24_31  and  C25_32
REMARK   13  A    between atoms: C24_31  and  C26_33
REMARK                            x       y       z     vdW  Elec       q    Type
REMARK                         _______ _______ _______ _____ _____    ______ ____
ROOT
ATOM      1  C12 UNL     1       8.484   6.079  23.796  0.00  0.00    +0.065 A 
ATOM      2  C13 UNL     1       8.301   4.709  23.990  0.00  0.00    +0.029 A 
ATOM      3  C14 UNL     1       8.213   3.681  22.899  0.00  0.00    +0.064 C 
ATOM      4  N2  UNL     1       8.272   4.419  25.320  0.00  0.00    -0.346 N 
ATOM      5  C15 UNL     1       8.052   3.112  25.937  0.00  0.00    +0.149 C 
ATOM      6  C16 UNL     1       8.391   5.602  25.963  0.00  0.00    +0.050 A 
ATOM      7  C17 UNL     1       8.358   5.838  27.348  0.00  0.00    +0.033 A 
ATOM      8  C18 UNL     1       8.485   7.176  27.765  0.00  0.00    -0.010 A 
ATOM      9  C19 UNL     1       8.639   8.212  26.842  0.00  0.00    +0.041 A 
ATOM     10  C20 UNL     1       8.649   7.971  25.459  0.00  0.00    +0.034 A 
ATOM     11  C21 UNL     1       8.527   6.637  25.058  0.00  0.00    +0.014 A 
ATOM     12  N3  UNL     1       8.743   9.475  27.482  0.00  0.00    -0.273 N 
ATOM     13  C22 UNL     1       8.590  10.779  26.846  0.00  0.00    +0.138 C 
ATOM     14  C23 UNL     1       8.573   9.197  28.870  0.00  0.00    +0.230 C 
ATOM     15  O4  UNL     1       8.534  10.098  29.748  0.00  0.00    -0.274 OA
ATOM     16  C24 UNL     1       8.428   7.725  29.167  0.00  0.00    +0.068 C 
ATOM     17  C25 UNL     1       7.073   7.430  29.824  0.00  0.00    +0.025 C 
ATOM     18  C26 UNL     1       9.598   7.215  30.020  0.00  0.00    +0.025 C 
ENDROOT
BRANCH   1  20
ATOM     19  N1  UNL     1       9.807   7.429  22.102  0.00  0.00    -0.286 N 
ATOM     20  C11 UNL     1       8.576   6.799  22.516  0.00  0.00    +0.250 C 
ATOM     21  O3  UNL     1       7.549   6.866  21.783  0.00  0.00    -0.270 OA
BRANCH  19  22
ATOM     22  C4  UNL     1       9.780   8.526  21.121  0.00  0.00    +0.138 C 
BRANCH  22  24
ATOM     23  C1  UNL     1       8.358  10.532  21.420  0.00  0.00    +0.009 C 
ATOM     24  C2  UNL     1       9.452   9.848  21.783  0.00  0.00    -0.063 C 
ATOM     25  C3  UNL     1      10.344  10.406  22.861  0.00  0.00    +0.040 C 
ENDBRANCH  22  24
ENDBRANCH  19  22
BRANCH  19  26
ATOM     26  C5  UNL     1      11.100   6.849  22.494  0.00  0.00    +0.182 C 
BRANCH  26  27
ATOM     27  C6  UNL     1      11.317   5.537  21.816  0.00  0.00    +0.123 A 
ATOM     28  C7  UNL     1      11.336   5.324  20.452  0.00  0.00    +0.046 A 
ATOM     29  C8  UNL     1      11.617   3.983  20.286  0.00  0.00    +0.047 A 
ATOM     30  C9  UNL     1      11.740   3.469  21.562  0.00  0.00    +0.131 A 
ATOM     31  O2  UNL     1      11.553   4.415  22.452  0.00  0.00    -0.461 OA
BRANCH  30  32
ATOM     32  C10 UNL     1      12.047   2.049  21.910  0.00  0.00    +0.230 C 
BRANCH  32  33
ATOM     33  O1  UNL     1      12.770   1.438  20.880  0.00  0.00    -0.387 OA
ATOM     34  H14 UNL     1      13.706   1.769  20.953  0.00  0.00    +0.210 HD
ENDBRANCH  32  33
ENDBRANCH  30  32
ENDBRANCH  26  27
ENDBRANCH  19  26
ENDBRANCH   1  20
TORSDOF 7
ENDMDL
