MODEL 1
REMARK VINA RESULT:    -5.480      0.000      0.000
REMARK INTER + INTRA:          -8.362
REMARK INTER:                  -7.722
REMARK INTRA:                  -0.639
REMARK UNBOUND:                -0.639
REMARK  Name = /home/qwerty/github/datacon2025hack/step_04_hit_selection/docking/ligands/lig_664.pdb
REMARK  8 active torsions:
REMARK  status: ('A' for Active; 'I' for Inactive)
REMARK    1  A    between atoms: C2_2  and  C3_3
REMARK    2  A    between atoms: C3_3  and  C4_4
REMARK    3  A    between atoms: C3_3  and  C6_6
REMARK    4  A    between atoms: C4_4  and  C5_5
REMARK    5  A    between atoms: C6_6  and  C7_7
REMARK    6  A    between atoms: N1_9  and  C8_10
REMARK    7  A    between atoms: C13_15  and  N2_16
REMARK    8  A    between atoms: C14_17  and  C15_19
REMARK                            x       y       z     vdW  Elec       q    Type
REMARK                         _______ _______ _______ _____ _____    ______ ____
ROOT
ATOM      1  C8  UNL     1      12.824   4.775  19.670  0.00  0.00    +0.074 C 
ATOM      2  C9  UNL     1      12.627   3.644  20.687  0.00  0.00    +0.029 C 
ATOM      3  C10 UNL     1      14.106   3.308  20.545  0.00  0.00    -0.023 C 
ATOM      4  C11 UNL     1      14.312   4.420  19.525  0.00  0.00    +0.029 C 
ATOM      5  C12 UNL     1      14.982   3.288  21.791  0.00  0.00    +0.029 C 
ATOM      6  C13 UNL     1      15.393   1.855  21.431  0.00  0.00    +0.074 C 
ATOM      7  C18 UNL     1      14.507   1.886  20.177  0.00  0.00    +0.029 C 
ENDROOT
BRANCH   1  10
ATOM      8  C7  UNL     1      11.303   6.668  20.392  0.00  0.00    +0.214 C 
ATOM      9  O1  UNL     1      10.307   6.092  19.875  0.00  0.00    -0.276 OA
ATOM     10  N1  UNL     1      12.612   6.092  20.277  0.00  0.00    -0.312 N 
ATOM     11  H12 UNL     1      13.413   6.583  20.736  0.00  0.00    +0.149 HD
BRANCH   8  12
ATOM     12  C6  UNL     1      11.113   7.975  21.105  0.00  0.00    +0.103 C 
BRANCH  12  13
ATOM     13  C3  UNL     1      10.189   8.933  20.324  0.00  0.00    +0.020 C 
BRANCH  13  15
ATOM     14  C1  UNL     1       8.586  10.659  21.183  0.00  0.00    +0.004 C 
ATOM     15  C2  UNL     1       9.057   9.408  21.213  0.00  0.00    -0.031 C 
ENDBRANCH  13  15
BRANCH  13  16
ATOM     16  C4  UNL     1      10.973  10.118  19.711  0.00  0.00    +0.004 C 
ATOM     17  C5  UNL     1      12.284  10.396  20.448  0.00  0.00    +0.004 C 
ENDBRANCH  13  16
ENDBRANCH  12  13
ENDBRANCH   8  12
ENDBRANCH   1  10
BRANCH   6  18
ATOM     18  N2  UNL     1      14.919   0.887  22.424  0.00  0.00    -0.307 N 
ATOM     19  C14 UNL     1      15.684  -0.273  22.789  0.00  0.00    +0.263 C 
ATOM     20  O2  UNL     1      16.754  -0.544  22.177  0.00  0.00    -0.269 OA
ATOM     21  H21 UNL     1      14.041   1.102  22.949  0.00  0.00    +0.149 HD
BRANCH  19  22
ATOM     22  C15 UNL     1      15.229  -1.158  23.878  0.00  0.00    +0.132 A 
ATOM     23  C16 UNL     1      14.226  -0.806  24.780  0.00  0.00    +0.079 A 
ATOM     24  S1  UNL     1      14.017  -2.095  25.837  0.00  0.00    -0.083 S 
ATOM     25  C17 UNL     1      15.203  -3.040  25.115  0.00  0.00    +0.156 A 
ATOM     26  N3  UNL     1      15.765  -2.395  24.071  0.00  0.00    -0.243 NA
ENDBRANCH  19  22
ENDBRANCH   6  18
TORSDOF 7
ENDMDL
MODEL 2
REMARK VINA RESULT:    -5.426     13.244     14.873
REMARK INTER + INTRA:          -8.286
REMARK INTER:                  -7.614
REMARK INTRA:                  -0.672
REMARK UNBOUND:                -0.639
REMARK  Name = /home/qwerty/github/datacon2025hack/step_04_hit_selection/docking/ligands/lig_664.pdb
REMARK  8 active torsions:
REMARK  status: ('A' for Active; 'I' for Inactive)
REMARK    1  A    between atoms: C2_2  and  C3_3
REMARK    2  A    between atoms: C3_3  and  C4_4
REMARK    3  A    between atoms: C3_3  and  C6_6
REMARK    4  A    between atoms: C4_4  and  C5_5
REMARK    5  A    between atoms: C6_6  and  C7_7
REMARK    6  A    between atoms: N1_9  and  C8_10
REMARK    7  A    between atoms: C13_15  and  N2_16
REMARK    8  A    between atoms: C14_17  and  C15_19
REMARK                            x       y       z     vdW  Elec       q    Type
REMARK                         _______ _______ _______ _____ _____    ______ ____
ROOT
ATOM      1  C8  UNL     1      12.038  14.382  31.216  0.00  0.00    +0.074 C 
ATOM      2  C9  UNL     1      13.140  13.430  31.697  0.00  0.00    +0.029 C 
ATOM      3  C10 UNL     1      12.624  13.609  33.118  0.00  0.00    -0.023 C 
ATOM      4  C11 UNL     1      11.533  14.566  32.656  0.00  0.00    +0.029 C 
ATOM      5  C12 UNL     1      12.224  12.377  33.920  0.00  0.00    +0.029 C 
ATOM      6  C13 UNL     1      13.197  12.824  35.018  0.00  0.00    +0.074 C 
ATOM      7  C18 UNL     1      13.593  14.063  34.202  0.00  0.00    +0.029 C 
ENDROOT
BRANCH   1  10
ATOM      8  C7  UNL     1      10.958  13.993  28.958  0.00  0.00    +0.214 C 
ATOM      9  O1  UNL     1      11.632  14.930  28.451  0.00  0.00    -0.276 OA
ATOM     10  N1  UNL     1      11.067  13.698  30.358  0.00  0.00    -0.312 N 
ATOM     11  H12 UNL     1      10.511  12.899  30.743  0.00  0.00    +0.149 HD
BRANCH   8  12
ATOM     12  C6  UNL     1      10.019  13.204  28.091  0.00  0.00    +0.103 C 
BRANCH  12  13
ATOM     13  C3  UNL     1       8.788  12.703  28.877  0.00  0.00    +0.020 C 
BRANCH  13  15
ATOM     14  C1  UNL     1       7.078  14.140  30.016  0.00  0.00    +0.004 C 
ATOM     15  C2  UNL     1       7.713  13.771  28.898  0.00  0.00    -0.031 C 
ENDBRANCH  13  15
BRANCH  13  16
ATOM     16  C4  UNL     1       8.254  11.362  28.318  0.00  0.00    +0.004 C 
ATOM     17  C5  UNL     1       7.626  10.485  29.403  0.00  0.00    +0.004 C 
ENDBRANCH  13  16
ENDBRANCH  12  13
ENDBRANCH   8  12
ENDBRANCH   1  10
BRANCH   6  18
ATOM     18  N2  UNL     1      14.309  11.883  35.177  0.00  0.00    -0.307 N 
ATOM     19  C14 UNL     1      15.056  11.779  36.399  0.00  0.00    +0.263 C 
ATOM     20  O2  UNL     1      14.834  12.581  37.347  0.00  0.00    -0.269 OA
ATOM     21  H21 UNL     1      14.499  11.203  34.406  0.00  0.00    +0.149 HD
BRANCH  19  22
ATOM     22  C15 UNL     1      16.088  10.737  36.560  0.00  0.00    +0.132 A 
ATOM     23  C16 UNL     1      16.667  10.417  37.787  0.00  0.00    +0.079 A 
ATOM     24  S1  UNL     1      17.774   9.182  37.522  0.00  0.00    -0.083 S 
ATOM     25  C17 UNL     1      17.481   9.106  35.870  0.00  0.00    +0.156 A 
ATOM     26  N3  UNL     1      16.545  10.008  35.504  0.00  0.00    -0.243 NA
ENDBRANCH  19  22
ENDBRANCH   6  18
TORSDOF 7
ENDMDL
MODEL 3
REMARK VINA RESULT:    -5.268      5.474      8.813
REMARK INTER + INTRA:          -8.064
REMARK INTER:                  -7.295
REMARK INTRA:                  -0.769
REMARK UNBOUND:                -0.639
REMARK  Name = /home/qwerty/github/datacon2025hack/step_04_hit_selection/docking/ligands/lig_664.pdb
REMARK  8 active torsions:
REMARK  status: ('A' for Active; 'I' for Inactive)
REMARK    1  A    between atoms: C2_2  and  C3_3
REMARK    2  A    between atoms: C3_3  and  C4_4
REMARK    3  A    between atoms: C3_3  and  C6_6
REMARK    4  A    between atoms: C4_4  and  C5_5
REMARK    5  A    between atoms: C6_6  and  C7_7
REMARK    6  A    between atoms: N1_9  and  C8_10
REMARK    7  A    between atoms: C13_15  and  N2_16
REMARK    8  A    between atoms: C14_17  and  C15_19
REMARK                            x       y       z     vdW  Elec       q    Type
REMARK                         _______ _______ _______ _____ _____    ______ ____
ROOT
ATOM      1  C8  UNL     1       7.699   9.813  25.576  0.00  0.00    +0.074 C 
ATOM      2  C9  UNL     1       8.937   9.001  25.178  0.00  0.00    +0.029 C 
ATOM      3  C10 UNL     1       8.531   9.167  23.719  0.00  0.00    -0.023 C 
ATOM      4  C11 UNL     1       7.291   9.964  24.103  0.00  0.00    +0.029 C 
ATOM      5  C12 UNL     1       9.523   9.784  22.742  0.00  0.00    +0.029 C 
ATOM      6  C13 UNL     1       9.370   8.537  21.861  0.00  0.00    +0.074 C 
ATOM      7  C18 UNL     1       8.371   7.924  22.853  0.00  0.00    +0.029 C 
ENDROOT
BRANCH   1  10
ATOM      8  C7  UNL     1       8.131  11.243  27.622  0.00  0.00    +0.214 C 
ATOM      9  O1  UNL     1       7.773  10.302  28.381  0.00  0.00    -0.276 OA
ATOM     10  N1  UNL     1       8.064  11.088  26.197  0.00  0.00    -0.312 N 
ATOM     11  H12 UNL     1       8.390  11.880  25.595  0.00  0.00    +0.149 HD
BRANCH   8  12
ATOM     12  C6  UNL     1       8.602  12.537  28.220  0.00  0.00    +0.103 C 
BRANCH  12  13
ATOM     13  C3  UNL     1      10.018  12.917  27.736  0.00  0.00    +0.020 C 
BRANCH  13  15
ATOM     14  C1  UNL     1      11.715  14.685  28.266  0.00  0.00    +0.004 C 
ATOM     15  C2  UNL     1      10.504  14.154  28.465  0.00  0.00    -0.031 C 
ENDBRANCH  13  15
BRANCH  13  16
ATOM     16  C4  UNL     1      11.012  11.740  27.879  0.00  0.00    +0.004 C 
ATOM     17  C5  UNL     1      11.599  11.302  26.536  0.00  0.00    +0.004 C 
ENDBRANCH  13  16
ENDBRANCH  12  13
ENDBRANCH   8  12
ENDBRANCH   1  10
BRANCH   6  18
ATOM     18  N2  UNL     1      10.617   7.771  21.781  0.00  0.00    -0.307 N 
ATOM     19  C14 UNL     1      10.819   6.735  20.806  0.00  0.00    +0.263 C 
ATOM     20  O2  UNL     1       9.872   6.386  20.049  0.00  0.00    -0.269 OA
ATOM     21  H21 UNL     1      11.416   8.055  22.393  0.00  0.00    +0.149 HD
BRANCH  19  22
ATOM     22  C15 UNL     1      12.129   6.070  20.680  0.00  0.00    +0.132 A 
ATOM     23  C16 UNL     1      13.254   6.453  21.410  0.00  0.00    +0.079 A 
ATOM     24  S1  UNL     1      14.516   5.434  20.971  0.00  0.00    -0.083 S 
ATOM     25  C17 UNL     1      13.592   4.557  19.877  0.00  0.00    +0.156 A 
ATOM     26  N3  UNL     1      12.325   5.022  19.833  0.00  0.00    -0.243 NA
ENDBRANCH  19  22
ENDBRANCH   6  18
TORSDOF 7
ENDMDL
MODEL 4
REMARK VINA RESULT:    -5.206      9.484     13.534
REMARK INTER + INTRA:          -7.975
REMARK INTER:                  -7.396
REMARK INTRA:                  -0.580
REMARK UNBOUND:                -0.639
REMARK  Name = /home/qwerty/github/datacon2025hack/step_04_hit_selection/docking/ligands/lig_664.pdb
REMARK  8 active torsions:
REMARK  status: ('A' for Active; 'I' for Inactive)
REMARK    1  A    between atoms: C2_2  and  C3_3
REMARK    2  A    between atoms: C3_3  and  C4_4
REMARK    3  A    between atoms: C3_3  and  C6_6
REMARK    4  A    between atoms: C4_4  and  C5_5
REMARK    5  A    between atoms: C6_6  and  C7_7
REMARK    6  A    between atoms: N1_9  and  C8_10
REMARK    7  A    between atoms: C13_15  and  N2_16
REMARK    8  A    between atoms: C14_17  and  C15_19
REMARK                            x       y       z     vdW  Elec       q    Type
REMARK                         _______ _______ _______ _____ _____    ______ ____
ROOT
ATOM      1  C8  UNL     1      21.072   1.397  31.514  0.00  0.00    +0.074 C 
ATOM      2  C9  UNL     1      21.352   2.374  30.365  0.00  0.00    +0.029 C 
ATOM      3  C10 UNL     1      21.078   1.241  29.385  0.00  0.00    -0.023 C 
ATOM      4  C11 UNL     1      20.810   0.258  30.516  0.00  0.00    +0.029 C 
ATOM      5  C12 UNL     1      20.010   1.433  28.315  0.00  0.00    +0.029 C 
ATOM      6  C13 UNL     1      21.065   1.088  27.256  0.00  0.00    +0.074 C 
ATOM      7  C18 UNL     1      22.134   0.897  28.342  0.00  0.00    +0.029 C 
ENDROOT
BRANCH   1  10
ATOM      8  C7  UNL     1      19.960   2.348  33.582  0.00  0.00    +0.214 C 
ATOM      9  O1  UNL     1      21.076   2.443  34.163  0.00  0.00    -0.276 OA
ATOM     10  N1  UNL     1      19.875   1.776  32.269  0.00  0.00    -0.312 N 
ATOM     11  H12 UNL     1      18.938   1.733  31.805  0.00  0.00    +0.149 HD
BRANCH   8  12
ATOM     12  C6  UNL     1      18.718   2.813  34.285  0.00  0.00    +0.103 C 
BRANCH  12  13
ATOM     13  C3  UNL     1      18.290   1.844  35.407  0.00  0.00    +0.020 C 
BRANCH  13  15
ATOM     14  C1  UNL     1      17.791   3.922  36.720  0.00  0.00    +0.004 C 
ATOM     15  C2  UNL     1      17.615   2.609  36.528  0.00  0.00    -0.031 C 
ENDBRANCH  13  15
BRANCH  13  16
ATOM     16  C4  UNL     1      17.394   0.701  34.872  0.00  0.00    +0.004 C 
ATOM     17  C5  UNL     1      16.824  -0.170  35.993  0.00  0.00    +0.004 C 
ENDBRANCH  13  16
ENDBRANCH  12  13
ENDBRANCH   8  12
ENDBRANCH   1  10
BRANCH   6  18
ATOM     18  N2  UNL     1      21.355   2.229  26.384  0.00  0.00    -0.307 N 
ATOM     19  C14 UNL     1      20.856   2.313  25.040  0.00  0.00    +0.263 C 
ATOM     20  O2  UNL     1      20.230   1.340  24.536  0.00  0.00    -0.269 OA
ATOM     21  H21 UNL     1      21.862   3.049  26.789  0.00  0.00    +0.149 HD
BRANCH  19  22
ATOM     22  C15 UNL     1      21.069   3.531  24.236  0.00  0.00    +0.132 A 
ATOM     23  C16 UNL     1      21.848   4.604  24.666  0.00  0.00    +0.079 A 
ATOM     24  S1  UNL     1      21.831   5.765  23.452  0.00  0.00    -0.083 S 
ATOM     25  C17 UNL     1      20.839   4.868  22.437  0.00  0.00    +0.156 A 
ATOM     26  N3  UNL     1      20.514   3.686  23.002  0.00  0.00    -0.243 NA
ENDBRANCH  19  22
ENDBRANCH   6  18
TORSDOF 7
ENDMDL
MODEL 5
REMARK VINA RESULT:    -5.156     16.015     18.467
REMARK INTER + INTRA:          -7.905
REMARK INTER:                  -7.246
REMARK INTRA:                  -0.659
REMARK UNBOUND:                -0.639
REMARK  Name = /home/qwerty/github/datacon2025hack/step_04_hit_selection/docking/ligands/lig_664.pdb
REMARK  8 active torsions:
REMARK  status: ('A' for Active; 'I' for Inactive)
REMARK    1  A    between atoms: C2_2  and  C3_3
REMARK    2  A    between atoms: C3_3  and  C4_4
REMARK    3  A    between atoms: C3_3  and  C6_6
REMARK    4  A    between atoms: C4_4  and  C5_5
REMARK    5  A    between atoms: C6_6  and  C7_7
REMARK    6  A    between atoms: N1_9  and  C8_10
REMARK    7  A    between atoms: C13_15  and  N2_16
REMARK    8  A    between atoms: C14_17  and  C15_19
REMARK                            x       y       z     vdW  Elec       q    Type
REMARK                         _______ _______ _______ _____ _____    ______ ____
ROOT
ATOM      1  C8  UNL     1      19.850   9.435  35.331  0.00  0.00    +0.074 C 
ATOM      2  C9  UNL     1      18.381   9.737  35.012  0.00  0.00    +0.029 C 
ATOM      3  C10 UNL     1      18.560  11.105  35.657  0.00  0.00    -0.023 C 
ATOM      4  C11 UNL     1      20.017  10.813  35.990  0.00  0.00    +0.029 C 
ATOM      5  C12 UNL     1      18.232  12.352  34.847  0.00  0.00    +0.029 C 
ATOM      6  C13 UNL     1      17.278  12.782  35.969  0.00  0.00    +0.074 C 
ATOM      7  C18 UNL     1      17.616  11.521  36.777  0.00  0.00    +0.029 C 
ENDROOT
BRANCH   1  10
ATOM      8  C7  UNL     1      21.986   8.768  34.143  0.00  0.00    +0.214 C 
ATOM      9  O1  UNL     1      22.545   8.516  35.245  0.00  0.00    -0.276 OA
ATOM     10  N1  UNL     1      20.650   9.290  34.112  0.00  0.00    -0.312 N 
ATOM     11  H12 UNL     1      20.207   9.467  33.181  0.00  0.00    +0.149 HD
BRANCH   8  12
ATOM     12  C6  UNL     1      22.740   8.543  32.864  0.00  0.00    +0.103 C 
BRANCH  12  13
ATOM     13  C3  UNL     1      24.267   8.521  33.087  0.00  0.00    +0.020 C 
BRANCH  13  15
ATOM     14  C1  UNL     1      24.847   6.194  33.819  0.00  0.00    +0.004 C 
ATOM     15  C2  UNL     1      24.807   7.124  32.858  0.00  0.00    -0.031 C 
ENDBRANCH  13  15
BRANCH  13  16
ATOM     16  C4  UNL     1      24.994   9.569  32.210  0.00  0.00    +0.004 C 
ATOM     17  C5  UNL     1      24.148  10.022  31.018  0.00  0.00    +0.004 C 
ENDBRANCH  13  16
ENDBRANCH  12  13
ENDBRANCH   8  12
ENDBRANCH   1  10
BRANCH   6  18
ATOM     18  N2  UNL     1      15.882  12.798  35.521  0.00  0.00    -0.307 N 
ATOM     19  C14 UNL     1      15.015  13.918  35.757  0.00  0.00    +0.263 C 
ATOM     20  O2  UNL     1      15.412  14.889  36.458  0.00  0.00    -0.269 OA
ATOM     21  H21 UNL     1      15.540  12.007  34.928  0.00  0.00    +0.149 HD
BRANCH  19  22
ATOM     22  C15 UNL     1      13.654  13.946  35.186  0.00  0.00    +0.132 A 
ATOM     23  C16 UNL     1      12.506  13.699  35.936  0.00  0.00    +0.079 A 
ATOM     24  S1  UNL     1      11.186  13.841  34.907  0.00  0.00    -0.083 S 
ATOM     25  C17 UNL     1      12.119  14.203  33.559  0.00  0.00    +0.156 A 
ATOM     26  N3  UNL     1      13.432  14.222  33.872  0.00  0.00    -0.243 NA
ENDBRANCH  19  22
ENDBRANCH   6  18
TORSDOF 7
ENDMDL
MODEL 6
REMARK VINA RESULT:    -5.124      3.237      9.513
REMARK INTER + INTRA:          -7.860
REMARK INTER:                  -7.227
REMARK INTRA:                  -0.634
REMARK UNBOUND:                -0.639
REMARK  Name = /home/qwerty/github/datacon2025hack/step_04_hit_selection/docking/ligands/lig_664.pdb
REMARK  8 active torsions:
REMARK  status: ('A' for Active; 'I' for Inactive)
REMARK    1  A    between atoms: C2_2  and  C3_3
REMARK    2  A    between atoms: C3_3  and  C4_4
REMARK    3  A    between atoms: C3_3  and  C6_6
REMARK    4  A    between atoms: C4_4  and  C5_5
REMARK    5  A    between atoms: C6_6  and  C7_7
REMARK    6  A    between atoms: N1_9  and  C8_10
REMARK    7  A    between atoms: C13_15  and  N2_16
REMARK    8  A    between atoms: C14_17  and  C15_19
REMARK                            x       y       z     vdW  Elec       q    Type
REMARK                         _______ _______ _______ _____ _____    ______ ____
ROOT
ATOM      1  C8  UNL     1      15.708   1.274  21.167  0.00  0.00    +0.074 C 
ATOM      2  C9  UNL     1      15.079   2.550  21.740  0.00  0.00    +0.029 C 
ATOM      3  C10 UNL     1      13.843   2.277  20.892  0.00  0.00    -0.023 C 
ATOM      4  C11 UNL     1      14.462   1.015  20.306  0.00  0.00    +0.029 C 
ATOM      5  C12 UNL     1      12.486   2.175  21.576  0.00  0.00    +0.029 C 
ATOM      6  C13 UNL     1      11.971   3.267  20.630  0.00  0.00    +0.074 C 
ATOM      7  C18 UNL     1      13.344   3.362  19.948  0.00  0.00    +0.029 C 
ENDROOT
BRANCH   1  10
ATOM      8  C7  UNL     1      16.671  -0.932  21.954  0.00  0.00    +0.214 C 
ATOM      9  O1  UNL     1      17.111  -1.177  20.797  0.00  0.00    -0.276 OA
ATOM     10  N1  UNL     1      15.905   0.255  22.201  0.00  0.00    -0.312 N 
ATOM     11  H12 UNL     1      15.574   0.440  23.176  0.00  0.00    +0.149 HD
BRANCH   8  12
ATOM     12  C6  UNL     1      16.933  -1.907  23.066  0.00  0.00    +0.103 C 
BRANCH  12  13
ATOM     13  C3  UNL     1      16.031  -1.645  24.291  0.00  0.00    +0.020 C 
BRANCH  13  15
ATOM     14  C1  UNL     1      14.340  -3.000  25.553  0.00  0.00    +0.004 C 
ATOM     15  C2  UNL     1      15.439  -2.947  24.792  0.00  0.00    -0.031 C 
ENDBRANCH  13  15
BRANCH  13  16
ATOM     16  C4  UNL     1      16.785  -0.889  25.411  0.00  0.00    +0.004 C 
ATOM     17  C5  UNL     1      18.298  -0.868  25.187  0.00  0.00    +0.004 C 
ENDBRANCH  13  16
ENDBRANCH  12  13
ENDBRANCH   8  12
ENDBRANCH   1  10
BRANCH   6  18
ATOM     18  N2  UNL     1      11.623   4.494  21.352  0.00  0.00    -0.307 N 
ATOM     19  C14 UNL     1      10.341   5.126  21.216  0.00  0.00    +0.263 C 
ATOM     20  O2  UNL     1       9.505   4.688  20.378  0.00  0.00    -0.269 OA
ATOM     21  H21 UNL     1      12.299   4.864  22.060  0.00  0.00    +0.149 HD
BRANCH  19  22
ATOM     22  C15 UNL     1       9.986   6.290  22.050  0.00  0.00    +0.132 A 
ATOM     23  C16 UNL     1       8.671   6.675  22.305  0.00  0.00    +0.079 A 
ATOM     24  S1  UNL     1       8.721   8.030  23.297  0.00  0.00    -0.083 S 
ATOM     25  C17 UNL     1      10.398   8.076  23.360  0.00  0.00    +0.156 A 
ATOM     26  N3  UNL     1      10.935   7.071  22.636  0.00  0.00    -0.243 NA
ENDBRANCH  19  22
ENDBRANCH   6  18
TORSDOF 7
ENDMDL
MODEL 7
REMARK VINA RESULT:    -5.074     14.465     17.349
REMARK INTER + INTRA:          -7.789
REMARK INTER:                  -7.113
REMARK INTRA:                  -0.677
REMARK UNBOUND:                -0.639
REMARK  Name = /home/qwerty/github/datacon2025hack/step_04_hit_selection/docking/ligands/lig_664.pdb
REMARK  8 active torsions:
REMARK  status: ('A' for Active; 'I' for Inactive)
REMARK    1  A    between atoms: C2_2  and  C3_3
REMARK    2  A    between atoms: C3_3  and  C4_4
REMARK    3  A    between atoms: C3_3  and  C6_6
REMARK    4  A    between atoms: C4_4  and  C5_5
REMARK    5  A    between atoms: C6_6  and  C7_7
REMARK    6  A    between atoms: N1_9  and  C8_10
REMARK    7  A    between atoms: C13_15  and  N2_16
REMARK    8  A    between atoms: C14_17  and  C15_19
REMARK                            x       y       z     vdW  Elec       q    Type
REMARK                         _______ _______ _______ _____ _____    ______ ____
ROOT
ATOM      1  C8  UNL     1      22.437   5.637  34.123  0.00  0.00    +0.074 C 
ATOM      2  C9  UNL     1      21.126   6.222  34.662  0.00  0.00    +0.029 C 
ATOM      3  C10 UNL     1      21.796   7.589  34.703  0.00  0.00    -0.023 C 
ATOM      4  C11 UNL     1      23.108   7.018  34.180  0.00  0.00    +0.029 C 
ATOM      5  C12 UNL     1      21.154   8.749  33.954  0.00  0.00    +0.029 C 
ATOM      6  C13 UNL     1      21.153   9.545  35.266  0.00  0.00    +0.074 C 
ATOM      7  C18 UNL     1      21.800   8.369  36.012  0.00  0.00    +0.029 C 
ENDROOT
BRANCH   1  10
ATOM      8  C7  UNL     1      21.987   3.760  32.483  0.00  0.00    +0.214 C 
ATOM      9  O1  UNL     1      21.950   2.920  33.422  0.00  0.00    -0.276 OA
ATOM     10  N1  UNL     1      22.285   5.137  32.755  0.00  0.00    -0.312 N 
ATOM     11  H12 UNL     1      22.285   5.813  31.956  0.00  0.00    +0.149 HD
BRANCH   8  12
ATOM     12  C6  UNL     1      21.743   3.304  31.073  0.00  0.00    +0.103 C 
BRANCH  12  13
ATOM     13  C3  UNL     1      21.882   1.774  30.926  0.00  0.00    +0.020 C 
BRANCH  13  15
ATOM     14  C1  UNL     1      19.935   0.375  31.662  0.00  0.00    +0.004 C 
ATOM     15  C2  UNL     1      20.518   1.142  30.733  0.00  0.00    -0.031 C 
ENDBRANCH  13  15
BRANCH  13  16
ATOM     16  C4  UNL     1      22.859   1.390  29.789  0.00  0.00    +0.004 C 
ATOM     17  C5  UNL     1      22.166   0.635  28.653  0.00  0.00    +0.004 C 
ENDBRANCH  13  16
ENDBRANCH  12  13
ENDBRANCH   8  12
ENDBRANCH   1  10
BRANCH   6  18
ATOM     18  N2  UNL     1      19.791   9.820  35.735  0.00  0.00    -0.307 N 
ATOM     19  C14 UNL     1      19.338  11.149  36.034  0.00  0.00    +0.263 C 
ATOM     20  O2  UNL     1      20.147  12.117  35.998  0.00  0.00    -0.269 OA
ATOM     21  H21 UNL     1      19.105   9.031  35.759  0.00  0.00    +0.149 HD
BRANCH  19  22
ATOM     22  C15 UNL     1      17.928  11.398  36.388  0.00  0.00    +0.132 A 
ATOM     23  C16 UNL     1      16.974  10.386  36.485  0.00  0.00    +0.079 A 
ATOM     24  S1  UNL     1      15.516  11.100  36.916  0.00  0.00    -0.083 S 
ATOM     25  C17 UNL     1      16.147  12.655  36.957  0.00  0.00    +0.156 A 
ATOM     26  N3  UNL     1      17.462  12.651  36.649  0.00  0.00    -0.243 NA
ENDBRANCH  19  22
ENDBRANCH   6  18
TORSDOF 7
ENDMDL
MODEL 8
REMARK VINA RESULT:    -5.009      6.112     10.811
REMARK INTER + INTRA:          -7.699
REMARK INTER:                  -7.023
REMARK INTRA:                  -0.676
REMARK UNBOUND:                -0.639
REMARK  Name = /home/qwerty/github/datacon2025hack/step_04_hit_selection/docking/ligands/lig_664.pdb
REMARK  8 active torsions:
REMARK  status: ('A' for Active; 'I' for Inactive)
REMARK    1  A    between atoms: C2_2  and  C3_3
REMARK    2  A    between atoms: C3_3  and  C4_4
REMARK    3  A    between atoms: C3_3  and  C6_6
REMARK    4  A    between atoms: C4_4  and  C5_5
REMARK    5  A    between atoms: C6_6  and  C7_7
REMARK    6  A    between atoms: N1_9  and  C8_10
REMARK    7  A    between atoms: C13_15  and  N2_16
REMARK    8  A    between atoms: C14_17  and  C15_19
REMARK                            x       y       z     vdW  Elec       q    Type
REMARK                         _______ _______ _______ _____ _____    ______ ____
ROOT
ATOM      1  C8  UNL     1      19.965   3.139  25.225  0.00  0.00    +0.074 C 
ATOM      2  C9  UNL     1      18.473   3.461  25.082  0.00  0.00    +0.029 C 
ATOM      3  C10 UNL     1      18.521   2.886  23.673  0.00  0.00    -0.023 C 
ATOM      4  C11 UNL     1      20.006   2.572  23.798  0.00  0.00    +0.029 C 
ATOM      5  C12 UNL     1      17.565   1.760  23.301  0.00  0.00    +0.029 C 
ATOM      6  C13 UNL     1      17.076   2.616  22.126  0.00  0.00    +0.074 C 
ATOM      7  C18 UNL     1      18.043   3.745  22.510  0.00  0.00    +0.029 C 
ENDROOT
BRANCH   1  10
ATOM      8  C7  UNL     1      21.489   1.949  26.862  0.00  0.00    +0.214 C 
ATOM      9  O1  UNL     1      22.479   2.616  26.457  0.00  0.00    -0.276 OA
ATOM     10  N1  UNL     1      20.203   2.117  26.248  0.00  0.00    -0.312 N 
ATOM     11  H12 UNL     1      19.397   1.565  26.622  0.00  0.00    +0.149 HD
BRANCH   8  12
ATOM     12  C6  UNL     1      21.670   0.957  27.974  0.00  0.00    +0.103 C 
BRANCH  12  13
ATOM     13  C3  UNL     1      22.632   1.477  29.063  0.00  0.00    +0.020 C 
BRANCH  13  15
ATOM     14  C1  UNL     1      20.716   0.981  30.603  0.00  0.00    +0.004 C 
ATOM     15  C2  UNL     1      21.933   1.500  30.408  0.00  0.00    -0.031 C 
ENDBRANCH  13  15
BRANCH  13  16
ATOM     16  C4  UNL     1      23.945   0.659  29.113  0.00  0.00    +0.004 C 
ATOM     17  C5  UNL     1      23.707  -0.841  28.927  0.00  0.00    +0.004 C 
ENDBRANCH  13  16
ENDBRANCH  12  13
ENDBRANCH   8  12
ENDBRANCH   1  10
BRANCH   6  18
ATOM     18  N2  UNL     1      15.672   3.008  22.285  0.00  0.00    -0.307 N 
ATOM     19  C14 UNL     1      14.663   2.648  21.328  0.00  0.00    +0.263 C 
ATOM     20  O2  UNL     1      14.986   2.063  20.258  0.00  0.00    -0.269 OA
ATOM     21  H21 UNL     1      15.385   3.482  23.172  0.00  0.00    +0.149 HD
BRANCH  19  22
ATOM     22  C15 UNL     1      13.244   2.957  21.584  0.00  0.00    +0.132 A 
ATOM     23  C16 UNL     1      12.784   3.502  22.782  0.00  0.00    +0.079 A 
ATOM     24  S1  UNL     1      11.122   3.702  22.646  0.00  0.00    -0.083 S 
ATOM     25  C17 UNL     1      11.051   3.090  21.084  0.00  0.00    +0.156 A 
ATOM     26  N3  UNL     1      12.279   2.731  20.650  0.00  0.00    -0.243 NA
ENDBRANCH  19  22
ENDBRANCH   6  18
TORSDOF 7
ENDMDL
