REMARK  Name = /home/qwerty/github/datacon2025hack/step_04_hit_selection/docking/ligands/lig_652.pdb
REMARK  8 active torsions:
REMARK  status: ('A' for Active; 'I' for Inactive)
REMARK    1  A    between atoms: C1_1  and  C2_2
REMARK    2  A    between atoms: C5_5  and  C6_6
REMARK    3  A    between atoms: C12_14  and  N2_15
REMARK    4  A    between atoms: C13_16  and  C14_18
REMARK    5  A    between atoms: N3_20  and  C15_21
REMARK    6  A    between atoms: C18_25  and  C19_26
REMARK    7  A    between atoms: C19_26  and  C20_27
REMARK    8  A    between atoms: C19_26  and  C21_28
REMARK                            x       y       z     vdW  Elec       q    Type
REMARK                         _______ _______ _______ _____ _____    ______ ____
ROOT
ATOM      1  N2  UNL     1       1.866  -1.297  -0.398  0.00  0.00    -0.277 N 
ATOM      2  C13 UNL     1       0.574  -0.672  -0.462  0.00  0.00    +0.303 C 
ATOM      3  O1  UNL     1       0.476   0.537  -0.807  0.00  0.00    -0.265 OA
ATOM      4  H10 UNL     1       1.966  -2.209   0.105  0.00  0.00    +0.155 HD
ENDROOT
BRANCH   1  11
ATOM      5  C1  UNL     1       2.203  -0.474  -3.228  0.00  0.00    +0.045 C 
ATOM      6  C2  UNL     1       3.245  -0.225  -2.170  0.00  0.00    -0.029 A 
ATOM      7  C3  UNL     1       4.426   0.442  -2.528  0.00  0.00    +0.006 A 
ATOM      8  C4  UNL     1       5.436   0.655  -1.589  0.00  0.00    +0.009 A 
ATOM      9  C5  UNL     1       5.288   0.205  -0.267  0.00  0.00    -0.015 A 
ATOM     10  C11 UNL     1       4.097  -0.444   0.100  0.00  0.00    +0.032 A 
ATOM     11  C12 UNL     1       3.065  -0.637  -0.829  0.00  0.00    +0.037 A 
BRANCH   9  12
ATOM     12  C6  UNL     1       6.371   0.417   0.728  0.00  0.00    +0.003 A 
ATOM     13  C7  UNL     1       7.722   0.258   0.370  0.00  0.00    +0.119 A 
ATOM     14  N1  UNL     1       8.705   0.452   1.290  0.00  0.00    -0.260 NA
ATOM     15  C8  UNL     1       8.426   0.806   2.572  0.00  0.00    +0.149 A 
ATOM     16  C9  UNL     1       7.101   0.978   2.975  0.00  0.00    +0.142 A 
ATOM     17  F1  UNL     1       6.817   1.334   4.252  0.00  0.00    -0.204 F 
ATOM     18  C10 UNL     1       6.073   0.782   2.052  0.00  0.00    +0.050 A 
ENDBRANCH   9  12
ENDBRANCH   1  11
BRANCH   2  19
ATOM     19  C14 UNL     1      -0.641  -1.431  -0.110  0.00  0.00    +0.300 C 
ATOM     20  O2  UNL     1      -0.532  -2.604   0.340  0.00  0.00    -0.265 OA
ATOM     21  N3  UNL     1      -1.943  -0.847  -0.287  0.00  0.00    -0.305 N 
ATOM     22  H11 UNL     1      -2.010   0.072  -0.778  0.00  0.00    +0.149 HD
BRANCH  21  23
ATOM     23  C15 UNL     1      -3.172  -1.555   0.096  0.00  0.00    +0.078 C 
ATOM     24  C16 UNL     1      -3.346  -1.556   1.625  0.00  0.00    +0.050 C 
ATOM     25  C17 UNL     1      -3.788  -0.175   2.124  0.00  0.00    +0.162 C 
ATOM     26  O3  UNL     1      -4.994   0.225   1.498  0.00  0.00    -0.376 OA
ATOM     27  C18 UNL     1      -4.784   0.415   0.108  0.00  0.00    +0.123 C 
ATOM     28  C22 UNL     1      -4.410  -0.925  -0.570  0.00  0.00    +0.054 C 
BRANCH  27  29
ATOM     29  C19 UNL     1      -6.040   1.061  -0.535  0.00  0.00    +0.012 C 
ATOM     30  C20 UNL     1      -6.208   2.507  -0.043  0.00  0.00    +0.010 C 
ATOM     31  C21 UNL     1      -7.330   0.267  -0.264  0.00  0.00    +0.010 C 
ENDBRANCH  27  29
ENDBRANCH  21  23
ENDBRANCH   2  19
TORSDOF 5
