MODEL 1
REMARK VINA RESULT:    -5.431      0.000      0.000
REMARK INTER + INTRA:          -6.986
REMARK INTER:                  -6.542
REMARK INTRA:                  -0.444
REMARK UNBOUND:                -0.444
REMARK  Name = /home/qwerty/github/datacon2025hack/step_04_hit_selection/docking/ligands/lig_179.pdb
REMARK  6 active torsions:
REMARK  status: ('A' for Active; 'I' for Inactive)
REMARK    1  A    between atoms: C1_1  and  C2_2
REMARK    2  A    between atoms: C2_2  and  C3_3
REMARK    3  A    between atoms: C2_2  and  N1_4
REMARK    4  A    between atoms: C5_6  and  O1_7
REMARK    5  A    between atoms: C6_8  and  N2_9
REMARK    6  A    between atoms: C7_10  and  C8_12
REMARK                            x       y       z     vdW  Elec       q    Type
REMARK                         _______ _______ _______ _____ _____    ______ ____
ROOT
ATOM      1  N2  UNL     1      21.275   2.102  30.392  0.00  0.00    -0.303 N 
ATOM      2  C7  UNL     1      22.242   1.696  29.409  0.00  0.00    +0.265 C 
ATOM      3  O2  UNL     1      23.338   1.190  29.771  0.00  0.00    -0.268 OA
ATOM      4  H13 UNL     1      20.346   2.445  30.063  0.00  0.00    +0.149 HD
ENDROOT
BRANCH   2   5
ATOM      5  C8  UNL     1      21.960   1.861  27.975  0.00  0.00    +0.147 A 
ATOM      6  C9  UNL     1      22.489   2.864  27.154  0.00  0.00    +0.057 A 
ATOM      7  C10 UNL     1      21.884   2.613  25.946  0.00  0.00    +0.040 A 
ATOM      8  N3  UNL     1      21.089   1.577  26.055  0.00  0.00    -0.268 N 
ATOM      9  N4  UNL     1      21.068   1.105  27.287  0.00  0.00    -0.166 NA
ATOM     10  C11 UNL     1      20.153   1.436  24.971  0.00  0.00    +0.144 C 
ATOM     11  C12 UNL     1      20.567   2.576  24.003  0.00  0.00    +0.029 C 
ATOM     12  C13 UNL     1      21.680   3.395  24.713  0.00  0.00    +0.057 C 
ENDBRANCH   2   5
BRANCH   1  16
ATOM     13  N1  UNL     1      20.487   2.146  33.969  0.00  0.00    -0.296 NA
ATOM     14  C4  UNL     1      21.245   3.395  33.782  0.00  0.00    +0.118 C 
ATOM     15  C5  UNL     1      21.982   3.306  32.441  0.00  0.00    +0.150 C 
ATOM     16  C6  UNL     1      21.537   1.981  31.832  0.00  0.00    +0.117 C 
ATOM     17  C14 UNL     1      20.282   1.624  32.614  0.00  0.00    +0.109 C 
BRANCH  13  19
ATOM     18  C1  UNL     1      18.133   1.378  34.206  0.00  0.00    +0.024 C 
ATOM     19  C2  UNL     1      19.214   2.349  34.712  0.00  0.00    +0.051 C 
ATOM     20  C3  UNL     1      18.696   3.789  34.537  0.00  0.00    +0.024 C 
ENDBRANCH  13  19
BRANCH  15  21
ATOM     21  O1  UNL     1      23.374   3.309  32.630  0.00  0.00    -0.389 OA
ATOM     22  H11 UNL     1      23.626   4.245  32.846  0.00  0.00    +0.210 HD
ENDBRANCH  15  21
ENDBRANCH   1  16
TORSDOF 4
ENDMDL
MODEL 2
REMARK VINA RESULT:    -5.389     13.173     14.231
REMARK INTER + INTRA:          -6.936
REMARK INTER:                  -6.400
REMARK INTRA:                  -0.536
REMARK UNBOUND:                -0.444
REMARK  Name = /home/qwerty/github/datacon2025hack/step_04_hit_selection/docking/ligands/lig_179.pdb
REMARK  6 active torsions:
REMARK  status: ('A' for Active; 'I' for Inactive)
REMARK    1  A    between atoms: C1_1  and  C2_2
REMARK    2  A    between atoms: C2_2  and  C3_3
REMARK    3  A    between atoms: C2_2  and  N1_4
REMARK    4  A    between atoms: C5_6  and  O1_7
REMARK    5  A    between atoms: C6_8  and  N2_9
REMARK    6  A    between atoms: C7_10  and  C8_12
REMARK                            x       y       z     vdW  Elec       q    Type
REMARK                         _______ _______ _______ _____ _____    ______ ____
ROOT
ATOM      1  N2  UNL     1      21.924  12.837  21.581  0.00  0.00    -0.303 N 
ATOM      2  C7  UNL     1      21.760  12.201  20.303  0.00  0.00    +0.265 C 
ATOM      3  O2  UNL     1      22.756  12.027  19.551  0.00  0.00    -0.268 OA
ATOM      4  H13 UNL     1      21.097  12.898  22.216  0.00  0.00    +0.149 HD
ENDROOT
BRANCH   2   5
ATOM      5  C8  UNL     1      20.433  11.741  19.864  0.00  0.00    +0.147 A 
ATOM      6  C9  UNL     1      19.352  12.569  19.546  0.00  0.00    +0.057 A 
ATOM      7  C10 UNL     1      18.357  11.667  19.256  0.00  0.00    +0.040 A 
ATOM      8  N3  UNL     1      18.813  10.446  19.394  0.00  0.00    -0.268 N 
ATOM      9  N4  UNL     1      20.067  10.435  19.804  0.00  0.00    -0.166 NA
ATOM     10  C11 UNL     1      17.787   9.438  19.460  0.00  0.00    +0.144 C 
ATOM     11  C12 UNL     1      16.486  10.248  19.215  0.00  0.00    +0.029 C 
ATOM     12  C13 UNL     1      16.889  11.748  19.155  0.00  0.00    +0.057 C 
ENDBRANCH   2   5
BRANCH   1  16
ATOM     13  N1  UNL     1      24.264  14.648  23.741  0.00  0.00    -0.296 NA
ATOM     14  C4  UNL     1      24.180  15.509  22.549  0.00  0.00    +0.118 C 
ATOM     15  C5  UNL     1      23.569  14.684  21.411  0.00  0.00    +0.150 C 
ATOM     16  C6  UNL     1      23.227  13.337  22.036  0.00  0.00    +0.117 C 
ATOM     17  C14 UNL     1      23.243  13.616  23.532  0.00  0.00    +0.109 C 
BRANCH  13  19
ATOM     18  C1  UNL     1      23.582  14.463  26.126  0.00  0.00    +0.024 C 
ATOM     19  C2  UNL     1      24.078  15.400  25.011  0.00  0.00    +0.051 C 
ATOM     20  C3  UNL     1      23.051  16.535  24.836  0.00  0.00    +0.024 C 
ENDBRANCH  13  19
BRANCH  15  21
ATOM     21  O1  UNL     1      24.488  14.513  20.362  0.00  0.00    -0.389 OA
ATOM     22  H11 UNL     1      24.733  15.423  20.051  0.00  0.00    +0.210 HD
ENDBRANCH  15  21
ENDBRANCH   1  16
TORSDOF 4
ENDMDL
MODEL 3
REMARK VINA RESULT:    -5.376      9.589     12.558
REMARK INTER + INTRA:          -6.919
REMARK INTER:                  -6.397
REMARK INTRA:                  -0.523
REMARK UNBOUND:                -0.444
REMARK  Name = /home/qwerty/github/datacon2025hack/step_04_hit_selection/docking/ligands/lig_179.pdb
REMARK  6 active torsions:
REMARK  status: ('A' for Active; 'I' for Inactive)
REMARK    1  A    between atoms: C1_1  and  C2_2
REMARK    2  A    between atoms: C2_2  and  C3_3
REMARK    3  A    between atoms: C2_2  and  N1_4
REMARK    4  A    between atoms: C5_6  and  O1_7
REMARK    5  A    between atoms: C6_8  and  N2_9
REMARK    6  A    between atoms: C7_10  and  C8_12
REMARK                            x       y       z     vdW  Elec       q    Type
REMARK                         _______ _______ _______ _____ _____    ______ ____
ROOT
ATOM      1  N2  UNL     1      17.666  11.603  36.640  0.00  0.00    -0.303 N 
ATOM      2  C7  UNL     1      19.094  11.576  36.478  0.00  0.00    +0.265 C 
ATOM      3  O2  UNL     1      19.741  12.653  36.395  0.00  0.00    -0.268 OA
ATOM      4  H13 UNL     1      17.165  10.699  36.785  0.00  0.00    +0.149 HD
ENDROOT
BRANCH   2   5
ATOM      5  C8  UNL     1      19.812  10.293  36.415  0.00  0.00    +0.147 A 
ATOM      6  C9  UNL     1      19.544   9.173  37.211  0.00  0.00    +0.057 A 
ATOM      7  C10 UNL     1      20.508   8.281  36.807  0.00  0.00    +0.040 A 
ATOM      8  N3  UNL     1      21.255   8.826  35.878  0.00  0.00    -0.268 N 
ATOM      9  N4  UNL     1      20.897  10.071  35.631  0.00  0.00    -0.166 NA
ATOM     10  C11 UNL     1      22.491   8.130  35.633  0.00  0.00    +0.144 C 
ATOM     11  C12 UNL     1      22.375   6.881  36.547  0.00  0.00    +0.029 C 
ATOM     12  C13 UNL     1      21.071   7.044  37.377  0.00  0.00    +0.057 C 
ENDBRANCH   2   5
BRANCH   1  16
ATOM     13  N1  UNL     1      14.703  13.755  36.563  0.00  0.00    -0.296 NA
ATOM     14  C4  UNL     1      15.306  13.975  35.237  0.00  0.00    +0.118 C 
ATOM     15  C5  UNL     1      16.751  13.466  35.284  0.00  0.00    +0.150 C 
ATOM     16  C6  UNL     1      16.914  12.864  36.674  0.00  0.00    +0.117 C 
ATOM     17  C14 UNL     1      15.485  12.665  37.156  0.00  0.00    +0.109 C 
BRANCH  13  19
ATOM     18  C1  UNL     1      13.000  11.945  36.665  0.00  0.00    +0.024 C 
ATOM     19  C2  UNL     1      13.248  13.454  36.492  0.00  0.00    +0.051 C 
ATOM     20  C3  UNL     1      12.658  13.893  35.139  0.00  0.00    +0.024 C 
ENDBRANCH  13  19
BRANCH  15  21
ATOM     21  O1  UNL     1      17.663  14.518  35.101  0.00  0.00    -0.389 OA
ATOM     22  H11 UNL     1      18.482  14.117  34.709  0.00  0.00    +0.210 HD
ENDBRANCH  15  21
ENDBRANCH   1  16
TORSDOF 4
ENDMDL
MODEL 4
REMARK VINA RESULT:    -5.344     12.569     15.533
REMARK INTER + INTRA:          -6.881
REMARK INTER:                  -6.349
REMARK INTRA:                  -0.533
REMARK UNBOUND:                -0.444
REMARK  Name = /home/qwerty/github/datacon2025hack/step_04_hit_selection/docking/ligands/lig_179.pdb
REMARK  6 active torsions:
REMARK  status: ('A' for Active; 'I' for Inactive)
REMARK    1  A    between atoms: C1_1  and  C2_2
REMARK    2  A    between atoms: C2_2  and  C3_3
REMARK    3  A    between atoms: C2_2  and  N1_4
REMARK    4  A    between atoms: C5_6  and  O1_7
REMARK    5  A    between atoms: C6_8  and  N2_9
REMARK    6  A    between atoms: C7_10  and  C8_12
REMARK                            x       y       z     vdW  Elec       q    Type
REMARK                         _______ _______ _______ _____ _____    ______ ____
ROOT
ATOM      1  N2  UNL     1      21.337  14.725  23.364  0.00  0.00    -0.303 N 
ATOM      2  C7  UNL     1      21.866  15.642  24.335  0.00  0.00    +0.265 C 
ATOM      3  O2  UNL     1      21.906  16.876  24.084  0.00  0.00    -0.268 OA
ATOM      4  H13 UNL     1      21.244  13.719  23.628  0.00  0.00    +0.149 HD
ENDROOT
BRANCH   2   5
ATOM      5  C8  UNL     1      22.360  15.151  25.632  0.00  0.00    +0.147 A 
ATOM      6  C9  UNL     1      23.630  14.610  25.864  0.00  0.00    +0.057 A 
ATOM      7  C10 UNL     1      23.570  14.263  27.193  0.00  0.00    +0.040 A 
ATOM      8  N3  UNL     1      22.391  14.570  27.677  0.00  0.00    -0.268 N 
ATOM      9  N4  UNL     1      21.599  15.078  26.752  0.00  0.00    -0.166 NA
ATOM     10  C11 UNL     1      22.093  13.945  28.940  0.00  0.00    +0.144 C 
ATOM     11  C12 UNL     1      23.414  13.208  29.284  0.00  0.00    +0.029 C 
ATOM     12  C13 UNL     1      24.362  13.376  28.063  0.00  0.00    +0.057 C 
ENDBRANCH   2   5
BRANCH   1  16
ATOM     13  N1  UNL     1      20.168  14.380  19.909  0.00  0.00    -0.296 NA
ATOM     14  C4  UNL     1      21.554  14.853  19.744  0.00  0.00    +0.118 C 
ATOM     15  C5  UNL     1      22.021  15.427  21.086  0.00  0.00    +0.150 C 
ATOM     16  C6  UNL     1      20.866  15.177  22.049  0.00  0.00    +0.117 C 
ATOM     17  C14 UNL     1      20.029  14.119  21.346  0.00  0.00    +0.109 C 
BRANCH  13  19
ATOM     18  C1  UNL     1      18.754  12.342  19.721  0.00  0.00    +0.024 C 
ATOM     19  C2  UNL     1      19.861  13.191  19.070  0.00  0.00    +0.051 C 
ATOM     20  C3  UNL     1      21.108  12.307  18.886  0.00  0.00    +0.024 C 
ENDBRANCH  13  19
BRANCH  15  21
ATOM     21  O1  UNL     1      22.278  16.804  20.984  0.00  0.00    -0.389 OA
ATOM     22  H11 UNL     1      21.410  17.237  20.773  0.00  0.00    +0.210 HD
ENDBRANCH  15  21
ENDBRANCH   1  16
TORSDOF 4
ENDMDL
MODEL 5
REMARK VINA RESULT:    -5.326      2.037      7.868
REMARK INTER + INTRA:          -6.860
REMARK INTER:                  -6.366
REMARK INTRA:                  -0.494
REMARK UNBOUND:                -0.444
REMARK  Name = /home/qwerty/github/datacon2025hack/step_04_hit_selection/docking/ligands/lig_179.pdb
REMARK  6 active torsions:
REMARK  status: ('A' for Active; 'I' for Inactive)
REMARK    1  A    between atoms: C1_1  and  C2_2
REMARK    2  A    between atoms: C2_2  and  C3_3
REMARK    3  A    between atoms: C2_2  and  N1_4
REMARK    4  A    between atoms: C5_6  and  O1_7
REMARK    5  A    between atoms: C6_8  and  N2_9
REMARK    6  A    between atoms: C7_10  and  C8_12
REMARK                            x       y       z     vdW  Elec       q    Type
REMARK                         _______ _______ _______ _____ _____    ______ ____
ROOT
ATOM      1  N2  UNL     1      21.376   2.294  27.355  0.00  0.00    -0.303 N 
ATOM      2  C7  UNL     1      21.558   1.174  28.236  0.00  0.00    +0.265 C 
ATOM      3  O2  UNL     1      21.819   0.035  27.765  0.00  0.00    -0.268 OA
ATOM      4  H13 UNL     1      21.238   3.240  27.775  0.00  0.00    +0.149 HD
ENDROOT
BRANCH   2   5
ATOM      5  C8  UNL     1      21.449   1.347  29.693  0.00  0.00    +0.147 A 
ATOM      6  C9  UNL     1      20.578   0.641  30.531  0.00  0.00    +0.057 A 
ATOM      7  C10 UNL     1      20.824   1.202  31.761  0.00  0.00    +0.040 A 
ATOM      8  N3  UNL     1      21.738   2.135  31.648  0.00  0.00    -0.268 N 
ATOM      9  N4  UNL     1      22.124   2.291  30.396  0.00  0.00    -0.166 NA
ATOM     10  C11 UNL     1      21.823   3.017  32.782  0.00  0.00    +0.144 C 
ATOM     11  C12 UNL     1      20.811   2.397  33.782  0.00  0.00    +0.029 C 
ATOM     12  C13 UNL     1      20.102   1.226  33.046  0.00  0.00    +0.057 C 
ENDBRANCH   2   5
BRANCH   1  16
ATOM     13  N1  UNL     1      21.052   3.326  23.855  0.00  0.00    -0.296 NA
ATOM     14  C4  UNL     1      19.905   2.421  24.040  0.00  0.00    +0.118 C 
ATOM     15  C5  UNL     1      20.147   1.605  25.315  0.00  0.00    +0.150 C 
ATOM     16  C6  UNL     1      21.446   2.151  25.895  0.00  0.00    +0.117 C 
ATOM     17  C14 UNL     1      21.622   3.491  25.196  0.00  0.00    +0.109 C 
BRANCH  13  19
ATOM     18  C1  UNL     1      20.618   4.474  21.691  0.00  0.00    +0.024 C 
ATOM     19  C2  UNL     1      20.673   4.618  23.222  0.00  0.00    +0.051 C 
ATOM     20  C3  UNL     1      21.686   5.723  23.572  0.00  0.00    +0.024 C 
ENDBRANCH  13  19
BRANCH  15  21
ATOM     21  O1  UNL     1      20.284   0.238  25.020  0.00  0.00    -0.389 OA
ATOM     22  H11 UNL     1      21.217   0.111  24.705  0.00  0.00    +0.210 HD
ENDBRANCH  15  21
ENDBRANCH   1  16
TORSDOF 4
ENDMDL
MODEL 6
REMARK VINA RESULT:    -5.267     14.574     15.956
REMARK INTER + INTRA:          -6.788
REMARK INTER:                  -6.341
REMARK INTRA:                  -0.447
REMARK UNBOUND:                -0.444
REMARK  Name = /home/qwerty/github/datacon2025hack/step_04_hit_selection/docking/ligands/lig_179.pdb
REMARK  6 active torsions:
REMARK  status: ('A' for Active; 'I' for Inactive)
REMARK    1  A    between atoms: C1_1  and  C2_2
REMARK    2  A    between atoms: C2_2  and  C3_3
REMARK    3  A    between atoms: C2_2  and  N1_4
REMARK    4  A    between atoms: C5_6  and  O1_7
REMARK    5  A    between atoms: C6_8  and  N2_9
REMARK    6  A    between atoms: C7_10  and  C8_12
REMARK                            x       y       z     vdW  Elec       q    Type
REMARK                         _______ _______ _______ _____ _____    ______ ____
ROOT
ATOM      1  N2  UNL     1       9.663  12.076  28.834  0.00  0.00    -0.303 N 
ATOM      2  C7  UNL     1       8.317  11.737  29.208  0.00  0.00    +0.265 C 
ATOM      3  O2  UNL     1       7.555  12.617  29.691  0.00  0.00    -0.268 OA
ATOM      4  H13 UNL     1      10.247  11.348  28.365  0.00  0.00    +0.149 HD
ENDROOT
BRANCH   2   5
ATOM      5  C8  UNL     1       7.816  10.366  29.025  0.00  0.00    +0.147 A 
ATOM      6  C9  UNL     1       7.572   9.447  30.052  0.00  0.00    +0.057 A 
ATOM      7  C10 UNL     1       7.177   8.326  29.364  0.00  0.00    +0.040 A 
ATOM      8  N3  UNL     1       7.191   8.568  28.076  0.00  0.00    -0.268 N 
ATOM      9  N4  UNL     1       7.614   9.790  27.813  0.00  0.00    -0.166 NA
ATOM     10  C11 UNL     1       7.138   7.388  27.253  0.00  0.00    +0.144 C 
ATOM     11  C12 UNL     1       6.962   6.248  28.292  0.00  0.00    +0.029 C 
ATOM     12  C13 UNL     1       7.066   6.895  29.701  0.00  0.00    +0.057 C 
ENDBRANCH   2   5
BRANCH   1  16
ATOM     13  N1  UNL     1      12.073  14.814  28.501  0.00  0.00    -0.296 NA
ATOM     14  C4  UNL     1      12.273  14.365  29.889  0.00  0.00    +0.118 C 
ATOM     15  C5  UNL     1      11.064  13.513  30.290  0.00  0.00    +0.150 C 
ATOM     16  C6  UNL     1      10.206  13.425  29.033  0.00  0.00    +0.117 C 
ATOM     17  C14 UNL     1      11.155  13.831  27.916  0.00  0.00    +0.109 C 
BRANCH  13  19
ATOM     18  C1  UNL     1      13.077  14.972  26.230  0.00  0.00    +0.024 C 
ATOM     19  C2  UNL     1      13.348  14.940  27.745  0.00  0.00    +0.051 C 
ATOM     20  C3  UNL     1      14.288  13.758  28.047  0.00  0.00    +0.024 C 
ENDBRANCH  13  19
BRANCH  15  21
ATOM     21  O1  UNL     1      10.341  14.121  31.329  0.00  0.00    -0.389 OA
ATOM     22  H11 UNL     1      10.062  13.392  31.942  0.00  0.00    +0.210 HD
ENDBRANCH  15  21
ENDBRANCH   1  16
TORSDOF 4
ENDMDL
MODEL 7
REMARK VINA RESULT:    -5.258      9.168     12.019
REMARK INTER + INTRA:          -6.778
REMARK INTER:                  -6.433
REMARK INTRA:                  -0.345
REMARK UNBOUND:                -0.444
REMARK  Name = /home/qwerty/github/datacon2025hack/step_04_hit_selection/docking/ligands/lig_179.pdb
REMARK  6 active torsions:
REMARK  status: ('A' for Active; 'I' for Inactive)
REMARK    1  A    between atoms: C1_1  and  C2_2
REMARK    2  A    between atoms: C2_2  and  C3_3
REMARK    3  A    between atoms: C2_2  and  N1_4
REMARK    4  A    between atoms: C5_6  and  O1_7
REMARK    5  A    between atoms: C6_8  and  N2_9
REMARK    6  A    between atoms: C7_10  and  C8_12
REMARK                            x       y       z     vdW  Elec       q    Type
REMARK                         _______ _______ _______ _____ _____    ______ ____
ROOT
ATOM      1  N2  UNL     1      17.335  10.907  36.539  0.00  0.00    -0.303 N 
ATOM      2  C7  UNL     1      18.256  10.046  37.230  0.00  0.00    +0.265 C 
ATOM      3  O2  UNL     1      18.097   9.805  38.456  0.00  0.00    -0.268 OA
ATOM      4  H13 UNL     1      17.445  11.027  35.508  0.00  0.00    +0.149 HD
ENDROOT
BRANCH   2   5
ATOM      5  C8  UNL     1      19.385   9.434  36.512  0.00  0.00    +0.147 A 
ATOM      6  C9  UNL     1      20.350   8.596  37.082  0.00  0.00    +0.057 A 
ATOM      7  C10 UNL     1      21.193   8.347  36.026  0.00  0.00    +0.040 A 
ATOM      8  N3  UNL     1      20.764   8.976  34.959  0.00  0.00    -0.268 N 
ATOM      9  N4  UNL     1      19.683   9.689  35.213  0.00  0.00    -0.166 NA
ATOM     10  C11 UNL     1      21.736   9.075  33.902  0.00  0.00    +0.144 C 
ATOM     11  C12 UNL     1      22.932   8.251  34.451  0.00  0.00    +0.029 C 
ATOM     12  C13 UNL     1      22.571   7.836  35.905  0.00  0.00    +0.057 C 
ENDBRANCH   2   5
BRANCH   1  16
ATOM     13  N1  UNL     1      13.848  11.842  37.157  0.00  0.00    -0.296 NA
ATOM     14  C4  UNL     1      14.431  13.080  36.611  0.00  0.00    +0.118 C 
ATOM     15  C5  UNL     1      15.957  12.961  36.694  0.00  0.00    +0.150 C 
ATOM     16  C6  UNL     1      16.217  11.559  37.231  0.00  0.00    +0.117 C 
ATOM     17  C14 UNL     1      14.900  10.832  37.004  0.00  0.00    +0.109 C 
BRANCH  13  19
ATOM     18  C1  UNL     1      12.030  12.632  35.653  0.00  0.00    +0.024 C 
ATOM     19  C2  UNL     1      12.575  11.460  36.488  0.00  0.00    +0.051 C 
ATOM     20  C3  UNL     1      11.506  11.060  37.523  0.00  0.00    +0.024 C 
ENDBRANCH  13  19
BRANCH  15  21
ATOM     21  O1  UNL     1      16.491  13.923  37.567  0.00  0.00    -0.389 OA
ATOM     22  H11 UNL     1      16.177  13.681  38.478  0.00  0.00    +0.210 HD
ENDBRANCH  15  21
ENDBRANCH   1  16
TORSDOF 4
ENDMDL
MODEL 8
REMARK VINA RESULT:    -5.191      9.805     13.096
REMARK INTER + INTRA:          -6.697
REMARK INTER:                  -6.418
REMARK INTRA:                  -0.278
REMARK UNBOUND:                -0.444
REMARK  Name = /home/qwerty/github/datacon2025hack/step_04_hit_selection/docking/ligands/lig_179.pdb
REMARK  6 active torsions:
REMARK  status: ('A' for Active; 'I' for Inactive)
REMARK    1  A    between atoms: C1_1  and  C2_2
REMARK    2  A    between atoms: C2_2  and  C3_3
REMARK    3  A    between atoms: C2_2  and  N1_4
REMARK    4  A    between atoms: C5_6  and  O1_7
REMARK    5  A    between atoms: C6_8  and  N2_9
REMARK    6  A    between atoms: C7_10  and  C8_12
REMARK                            x       y       z     vdW  Elec       q    Type
REMARK                         _______ _______ _______ _____ _____    ______ ____
ROOT
ATOM      1  N2  UNL     1      13.417   2.452  20.531  0.00  0.00    -0.303 N 
ATOM      2  C7  UNL     1      12.079   2.819  20.904  0.00  0.00    +0.265 C 
ATOM      3  O2  UNL     1      11.318   1.972  21.445  0.00  0.00    -0.268 OA
ATOM      4  H13 UNL     1      14.050   3.193  20.157  0.00  0.00    +0.149 HD
ENDROOT
BRANCH   2   5
ATOM      5  C8  UNL     1      11.587   4.185  20.666  0.00  0.00    +0.147 A 
ATOM      6  C9  UNL     1      12.379   5.339  20.634  0.00  0.00    +0.057 A 
ATOM      7  C10 UNL     1      11.452   6.334  20.437  0.00  0.00    +0.040 A 
ATOM      8  N3  UNL     1      10.251   5.813  20.364  0.00  0.00    -0.268 N 
ATOM      9  N4  UNL     1      10.274   4.505  20.539  0.00  0.00    -0.166 NA
ATOM     10  C11 UNL     1       9.185   6.768  20.509  0.00  0.00    +0.144 C 
ATOM     11  C12 UNL     1       9.939   8.123  20.586  0.00  0.00    +0.029 C 
ATOM     12  C13 UNL     1      11.459   7.797  20.610  0.00  0.00    +0.057 C 
ENDBRANCH   2   5
BRANCH   1  16
ATOM     13  N1  UNL     1      15.353  -0.219  22.124  0.00  0.00    -0.296 NA
ATOM     14  C4  UNL     1      16.118   0.057  20.896  0.00  0.00    +0.118 C 
ATOM     15  C5  UNL     1      15.216   0.850  19.944  0.00  0.00    +0.150 C 
ATOM     16  C6  UNL     1      13.929   1.089  20.724  0.00  0.00    +0.117 C 
ATOM     17  C14 UNL     1      14.324   0.826  22.170  0.00  0.00    +0.109 C 
BRANCH  13  19
ATOM     18  C1  UNL     1      17.228   0.902  23.313  0.00  0.00    +0.024 C 
ATOM     19  C2  UNL     1      16.205  -0.248  23.342  0.00  0.00    +0.051 C 
ATOM     20  C3  UNL     1      16.973  -1.579  23.449  0.00  0.00    +0.024 C 
ENDBRANCH  13  19
BRANCH  15  21
ATOM     21  O1  UNL     1      14.947   0.117  18.777  0.00  0.00    -0.389 OA
ATOM     22  H11 UNL     1      13.970   0.193  18.616  0.00  0.00    +0.210 HD
ENDBRANCH  15  21
ENDBRANCH   1  16
TORSDOF 4
ENDMDL
MODEL 9
REMARK VINA RESULT:    -5.081     14.228     16.812
REMARK INTER + INTRA:          -6.565
REMARK INTER:                  -6.026
REMARK INTRA:                  -0.539
REMARK UNBOUND:                -0.444
REMARK  Name = /home/qwerty/github/datacon2025hack/step_04_hit_selection/docking/ligands/lig_179.pdb
REMARK  6 active torsions:
REMARK  status: ('A' for Active; 'I' for Inactive)
REMARK    1  A    between atoms: C1_1  and  C2_2
REMARK    2  A    between atoms: C2_2  and  C3_3
REMARK    3  A    between atoms: C2_2  and  N1_4
REMARK    4  A    between atoms: C5_6  and  O1_7
REMARK    5  A    between atoms: C6_8  and  N2_9
REMARK    6  A    between atoms: C7_10  and  C8_12
REMARK                            x       y       z     vdW  Elec       q    Type
REMARK                         _______ _______ _______ _____ _____    ______ ____
ROOT
ATOM      1  N2  UNL     1       9.714  10.039  24.791  0.00  0.00    -0.303 N 
ATOM      2  C7  UNL     1       8.779  10.112  25.880  0.00  0.00    +0.265 C 
ATOM      3  O2  UNL     1       7.667   9.525  25.799  0.00  0.00    -0.268 OA
ATOM      4  H13 UNL     1      10.657  10.469  24.916  0.00  0.00    +0.149 HD
ENDROOT
BRANCH   2   5
ATOM      5  C8  UNL     1       9.113  10.864  27.100  0.00  0.00    +0.147 A 
ATOM      6  C9  UNL     1       8.279  11.790  27.736  0.00  0.00    +0.057 A 
ATOM      7  C10 UNL     1       9.063  12.240  28.771  0.00  0.00    +0.040 A 
ATOM      8  N3  UNL     1      10.228  11.639  28.737  0.00  0.00    -0.268 N 
ATOM      9  N4  UNL     1      10.325  10.818  27.709  0.00  0.00    -0.166 NA
ATOM     10  C11 UNL     1      11.240  12.271  29.543  0.00  0.00    +0.144 C 
ATOM     11  C12 UNL     1      10.459  13.411  30.251  0.00  0.00    +0.029 C 
ATOM     12  C13 UNL     1       9.021  13.414  29.661  0.00  0.00    +0.057 C 
ENDBRANCH   2   5
BRANCH   1  16
ATOM     13  N1  UNL     1      10.157   8.997  21.307  0.00  0.00    -0.296 NA
ATOM     14  C4  UNL     1       9.027   9.939  21.230  0.00  0.00    +0.118 C 
ATOM     15  C5  UNL     1       8.474  10.133  22.646  0.00  0.00    +0.150 C 
ATOM     16  C6  UNL     1       9.400   9.325  23.547  0.00  0.00    +0.117 C 
ATOM     17  C14 UNL     1      10.636   9.098  22.690  0.00  0.00    +0.109 C 
BRANCH  13  19
ATOM     18  C1  UNL     1      12.530   9.679  21.002  0.00  0.00    +0.024 C 
ATOM     19  C2  UNL     1      11.217   9.284  20.303  0.00  0.00    +0.051 C 
ATOM     20  C3  UNL     1      10.796  10.434  19.369  0.00  0.00    +0.024 C 
ENDBRANCH  13  19
BRANCH  15  21
ATOM     21  O1  UNL     1       7.159   9.649  22.745  0.00  0.00    -0.389 OA
ATOM     22  H11 UNL     1       6.749   9.762  21.847  0.00  0.00    +0.210 HD
ENDBRANCH  15  21
ENDBRANCH   1  16
TORSDOF 4
ENDMDL
