REMARK  Name = /home/qwerty/github/datacon2025hack/step_04_hit_selection/docking/ligands/lig_349.pdb
REMARK  9 active torsions:
REMARK  status: ('A' for Active; 'I' for Inactive)
REMARK    1  A    between atoms: C1_1  and  C2_2
REMARK    2  A    between atoms: C2_2  and  C3_3
REMARK    3  A    between atoms: C2_2  and  N1_4
REMARK    4  A    between atoms: C6_7  and  C7_8
REMARK    5  A    between atoms: C7_8  and  C8_9
REMARK    6  A    between atoms: C8_9  and  N2_10
REMARK    7  A    between atoms: C12_16  and  C13_17
REMARK    8  A    between atoms: C15_20  and  C16_21
REMARK    9  A    between atoms: C16_21  and  O3_23
REMARK                            x       y       z     vdW  Elec       q    Type
REMARK                         _______ _______ _______ _____ _____    ______ ____
ROOT
ATOM      1  N2  UNL     1       0.223   0.826   1.104  0.00  0.00    -0.299 N 
ATOM      2  C9  UNL     1       1.342   0.450   1.921  0.00  0.00    +0.302 C 
ATOM      3  O1  UNL     1       1.167   0.223   3.149  0.00  0.00    -0.253 OA
ATOM      4  N3  UNL     1       2.667   0.355   1.363  0.00  0.00    -0.286 N 
ATOM      5  C10 UNL     1       2.867   0.073  -0.067  0.00  0.00    +0.110 C 
ATOM      6  C11 UNL     1       4.018  -0.924  -0.280  0.00  0.00    +0.029 C 
ATOM      7  C12 UNL     1       5.255  -0.663   0.624  0.00  0.00    +0.048 C 
ATOM      8  C17 UNL     1       5.133   0.631   1.446  0.00  0.00    +0.029 C 
ATOM      9  C18 UNL     1       3.819   0.632   2.233  0.00  0.00    +0.110 C 
ATOM     10  H17 UNL     1       0.396   1.194   0.141  0.00  0.00    +0.150 HD
ENDROOT
BRANCH   7  11
ATOM     11  C13 UNL     1       6.529  -0.663  -0.178  0.00  0.00    +0.082 A 
ATOM     12  N4  UNL     1       7.472  -1.625  -0.068  0.00  0.00    -0.251 NA
ATOM     13  C14 UNL     1       8.514  -1.421  -0.917  0.00  0.00    +0.133 A 
ATOM     14  C15 UNL     1       8.400  -0.290  -1.718  0.00  0.00    +0.116 A 
ATOM     15  S1  UNL     1       6.948   0.477  -1.350  0.00  0.00    -0.065 S 
BRANCH  14  16
ATOM     16  C16 UNL     1       9.375   0.159  -2.718  0.00  0.00    +0.345 C 
ATOM     17  O2  UNL     1       9.157   1.205  -3.386  0.00  0.00    -0.244 OA
BRANCH  16  18
ATOM     18  O3  UNL     1      10.542  -0.569  -2.929  0.00  0.00    -0.477 OA
ATOM     19  H24 UNL     1      11.224  -0.269  -3.616  0.00  0.00    +0.295 HD
ENDBRANCH  16  18
ENDBRANCH  14  16
ENDBRANCH   7  11
BRANCH   1  20
ATOM     20  C8  UNL     1      -1.147   0.746   1.611  0.00  0.00    +0.106 C 
BRANCH  20  21
ATOM     21  C7  UNL     1      -2.151   1.230   0.555  0.00  0.00    +0.022 C 
BRANCH  21  25
ATOM     22  N1  UNL     1      -6.204   0.079   0.092  0.00  0.00    -0.300 NA
ATOM     23  C4  UNL     1      -5.623  -0.284   1.413  0.00  0.00    +0.085 C 
ATOM     24  C5  UNL     1      -4.091  -0.180   1.443  0.00  0.00    +0.019 C 
ATOM     25  C6  UNL     1      -3.606   1.246   1.079  0.00  0.00    -0.007 C 
ATOM     26  C19 UNL     1      -4.554   1.930   0.060  0.00  0.00    +0.019 C 
ATOM     27  C20 UNL     1      -5.322   0.900  -0.773  0.00  0.00    +0.085 C 
BRANCH  22  29
ATOM     28  C1  UNL     1      -5.912  -2.118  -1.131  0.00  0.00    +0.024 C 
ATOM     29  C2  UNL     1      -6.884  -1.053  -0.592  0.00  0.00    +0.050 C 
ATOM     30  C3  UNL     1      -7.816  -0.554  -1.705  0.00  0.00    +0.024 C 
ENDBRANCH  22  29
ENDBRANCH  21  25
ENDBRANCH  20  21
ENDBRANCH   1  20
TORSDOF 7
