MODEL 1
REMARK VINA RESULT:    -7.140      0.000      0.000
REMARK INTER + INTRA:         -10.114
REMARK INTER:                  -9.227
REMARK INTRA:                  -0.887
REMARK UNBOUND:                -0.887
REMARK  Name = /home/qwerty/github/datacon2025hack/step_04_hit_selection/docking/ligands/lig_480.pdb
REMARK  5 active torsions:
REMARK  status: ('A' for Active; 'I' for Inactive)
REMARK    1  A    between atoms: C1_2  and  C12_18
REMARK    2  A    between atoms: N1_3  and  C2_4
REMARK    3  A    between atoms: C2_4  and  C3_5
REMARK    4  A    between atoms: C7_9  and  C8_10
REMARK    5  A    between atoms: C14_20  and  C15_21
REMARK                            x       y       z     vdW  Elec       q    Type
REMARK                         _______ _______ _______ _____ _____    ______ ____
ROOT
ATOM      1  O1  UNL     1      20.533   0.952  31.005  0.00  0.00    -0.267 OA
ATOM      2  C1  UNL     1      21.463   1.763  31.259  0.00  0.00    +0.283 C 
ATOM      3  N1  UNL     1      22.645   1.834  30.435  0.00  0.00    -0.299 N 
ATOM      4  H1  UNL     1      23.363   2.540  30.717  0.00  0.00    +0.150 HD
ENDROOT
BRANCH   2   5
ATOM      5  C12 UNL     1      21.329   2.653  32.423  0.00  0.00    +0.222 A 
ATOM      6  C13 UNL     1      21.891   3.904  32.568  0.00  0.00    +0.087 A 
ATOM      7  C14 UNL     1      21.464   4.307  33.819  0.00  0.00    +0.132 A 
ATOM      8  N7  UNL     1      20.698   3.342  34.366  0.00  0.00    -0.076 NA
ATOM      9  O2  UNL     1      20.638   2.370  33.503  0.00  0.00    -0.349 OA
BRANCH   7  10
ATOM     10  C15 UNL     1      21.786   5.588  34.472  0.00  0.00    +0.092 A 
ATOM     11  C16 UNL     1      22.943   5.728  35.256  0.00  0.00    +0.030 A 
ATOM     12  C17 UNL     1      23.216   6.957  35.860  0.00  0.00    +0.004 A 
ATOM     13  C18 UNL     1      22.343   8.031  35.680  0.00  0.00    +0.020 A 
ATOM     14  C19 UNL     1      21.202   7.857  34.894  0.00  0.00    +0.111 A 
ATOM     15  N6  UNL     1      20.952   6.654  34.314  0.00  0.00    -0.253 NA
ENDBRANCH   7  10
ENDBRANCH   2   5
BRANCH   3  16
ATOM     16  C2  UNL     1      22.982   1.038  29.239  0.00  0.00    +0.060 C 
ATOM     17  C10 UNL     1      24.428   0.582  29.074  0.00  0.00    +0.033 C 
ATOM     18  C11 UNL     1      23.340  -0.430  29.442  0.00  0.00    +0.033 C 
BRANCH  16  19
ATOM     19  C3  UNL     1      22.239   1.383  27.974  0.00  0.00    -0.023 A 
ATOM     20  C4  UNL     1      21.197   0.560  27.523  0.00  0.00    +0.006 A 
ATOM     21  C5  UNL     1      20.482   0.901  26.374  0.00  0.00    +0.001 A 
ATOM     22  C6  UNL     1      20.789   2.071  25.675  0.00  0.00    +0.012 A 
ATOM     23  C7  UNL     1      21.816   2.918  26.126  0.00  0.00    +0.023 A 
ATOM     24  C9  UNL     1      22.533   2.569  27.284  0.00  0.00    +0.017 A 
BRANCH  23  25
ATOM     25  C8  UNL     1      22.134   4.162  25.395  0.00  0.00    +0.204 A 
ATOM     26  N2  UNL     1      21.441   4.623  24.332  0.00  0.00    -0.108 NA
ATOM     27  N3  UNL     1      22.051   5.744  23.987  0.00  0.00    -0.049 NA
ATOM     28  N4  UNL     1      23.068   5.954  24.805  0.00  0.00    -0.176 N 
ATOM     29  N5  UNL     1      23.155   4.987  25.701  0.00  0.00    -0.133 NA
ATOM     30  H5  UNL     1      23.713   6.772  24.750  0.00  0.00    +0.214 HD
ENDBRANCH  23  25
ENDBRANCH  16  19
ENDBRANCH   3  16
TORSDOF 5
ENDMDL
MODEL 2
REMARK VINA RESULT:    -7.118      2.425      2.880
REMARK INTER + INTRA:         -10.086
REMARK INTER:                  -9.292
REMARK INTRA:                  -0.794
REMARK UNBOUND:                -0.887
REMARK  Name = /home/qwerty/github/datacon2025hack/step_04_hit_selection/docking/ligands/lig_480.pdb
REMARK  5 active torsions:
REMARK  status: ('A' for Active; 'I' for Inactive)
REMARK    1  A    between atoms: C1_2  and  C12_18
REMARK    2  A    between atoms: N1_3  and  C2_4
REMARK    3  A    between atoms: C2_4  and  C3_5
REMARK    4  A    between atoms: C7_9  and  C8_10
REMARK    5  A    between atoms: C14_20  and  C15_21
REMARK                            x       y       z     vdW  Elec       q    Type
REMARK                         _______ _______ _______ _____ _____    ______ ____
ROOT
ATOM      1  O1  UNL     1      20.306   0.210  30.700  0.00  0.00    -0.267 OA
ATOM      2  C1  UNL     1      21.089   1.095  31.135  0.00  0.00    +0.283 C 
ATOM      3  N1  UNL     1      22.297   1.445  30.427  0.00  0.00    -0.299 N 
ATOM      4  H1  UNL     1      22.885   2.194  30.859  0.00  0.00    +0.150 HD
ENDROOT
BRANCH   2   5
ATOM      5  C12 UNL     1      20.753   1.783  32.391  0.00  0.00    +0.222 A 
ATOM      6  C13 UNL     1      19.550   1.724  33.062  0.00  0.00    +0.087 A 
ATOM      7  C14 UNL     1      19.754   2.533  34.164  0.00  0.00    +0.132 A 
ATOM      8  N7  UNL     1      21.006   3.031  34.132  0.00  0.00    -0.076 NA
ATOM      9  O2  UNL     1      21.574   2.560  33.059  0.00  0.00    -0.349 OA
BRANCH   7  10
ATOM     10  C15 UNL     1      18.769   2.819  35.221  0.00  0.00    +0.092 A 
ATOM     11  C16 UNL     1      18.235   1.786  36.010  0.00  0.00    +0.030 A 
ATOM     12  C17 UNL     1      17.304   2.095  37.004  0.00  0.00    +0.004 A 
ATOM     13  C18 UNL     1      16.912   3.419  37.205  0.00  0.00    +0.020 A 
ATOM     14  C19 UNL     1      17.462   4.421  36.403  0.00  0.00    +0.111 A 
ATOM     15  N6  UNL     1      18.367   4.103  35.441  0.00  0.00    -0.253 NA
ENDBRANCH   7  10
ENDBRANCH   2   5
BRANCH   3  16
ATOM     16  C2  UNL     1      22.822   0.880  29.168  0.00  0.00    +0.060 C 
ATOM     17  C10 UNL     1      24.327   0.661  29.062  0.00  0.00    +0.033 C 
ATOM     18  C11 UNL     1      23.383  -0.536  29.205  0.00  0.00    +0.033 C 
BRANCH  16  19
ATOM     19  C3  UNL     1      22.113   1.293  27.904  0.00  0.00    -0.023 A 
ATOM     20  C4  UNL     1      21.034   0.538  27.424  0.00  0.00    +0.006 A 
ATOM     21  C5  UNL     1      20.351   0.942  26.275  0.00  0.00    +0.001 A 
ATOM     22  C6  UNL     1      20.729   2.109  25.606  0.00  0.00    +0.012 A 
ATOM     23  C7  UNL     1      21.794   2.889  26.087  0.00  0.00    +0.023 A 
ATOM     24  C9  UNL     1      22.478   2.477  27.244  0.00  0.00    +0.017 A 
BRANCH  23  25
ATOM     25  C8  UNL     1      22.187   4.130  25.387  0.00  0.00    +0.204 A 
ATOM     26  N2  UNL     1      21.661   4.548  24.217  0.00  0.00    -0.108 NA
ATOM     27  N3  UNL     1      22.282   5.683  23.948  0.00  0.00    -0.049 NA
ATOM     28  N4  UNL     1      23.147   5.942  24.913  0.00  0.00    -0.176 N 
ATOM     29  N5  UNL     1      23.119   4.995  25.834  0.00  0.00    -0.133 NA
ATOM     30  H5  UNL     1      23.767   6.781  24.943  0.00  0.00    +0.214 HD
ENDBRANCH  23  25
ENDBRANCH  16  19
ENDBRANCH   3  16
TORSDOF 5
ENDMDL
MODEL 3
REMARK VINA RESULT:    -7.025     10.231     13.973
REMARK INTER + INTRA:          -9.966
REMARK INTER:                  -9.227
REMARK INTRA:                  -0.738
REMARK UNBOUND:                -0.887
REMARK  Name = /home/qwerty/github/datacon2025hack/step_04_hit_selection/docking/ligands/lig_480.pdb
REMARK  5 active torsions:
REMARK  status: ('A' for Active; 'I' for Inactive)
REMARK    1  A    between atoms: C1_2  and  C12_18
REMARK    2  A    between atoms: N1_3  and  C2_4
REMARK    3  A    between atoms: C2_4  and  C3_5
REMARK    4  A    between atoms: C7_9  and  C8_10
REMARK    5  A    between atoms: C14_20  and  C15_21
REMARK                            x       y       z     vdW  Elec       q    Type
REMARK                         _______ _______ _______ _____ _____    ______ ____
ROOT
ATOM      1  O1  UNL     1      13.924  13.666  37.079  0.00  0.00    -0.267 OA
ATOM      2  C1  UNL     1      14.319  12.503  36.798  0.00  0.00    +0.283 C 
ATOM      3  N1  UNL     1      13.385  11.434  36.538  0.00  0.00    -0.299 N 
ATOM      4  H1  UNL     1      13.802  10.503  36.307  0.00  0.00    +0.150 HD
ENDROOT
BRANCH   2   5
ATOM      5  C12 UNL     1      15.765  12.242  36.733  0.00  0.00    +0.222 A 
ATOM      6  C13 UNL     1      16.378  11.007  36.778  0.00  0.00    +0.087 A 
ATOM      7  C14 UNL     1      17.723  11.311  36.681  0.00  0.00    +0.132 A 
ATOM      8  N7  UNL     1      17.878  12.646  36.585  0.00  0.00    -0.076 NA
ATOM      9  O2  UNL     1      16.686  13.170  36.619  0.00  0.00    -0.349 OA
BRANCH   7  10
ATOM     10  C15 UNL     1      18.831  10.340  36.681  0.00  0.00    +0.092 A 
ATOM     11  C16 UNL     1      19.980  10.555  35.901  0.00  0.00    +0.030 A 
ATOM     12  C17 UNL     1      21.011   9.614  35.926  0.00  0.00    +0.004 A 
ATOM     13  C18 UNL     1      20.894   8.473  36.721  0.00  0.00    +0.020 A 
ATOM     14  C19 UNL     1      19.739   8.290  37.483  0.00  0.00    +0.111 A 
ATOM     15  N6  UNL     1      18.745   9.216  37.447  0.00  0.00    -0.253 NA
ENDBRANCH   7  10
ENDBRANCH   2   5
BRANCH   3  16
ATOM     16  C2  UNL     1      11.910  11.476  36.558  0.00  0.00    +0.060 C 
ATOM     17  C10 UNL     1      11.163  10.147  36.573  0.00  0.00    +0.033 C 
ATOM     18  C11 UNL     1      11.204  11.021  37.829  0.00  0.00    +0.033 C 
BRANCH  16  19
ATOM     19  C3  UNL     1      11.263  12.601  35.792  0.00  0.00    -0.023 A 
ATOM     20  C4  UNL     1      10.324  13.432  36.419  0.00  0.00    +0.006 A 
ATOM     21  C5  UNL     1       9.755  14.499  35.722  0.00  0.00    +0.001 A 
ATOM     22  C6  UNL     1      10.127  14.754  34.400  0.00  0.00    +0.012 A 
ATOM     23  C7  UNL     1      11.084  13.945  33.763  0.00  0.00    +0.023 A 
ATOM     24  C9  UNL     1      11.654  12.872  34.470  0.00  0.00    +0.017 A 
BRANCH  23  25
ATOM     25  C8  UNL     1      11.488  14.222  32.370  0.00  0.00    +0.204 A 
ATOM     26  N2  UNL     1      10.893  13.691  31.281  0.00  0.00    -0.108 NA
ATOM     27  N3  UNL     1      11.554  14.191  30.251  0.00  0.00    -0.049 NA
ATOM     28  N4  UNL     1      12.508  14.990  30.696  0.00  0.00    -0.176 N 
ATOM     29  N5  UNL     1      12.501  15.038  32.017  0.00  0.00    -0.133 NA
ATOM     30  H5  UNL     1      13.175  15.512  30.087  0.00  0.00    +0.214 HD
ENDBRANCH  23  25
ENDBRANCH  16  19
ENDBRANCH   3  16
TORSDOF 5
ENDMDL
MODEL 4
REMARK VINA RESULT:    -7.018      3.332      9.226
REMARK INTER + INTRA:          -9.956
REMARK INTER:                  -9.081
REMARK INTRA:                  -0.875
REMARK UNBOUND:                -0.887
REMARK  Name = /home/qwerty/github/datacon2025hack/step_04_hit_selection/docking/ligands/lig_480.pdb
REMARK  5 active torsions:
REMARK  status: ('A' for Active; 'I' for Inactive)
REMARK    1  A    between atoms: C1_2  and  C12_18
REMARK    2  A    between atoms: N1_3  and  C2_4
REMARK    3  A    between atoms: C2_4  and  C3_5
REMARK    4  A    between atoms: C7_9  and  C8_10
REMARK    5  A    between atoms: C14_20  and  C15_21
REMARK                            x       y       z     vdW  Elec       q    Type
REMARK                         _______ _______ _______ _____ _____    ______ ____
ROOT
ATOM      1  O1  UNL     1      21.685   2.936  27.257  0.00  0.00    -0.267 OA
ATOM      2  C1  UNL     1      21.195   1.806  26.990  0.00  0.00    +0.283 C 
ATOM      3  N1  UNL     1      21.471   0.653  27.813  0.00  0.00    -0.299 N 
ATOM      4  H1  UNL     1      21.018  -0.242  27.520  0.00  0.00    +0.150 HD
ENDROOT
BRANCH   2   5
ATOM      5  C12 UNL     1      20.322   1.673  25.814  0.00  0.00    +0.222 A 
ATOM      6  C13 UNL     1      19.405   0.668  25.583  0.00  0.00    +0.087 A 
ATOM      7  C14 UNL     1      18.858   1.005  24.359  0.00  0.00    +0.132 A 
ATOM      8  N7  UNL     1      19.428   2.141  23.908  0.00  0.00    -0.076 NA
ATOM      9  O2  UNL     1      20.297   2.511  24.804  0.00  0.00    -0.349 OA
BRANCH   7  10
ATOM     10  C15 UNL     1      17.814   0.253  23.642  0.00  0.00    +0.092 A 
ATOM     11  C16 UNL     1      17.592  -1.108  23.908  0.00  0.00    +0.030 A 
ATOM     12  C17 UNL     1      16.594  -1.789  23.208  0.00  0.00    +0.004 A 
ATOM     13  C18 UNL     1      15.827  -1.116  22.256  0.00  0.00    +0.020 A 
ATOM     14  C19 UNL     1      16.074   0.237  22.016  0.00  0.00    +0.111 A 
ATOM     15  N6  UNL     1      17.050   0.884  22.706  0.00  0.00    -0.253 NA
ENDBRANCH   7  10
ENDBRANCH   2   5
BRANCH   3  16
ATOM     16  C2  UNL     1      22.316   0.565  29.020  0.00  0.00    +0.060 C 
ATOM     17  C10 UNL     1      23.314  -0.584  29.105  0.00  0.00    +0.033 C 
ATOM     18  C11 UNL     1      23.806   0.845  28.865  0.00  0.00    +0.033 C 
BRANCH  16  19
ATOM     19  C3  UNL     1      21.678   0.998  30.315  0.00  0.00    -0.023 A 
ATOM     20  C4  UNL     1      20.634   0.246  30.872  0.00  0.00    +0.006 A 
ATOM     21  C5  UNL     1      20.071   0.624  32.092  0.00  0.00    +0.001 A 
ATOM     22  C6  UNL     1      20.553   1.745  32.772  0.00  0.00    +0.012 A 
ATOM     23  C7  UNL     1      21.614   2.497  32.239  0.00  0.00    +0.023 A 
ATOM     24  C9  UNL     1      22.177   2.111  31.010  0.00  0.00    +0.017 A 
BRANCH  23  25
ATOM     25  C8  UNL     1      22.133   3.675  32.963  0.00  0.00    +0.204 A 
ATOM     26  N2  UNL     1      21.515   4.264  34.009  0.00  0.00    -0.108 NA
ATOM     27  N3  UNL     1      22.305   5.267  34.353  0.00  0.00    -0.049 NA
ATOM     28  N4  UNL     1      23.356   5.284  33.552  0.00  0.00    -0.176 N 
ATOM     29  N5  UNL     1      23.288   4.304  32.668  0.00  0.00    -0.133 NA
ATOM     30  H5  UNL     1      24.134   5.977  33.610  0.00  0.00    +0.214 HD
ENDBRANCH  23  25
ENDBRANCH  16  19
ENDBRANCH   3  16
TORSDOF 5
ENDMDL
MODEL 5
REMARK VINA RESULT:    -6.953      3.242      4.197
REMARK INTER + INTRA:          -9.871
REMARK INTER:                  -9.007
REMARK INTRA:                  -0.864
REMARK UNBOUND:                -0.887
REMARK  Name = /home/qwerty/github/datacon2025hack/step_04_hit_selection/docking/ligands/lig_480.pdb
REMARK  5 active torsions:
REMARK  status: ('A' for Active; 'I' for Inactive)
REMARK    1  A    between atoms: C1_2  and  C12_18
REMARK    2  A    between atoms: N1_3  and  C2_4
REMARK    3  A    between atoms: C2_4  and  C3_5
REMARK    4  A    between atoms: C7_9  and  C8_10
REMARK    5  A    between atoms: C14_20  and  C15_21
REMARK                            x       y       z     vdW  Elec       q    Type
REMARK                         _______ _______ _______ _____ _____    ______ ____
ROOT
ATOM      1  O1  UNL     1      19.897   0.437  30.378  0.00  0.00    -0.267 OA
ATOM      2  C1  UNL     1      20.799   1.078  30.980  0.00  0.00    +0.283 C 
ATOM      3  N1  UNL     1      22.109   1.256  30.402  0.00  0.00    -0.299 N 
ATOM      4  H1  UNL     1      22.793   1.807  30.970  0.00  0.00    +0.150 HD
ENDROOT
BRANCH   2   5
ATOM      5  C12 UNL     1      20.497   1.656  32.299  0.00  0.00    +0.222 A 
ATOM      6  C13 UNL     1      19.301   1.565  32.979  0.00  0.00    +0.087 A 
ATOM      7  C14 UNL     1      19.539   2.265  34.147  0.00  0.00    +0.132 A 
ATOM      8  N7  UNL     1      20.804   2.734  34.141  0.00  0.00    -0.076 NA
ATOM      9  O2  UNL     1      21.345   2.349  33.021  0.00  0.00    -0.349 OA
BRANCH   7  10
ATOM     10  C15 UNL     1      18.576   2.477  35.241  0.00  0.00    +0.092 A 
ATOM     11  C16 UNL     1      18.292   3.770  35.713  0.00  0.00    +0.030 A 
ATOM     12  C17 UNL     1      17.373   3.934  36.751  0.00  0.00    +0.004 A 
ATOM     13  C18 UNL     1      16.747   2.818  37.310  0.00  0.00    +0.020 A 
ATOM     14  C19 UNL     1      17.052   1.548  36.817  0.00  0.00    +0.111 A 
ATOM     15  N6  UNL     1      17.949   1.407  35.806  0.00  0.00    -0.253 NA
ENDBRANCH   7  10
ENDBRANCH   2   5
BRANCH   3  16
ATOM     16  C2  UNL     1      22.620   0.759  29.110  0.00  0.00    +0.060 C 
ATOM     17  C10 UNL     1      24.066   0.279  29.056  0.00  0.00    +0.033 C 
ATOM     18  C11 UNL     1      22.918  -0.731  28.990  0.00  0.00    +0.033 C 
BRANCH  16  19
ATOM     19  C3  UNL     1      22.093   1.444  27.875  0.00  0.00    -0.023 A 
ATOM     20  C4  UNL     1      22.646   2.661  27.454  0.00  0.00    +0.006 A 
ATOM     21  C5  UNL     1      22.186   3.275  26.288  0.00  0.00    +0.001 A 
ATOM     22  C6  UNL     1      21.181   2.673  25.525  0.00  0.00    +0.012 A 
ATOM     23  C7  UNL     1      20.631   1.442  25.921  0.00  0.00    +0.023 A 
ATOM     24  C9  UNL     1      21.099   0.829  27.097  0.00  0.00    +0.017 A 
BRANCH  23  25
ATOM     25  C8  UNL     1      19.577   0.799  25.110  0.00  0.00    +0.204 A 
ATOM     26  N2  UNL     1      18.832   1.435  24.181  0.00  0.00    -0.108 NA
ATOM     27  N3  UNL     1      18.022   0.507  23.699  0.00  0.00    -0.049 NA
ATOM     28  N4  UNL     1      18.266  -0.640  24.309  0.00  0.00    -0.176 N 
ATOM     29  N5  UNL     1      19.233  -0.501  25.199  0.00  0.00    -0.133 NA
ATOM     30  H5  UNL     1      17.764  -1.533  24.113  0.00  0.00    +0.214 HD
ENDBRANCH  23  25
ENDBRANCH  16  19
ENDBRANCH   3  16
TORSDOF 5
ENDMDL
MODEL 6
REMARK VINA RESULT:    -6.933      2.162      2.855
REMARK INTER + INTRA:          -9.847
REMARK INTER:                  -8.974
REMARK INTRA:                  -0.872
REMARK UNBOUND:                -0.887
REMARK  Name = /home/qwerty/github/datacon2025hack/step_04_hit_selection/docking/ligands/lig_480.pdb
REMARK  5 active torsions:
REMARK  status: ('A' for Active; 'I' for Inactive)
REMARK    1  A    between atoms: C1_2  and  C12_18
REMARK    2  A    between atoms: N1_3  and  C2_4
REMARK    3  A    between atoms: C2_4  and  C3_5
REMARK    4  A    between atoms: C7_9  and  C8_10
REMARK    5  A    between atoms: C14_20  and  C15_21
REMARK                            x       y       z     vdW  Elec       q    Type
REMARK                         _______ _______ _______ _____ _____    ______ ____
ROOT
ATOM      1  O1  UNL     1      20.131   1.176  30.740  0.00  0.00    -0.267 OA
ATOM      2  C1  UNL     1      21.092   1.923  31.065  0.00  0.00    +0.283 C 
ATOM      3  N1  UNL     1      22.316   1.949  30.302  0.00  0.00    -0.299 N 
ATOM      4  H1  UNL     1      23.058   2.603  30.642  0.00  0.00    +0.150 HD
ENDROOT
BRANCH   2   5
ATOM      5  C12 UNL     1      20.951   2.784  32.250  0.00  0.00    +0.222 A 
ATOM      6  C13 UNL     1      21.713   3.892  32.554  0.00  0.00    +0.087 A 
ATOM      7  C14 UNL     1      21.181   4.332  33.751  0.00  0.00    +0.132 A 
ATOM      8  N7  UNL     1      20.168   3.523  34.118  0.00  0.00    -0.076 NA
ATOM      9  O2  UNL     1      20.058   2.610  33.197  0.00  0.00    -0.349 OA
BRANCH   7  10
ATOM     10  C15 UNL     1      21.637   5.502  34.523  0.00  0.00    +0.092 A 
ATOM     11  C16 UNL     1      22.980   5.632  34.912  0.00  0.00    +0.030 A 
ATOM     12  C17 UNL     1      23.376   6.754  35.643  0.00  0.00    +0.004 A 
ATOM     13  C18 UNL     1      22.440   7.733  35.978  0.00  0.00    +0.020 A 
ATOM     14  C19 UNL     1      21.113   7.572  35.575  0.00  0.00    +0.111 A 
ATOM     15  N6  UNL     1      20.745   6.473  34.865  0.00  0.00    -0.253 NA
ENDBRANCH   7  10
ENDBRANCH   2   5
BRANCH   3  16
ATOM     16  C2  UNL     1      22.667   1.170  29.098  0.00  0.00    +0.060 C 
ATOM     17  C10 UNL     1      24.039   0.506  29.058  0.00  0.00    +0.033 C 
ATOM     18  C11 UNL     1      22.778  -0.343  29.240  0.00  0.00    +0.033 C 
BRANCH  16  19
ATOM     19  C3  UNL     1      22.133   1.688  27.788  0.00  0.00    -0.023 A 
ATOM     20  C4  UNL     1      22.680   2.843  27.212  0.00  0.00    +0.006 A 
ATOM     21  C5  UNL     1      22.213   3.301  25.978  0.00  0.00    +0.001 A 
ATOM     22  C6  UNL     1      21.208   2.602  25.303  0.00  0.00    +0.012 A 
ATOM     23  C7  UNL     1      20.665   1.430  25.856  0.00  0.00    +0.023 A 
ATOM     24  C9  UNL     1      21.139   0.974  27.099  0.00  0.00    +0.017 A 
BRANCH  23  25
ATOM     25  C8  UNL     1      19.612   0.683  25.138  0.00  0.00    +0.204 A 
ATOM     26  N2  UNL     1      18.767   1.229  24.238  0.00  0.00    -0.108 NA
ATOM     27  N3  UNL     1      17.997   0.229  23.842  0.00  0.00    -0.049 NA
ATOM     28  N4  UNL     1      18.360  -0.873  24.474  0.00  0.00    -0.176 N 
ATOM     29  N5  UNL     1      19.368  -0.633  25.294  0.00  0.00    -0.133 NA
ATOM     30  H5  UNL     1      17.913  -1.806  24.343  0.00  0.00    +0.214 HD
ENDBRANCH  23  25
ENDBRANCH  16  19
ENDBRANCH   3  16
TORSDOF 5
ENDMDL
MODEL 7
REMARK VINA RESULT:    -6.914      2.977      8.722
REMARK INTER + INTRA:          -9.822
REMARK INTER:                  -8.975
REMARK INTRA:                  -0.847
REMARK UNBOUND:                -0.887
REMARK  Name = /home/qwerty/github/datacon2025hack/step_04_hit_selection/docking/ligands/lig_480.pdb
REMARK  5 active torsions:
REMARK  status: ('A' for Active; 'I' for Inactive)
REMARK    1  A    between atoms: C1_2  and  C12_18
REMARK    2  A    between atoms: N1_3  and  C2_4
REMARK    3  A    between atoms: C2_4  and  C3_5
REMARK    4  A    between atoms: C7_9  and  C8_10
REMARK    5  A    between atoms: C14_20  and  C15_21
REMARK                            x       y       z     vdW  Elec       q    Type
REMARK                         _______ _______ _______ _____ _____    ______ ____
ROOT
ATOM      1  O1  UNL     1      22.542   3.216  27.422  0.00  0.00    -0.267 OA
ATOM      2  C1  UNL     1      21.846   2.283  26.940  0.00  0.00    +0.283 C 
ATOM      3  N1  UNL     1      21.733   1.008  27.605  0.00  0.00    -0.299 N 
ATOM      4  H1  UNL     1      21.130   0.294  27.136  0.00  0.00    +0.150 HD
ENDROOT
BRANCH   2   5
ATOM      5  C12 UNL     1      21.136   2.511  25.672  0.00  0.00    +0.222 A 
ATOM      6  C13 UNL     1      21.207   3.642  24.885  0.00  0.00    +0.087 A 
ATOM      7  C14 UNL     1      20.366   3.351  23.826  0.00  0.00    +0.132 A 
ATOM      8  N7  UNL     1      19.840   2.121  23.993  0.00  0.00    -0.076 NA
ATOM      9  O2  UNL     1      20.323   1.650  25.106  0.00  0.00    -0.349 OA
BRANCH   7  10
ATOM     10  C15 UNL     1      20.077   4.234  22.683  0.00  0.00    +0.092 A 
ATOM     11  C16 UNL     1      18.757   4.452  22.254  0.00  0.00    +0.030 A 
ATOM     12  C17 UNL     1      18.520   5.295  21.167  0.00  0.00    +0.004 A 
ATOM     13  C18 UNL     1      19.591   5.913  20.519  0.00  0.00    +0.020 A 
ATOM     14  C19 UNL     1      20.890   5.676  20.971  0.00  0.00    +0.111 A 
ATOM     15  N6  UNL     1      21.102   4.852  22.030  0.00  0.00    -0.253 NA
ENDBRANCH   7  10
ENDBRANCH   2   5
BRANCH   3  16
ATOM     16  C2  UNL     1      22.360   0.569  28.867  0.00  0.00    +0.060 C 
ATOM     17  C10 UNL     1      23.031  -0.800  28.888  0.00  0.00    +0.033 C 
ATOM     18  C11 UNL     1      23.881   0.472  28.907  0.00  0.00    +0.033 C 
BRANCH  16  19
ATOM     19  C3  UNL     1      21.678   1.002  30.139  0.00  0.00    -0.023 A 
ATOM     20  C4  UNL     1      20.597   0.266  30.644  0.00  0.00    +0.006 A 
ATOM     21  C5  UNL     1      19.990   0.644  31.843  0.00  0.00    +0.001 A 
ATOM     22  C6  UNL     1      20.465   1.748  32.555  0.00  0.00    +0.012 A 
ATOM     23  C7  UNL     1      21.562   2.484  32.074  0.00  0.00    +0.023 A 
ATOM     24  C9  UNL     1      22.169   2.099  30.866  0.00  0.00    +0.017 A 
BRANCH  23  25
ATOM     25  C8  UNL     1      22.073   3.645  32.831  0.00  0.00    +0.204 A 
ATOM     26  N2  UNL     1      21.418   4.244  33.848  0.00  0.00    -0.108 NA
ATOM     27  N3  UNL     1      22.214   5.224  34.239  0.00  0.00    -0.049 NA
ATOM     28  N4  UNL     1      23.304   5.220  33.491  0.00  0.00    -0.176 N 
ATOM     29  N5  UNL     1      23.257   4.247  32.599  0.00  0.00    -0.133 NA
ATOM     30  H5  UNL     1      24.095   5.892  33.594  0.00  0.00    +0.214 HD
ENDBRANCH  23  25
ENDBRANCH  16  19
ENDBRANCH   3  16
TORSDOF 5
ENDMDL
MODEL 8
REMARK VINA RESULT:    -6.829      4.988      9.890
REMARK INTER + INTRA:          -9.711
REMARK INTER:                  -8.928
REMARK INTRA:                  -0.784
REMARK UNBOUND:                -0.887
REMARK  Name = /home/qwerty/github/datacon2025hack/step_04_hit_selection/docking/ligands/lig_480.pdb
REMARK  5 active torsions:
REMARK  status: ('A' for Active; 'I' for Inactive)
REMARK    1  A    between atoms: C1_2  and  C12_18
REMARK    2  A    between atoms: N1_3  and  C2_4
REMARK    3  A    between atoms: C2_4  and  C3_5
REMARK    4  A    between atoms: C7_9  and  C8_10
REMARK    5  A    between atoms: C14_20  and  C15_21
REMARK                            x       y       z     vdW  Elec       q    Type
REMARK                         _______ _______ _______ _____ _____    ______ ____
ROOT
ATOM      1  O1  UNL     1      19.939   4.993  24.504  0.00  0.00    -0.267 OA
ATOM      2  C1  UNL     1      20.583   4.326  23.652  0.00  0.00    +0.283 C 
ATOM      3  N1  UNL     1      20.720   2.894  23.763  0.00  0.00    -0.299 N 
ATOM      4  H1  UNL     1      21.267   2.422  23.007  0.00  0.00    +0.150 HD
ENDROOT
BRANCH   2   5
ATOM      5  C12 UNL     1      21.203   5.034  22.521  0.00  0.00    +0.222 A 
ATOM      6  C13 UNL     1      22.212   5.972  22.594  0.00  0.00    +0.087 A 
ATOM      7  C14 UNL     1      22.427   6.319  21.273  0.00  0.00    +0.132 A 
ATOM      8  N7  UNL     1      21.590   5.619  20.481  0.00  0.00    -0.076 NA
ATOM      9  O2  UNL     1      20.874   4.861  21.262  0.00  0.00    -0.349 OA
BRANCH   7  10
ATOM     10  C15 UNL     1      23.413   7.298  20.785  0.00  0.00    +0.092 A 
ATOM     11  C16 UNL     1      24.623   7.506  21.468  0.00  0.00    +0.030 A 
ATOM     12  C17 UNL     1      25.535   8.443  20.977  0.00  0.00    +0.004 A 
ATOM     13  C18 UNL     1      25.239   9.161  19.817  0.00  0.00    +0.020 A 
ATOM     14  C19 UNL     1      24.028   8.929  19.163  0.00  0.00    +0.111 A 
ATOM     15  N6  UNL     1      23.152   8.014  19.655  0.00  0.00    -0.253 NA
ENDBRANCH   7  10
ENDBRANCH   2   5
BRANCH   3  16
ATOM     16  C2  UNL     1      20.190   1.998  24.810  0.00  0.00    +0.060 C 
ATOM     17  C10 UNL     1      18.680   1.799  24.876  0.00  0.00    +0.033 C 
ATOM     18  C11 UNL     1      19.582   0.672  24.368  0.00  0.00    +0.033 C 
BRANCH  16  19
ATOM     19  C3  UNL     1      20.926   1.998  26.125  0.00  0.00    -0.023 A 
ATOM     20  C4  UNL     1      22.206   2.563  26.216  0.00  0.00    +0.006 A 
ATOM     21  C5  UNL     1      22.871   2.600  27.442  0.00  0.00    +0.001 A 
ATOM     22  C6  UNL     1      22.261   2.086  28.590  0.00  0.00    +0.012 A 
ATOM     23  C7  UNL     1      20.970   1.536  28.520  0.00  0.00    +0.023 A 
ATOM     24  C9  UNL     1      20.305   1.502  27.282  0.00  0.00    +0.017 A 
BRANCH  23  25
ATOM     25  C8  UNL     1      20.318   1.003  29.734  0.00  0.00    +0.204 A 
ATOM     26  N2  UNL     1      19.022   1.201  30.056  0.00  0.00    -0.108 NA
ATOM     27  N3  UNL     1      18.853   0.564  31.202  0.00  0.00    -0.049 NA
ATOM     28  N4  UNL     1      19.995   0.005  31.559  0.00  0.00    -0.176 N 
ATOM     29  N5  UNL     1      20.938   0.254  30.668  0.00  0.00    -0.133 NA
ATOM     30  H5  UNL     1      20.133  -0.559  32.426  0.00  0.00    +0.214 HD
ENDBRANCH  23  25
ENDBRANCH  16  19
ENDBRANCH   3  16
TORSDOF 5
ENDMDL
MODEL 9
REMARK VINA RESULT:    -6.789     12.834     16.295
REMARK INTER + INTRA:          -9.660
REMARK INTER:                  -8.840
REMARK INTRA:                  -0.820
REMARK UNBOUND:                -0.887
REMARK  Name = /home/qwerty/github/datacon2025hack/step_04_hit_selection/docking/ligands/lig_480.pdb
REMARK  5 active torsions:
REMARK  status: ('A' for Active; 'I' for Inactive)
REMARK    1  A    between atoms: C1_2  and  C12_18
REMARK    2  A    between atoms: N1_3  and  C2_4
REMARK    3  A    between atoms: C2_4  and  C3_5
REMARK    4  A    between atoms: C7_9  and  C8_10
REMARK    5  A    between atoms: C14_20  and  C15_21
REMARK                            x       y       z     vdW  Elec       q    Type
REMARK                         _______ _______ _______ _____ _____    ______ ____
ROOT
ATOM      1  O1  UNL     1       9.355   6.950  20.237  0.00  0.00    -0.267 OA
ATOM      2  C1  UNL     1      10.597   6.869  20.428  0.00  0.00    +0.283 C 
ATOM      3  N1  UNL     1      11.413   8.048  20.587  0.00  0.00    -0.299 N 
ATOM      4  H1  UNL     1      12.433   7.886  20.746  0.00  0.00    +0.150 HD
ENDROOT
BRANCH   2   5
ATOM      5  C12 UNL     1      11.219   5.537  20.490  0.00  0.00    +0.222 A 
ATOM      6  C13 UNL     1      12.549   5.242  20.277  0.00  0.00    +0.087 A 
ATOM      7  C14 UNL     1      12.609   3.872  20.452  0.00  0.00    +0.132 A 
ATOM      8  N7  UNL     1      11.381   3.402  20.750  0.00  0.00    -0.076 NA
ATOM      9  O2  UNL     1      10.576   4.426  20.764  0.00  0.00    -0.349 OA
BRANCH   7  10
ATOM     10  C15 UNL     1      13.817   3.037  20.336  0.00  0.00    +0.092 A 
ATOM     11  C16 UNL     1      15.050   3.598  19.966  0.00  0.00    +0.030 A 
ATOM     12  C17 UNL     1      16.175   2.775  19.866  0.00  0.00    +0.004 A 
ATOM     13  C18 UNL     1      16.065   1.410  20.133  0.00  0.00    +0.020 A 
ATOM     14  C19 UNL     1      14.824   0.885  20.498  0.00  0.00    +0.111 A 
ATOM     15  N6  UNL     1      13.740   1.700  20.590  0.00  0.00    -0.253 NA
ENDBRANCH   7  10
ENDBRANCH   2   5
BRANCH   3  16
ATOM     16  C2  UNL     1      10.999   9.465  20.552  0.00  0.00    +0.060 C 
ATOM     17  C10 UNL     1      12.084  10.516  20.345  0.00  0.00    +0.033 C 
ATOM     18  C11 UNL     1      11.095  10.199  19.220  0.00  0.00    +0.033 C 
BRANCH  16  19
ATOM     19  C3  UNL     1       9.855   9.849  21.454  0.00  0.00    -0.023 A 
ATOM     20  C4  UNL     1       8.745  10.528  20.933  0.00  0.00    +0.006 A 
ATOM     21  C5  UNL     1       7.667  10.849  21.760  0.00  0.00    +0.001 A 
ATOM     22  C6  UNL     1       7.681  10.483  23.108  0.00  0.00    +0.012 A 
ATOM     23  C7  UNL     1       8.776   9.782  23.641  0.00  0.00    +0.023 A 
ATOM     24  C9  UNL     1       9.859   9.462  22.803  0.00  0.00    +0.017 A 
BRANCH  23  25
ATOM     25  C8  UNL     1       8.787   9.383  25.064  0.00  0.00    +0.204 A 
ATOM     26  N2  UNL     1       9.782   8.688  25.655  0.00  0.00    -0.108 NA
ATOM     27  N3  UNL     1       9.399   8.545  26.912  0.00  0.00    -0.049 NA
ATOM     28  N4  UNL     1       8.224   9.127  27.075  0.00  0.00    -0.176 N 
ATOM     29  N5  UNL     1       7.806   9.664  25.943  0.00  0.00    -0.133 NA
ATOM     30  H5  UNL     1       7.699   9.159  27.976  0.00  0.00    +0.214 HD
ENDBRANCH  23  25
ENDBRANCH  16  19
ENDBRANCH   3  16
TORSDOF 5
ENDMDL
