MODEL 1
REMARK VINA RESULT:    -7.171      0.000      0.000
REMARK INTER + INTRA:          -9.915
REMARK INTER:                  -9.267
REMARK INTRA:                  -0.648
REMARK UNBOUND:                -0.648
REMARK  Name = /home/qwerty/github/datacon2025hack/step_04_hit_selection/docking/ligands/lig_64.pdb
REMARK  5 active torsions:
REMARK  status: ('A' for Active; 'I' for Inactive)
REMARK    1  A    between atoms: C1_2  and  C2_3
REMARK    2  A    between atoms: C2_3  and  C3_4
REMARK    3  A    between atoms: N1_11  and  C9_12
REMARK    4  A    between atoms: C9_12  and  C10_13
REMARK    5  A    between atoms: C13_17  and  C14_19
REMARK                            x       y       z     vdW  Elec       q    Type
REMARK                         _______ _______ _______ _____ _____    ______ ____
ROOT
ATOM      1  C9  UNL     1      21.659   5.270  30.960  0.00  0.00    +0.126 C 
ENDROOT
BRANCH   1   2
ATOM      2  C10 UNL     1      20.893   3.985  31.321  0.00  0.00    +0.095 C 
ATOM      3  C11 UNL     1      21.033   3.585  32.760  0.00  0.00    +0.043 C 
ATOM      4  C12 UNL     1      21.692   2.380  32.176  0.00  0.00    +0.110 C 
ATOM      5  N2  UNL     1      21.556   2.789  30.763  0.00  0.00    -0.293 N 
ATOM      6  C13 UNL     1      21.969   2.344  29.465  0.00  0.00    +0.247 C 
ATOM      7  O2  UNL     1      21.740   3.078  28.468  0.00  0.00    -0.270 OA
BRANCH   6   8
ATOM      8  C14 UNL     1      22.699   1.073  29.278  0.00  0.00    +0.037 A 
ATOM      9  C15 UNL     1      24.103   1.057  29.353  0.00  0.00    +0.016 A 
ATOM     10  C16 UNL     1      24.808  -0.138  29.177  0.00  0.00    +0.039 A 
ATOM     11  C17 UNL     1      24.120  -1.324  28.912  0.00  0.00    +0.123 A 
ATOM     12  F2  UNL     1      24.805  -2.482  28.738  0.00  0.00    -0.205 F 
ATOM     13  C18 UNL     1      22.726  -1.316  28.817  0.00  0.00    +0.039 A 
ATOM     14  C19 UNL     1      22.017  -0.123  28.994  0.00  0.00    +0.016 A 
ENDBRANCH   6   8
ENDBRANCH   1   2
BRANCH   1  17
ATOM     15  O1  UNL     1      23.306   7.612  31.004  0.00  0.00    -0.275 OA
ATOM     16  C1  UNL     1      23.395   6.818  31.979  0.00  0.00    +0.217 C 
ATOM     17  N1  UNL     1      22.615   5.614  32.010  0.00  0.00    -0.313 N 
ATOM     18  H7  UNL     1      22.769   4.930  32.785  0.00  0.00    +0.149 HD
BRANCH  16  19
ATOM     19  C2  UNL     1      24.365   7.112  33.082  0.00  0.00    +0.130 C 
BRANCH  19  20
ATOM     20  C3  UNL     1      23.635   7.239  34.391  0.00  0.00    -0.038 A 
ATOM     21  C4  UNL     1      23.863   6.312  35.422  0.00  0.00    +0.007 A 
ATOM     22  C5  UNL     1      23.161   6.411  36.627  0.00  0.00    +0.038 A 
ATOM     23  C6  UNL     1      22.221   7.429  36.808  0.00  0.00    +0.123 A 
ATOM     24  F1  UNL     1      21.540   7.521  37.977  0.00  0.00    -0.205 F 
ATOM     25  C7  UNL     1      21.980   8.348  35.783  0.00  0.00    +0.038 A 
ATOM     26  C8  UNL     1      22.680   8.254  34.577  0.00  0.00    +0.007 A 
ENDBRANCH  19  20
ENDBRANCH  16  19
ENDBRANCH   1  17
TORSDOF 5
ENDMDL
MODEL 2
REMARK VINA RESULT:    -6.480     12.794     14.198
REMARK INTER + INTRA:          -9.022
REMARK INTER:                  -8.242
REMARK INTRA:                  -0.779
REMARK UNBOUND:                -0.648
REMARK  Name = /home/qwerty/github/datacon2025hack/step_04_hit_selection/docking/ligands/lig_64.pdb
REMARK  5 active torsions:
REMARK  status: ('A' for Active; 'I' for Inactive)
REMARK    1  A    between atoms: C1_2  and  C2_3
REMARK    2  A    between atoms: C2_3  and  C3_4
REMARK    3  A    between atoms: N1_11  and  C9_12
REMARK    4  A    between atoms: C9_12  and  C10_13
REMARK    5  A    between atoms: C13_17  and  C14_19
REMARK                            x       y       z     vdW  Elec       q    Type
REMARK                         _______ _______ _______ _____ _____    ______ ____
ROOT
ATOM      1  C9  UNL     1      22.221  15.677  20.818  0.00  0.00    +0.126 C 
ENDROOT
BRANCH   1   2
ATOM      2  C10 UNL     1      20.749  15.472  21.214  0.00  0.00    +0.095 C 
ATOM      3  C11 UNL     1      20.553  15.167  22.670  0.00  0.00    +0.043 C 
ATOM      4  C12 UNL     1      20.027  13.873  22.145  0.00  0.00    +0.110 C 
ATOM      5  N2  UNL     1      20.233  14.181  20.715  0.00  0.00    -0.293 N 
ATOM      6  C13 UNL     1      20.127  13.530  19.444  0.00  0.00    +0.247 C 
ATOM      7  O2  UNL     1      20.532  14.132  18.414  0.00  0.00    -0.270 OA
BRANCH   6   8
ATOM      8  C14 UNL     1      19.602  12.154  19.319  0.00  0.00    +0.037 A 
ATOM      9  C15 UNL     1      18.254  11.891  19.622  0.00  0.00    +0.016 A 
ATOM     10  C16 UNL     1      17.742  10.595  19.510  0.00  0.00    +0.039 A 
ATOM     11  C17 UNL     1      18.573   9.547  19.108  0.00  0.00    +0.123 A 
ATOM     12  F2  UNL     1      18.076   8.289  19.003  0.00  0.00    -0.205 F 
ATOM     13  C18 UNL     1      19.918   9.793  18.822  0.00  0.00    +0.039 A 
ATOM     14  C19 UNL     1      20.434  11.089  18.931  0.00  0.00    +0.016 A 
ENDBRANCH   6   8
ENDBRANCH   1   2
BRANCH   1  17
ATOM     15  O1  UNL     1      24.046  13.791  21.965  0.00  0.00    -0.275 OA
ATOM     16  C1  UNL     1      23.958  14.923  22.511  0.00  0.00    +0.217 C 
ATOM     17  N1  UNL     1      23.047  15.908  22.002  0.00  0.00    -0.313 N 
ATOM     18  H7  UNL     1      22.930  16.807  22.522  0.00  0.00    +0.149 HD
BRANCH  16  19
ATOM     19  C2  UNL     1      24.773  15.216  23.734  0.00  0.00    +0.130 C 
BRANCH  19  20
ATOM     20  C3  UNL     1      23.885  15.264  24.946  0.00  0.00    -0.038 A 
ATOM     21  C4  UNL     1      23.258  16.466  25.318  0.00  0.00    +0.007 A 
ATOM     22  C5  UNL     1      22.458  16.519  26.463  0.00  0.00    +0.038 A 
ATOM     23  C6  UNL     1      22.286  15.377  27.250  0.00  0.00    +0.123 A 
ATOM     24  F1  UNL     1      21.510  15.431  28.362  0.00  0.00    -0.205 F 
ATOM     25  C7  UNL     1      22.915  14.180  26.893  0.00  0.00    +0.038 A 
ATOM     26  C8  UNL     1      23.715  14.123  25.749  0.00  0.00    +0.007 A 
ENDBRANCH  19  20
ENDBRANCH  16  19
ENDBRANCH   1  17
TORSDOF 5
ENDMDL
MODEL 3
REMARK VINA RESULT:    -6.410     15.564     16.740
REMARK INTER + INTRA:          -8.931
REMARK INTER:                  -7.999
REMARK INTRA:                  -0.933
REMARK UNBOUND:                -0.648
REMARK  Name = /home/qwerty/github/datacon2025hack/step_04_hit_selection/docking/ligands/lig_64.pdb
REMARK  5 active torsions:
REMARK  status: ('A' for Active; 'I' for Inactive)
REMARK    1  A    between atoms: C1_2  and  C2_3
REMARK    2  A    between atoms: C2_3  and  C3_4
REMARK    3  A    between atoms: N1_11  and  C9_12
REMARK    4  A    between atoms: C9_12  and  C10_13
REMARK    5  A    between atoms: C13_17  and  C14_19
REMARK                            x       y       z     vdW  Elec       q    Type
REMARK                         _______ _______ _______ _____ _____    ______ ____
ROOT
ATOM      1  C9  UNL     1       8.674   7.936  27.539  0.00  0.00    +0.126 C 
ENDROOT
BRANCH   1   2
ATOM      2  C10 UNL     1       7.890   7.450  26.308  0.00  0.00    +0.095 C 
ATOM      3  C11 UNL     1       8.258   6.063  25.869  0.00  0.00    +0.043 C 
ATOM      4  C12 UNL     1       8.705   6.766  24.630  0.00  0.00    +0.110 C 
ATOM      5  N2  UNL     1       8.347   8.128  25.077  0.00  0.00    -0.293 N 
ATOM      6  C13 UNL     1       8.481   9.482  24.630  0.00  0.00    +0.247 C 
ATOM      7  O2  UNL     1       8.132  10.416  25.399  0.00  0.00    -0.270 OA
BRANCH   6   8
ATOM      8  C14 UNL     1       9.064   9.808  23.312  0.00  0.00    +0.037 A 
ATOM      9  C15 UNL     1       8.218  10.077  22.221  0.00  0.00    +0.016 A 
ATOM     10  C16 UNL     1       8.755  10.386  20.967  0.00  0.00    +0.039 A 
ATOM     11  C17 UNL     1      10.139  10.417  20.787  0.00  0.00    +0.123 A 
ATOM     12  F2  UNL     1      10.659  10.714  19.570  0.00  0.00    -0.205 F 
ATOM     13  C18 UNL     1      10.989  10.133  21.859  0.00  0.00    +0.039 A 
ATOM     14  C19 UNL     1      10.456   9.825  23.115  0.00  0.00    +0.016 A 
ENDBRANCH   6   8
ENDBRANCH   1   2
BRANCH   1  17
ATOM     15  O1  UNL     1       8.586   8.875  30.243  0.00  0.00    -0.275 OA
ATOM     16  C1  UNL     1       8.206   9.667  29.338  0.00  0.00    +0.217 C 
ATOM     17  N1  UNL     1       8.203   9.253  27.964  0.00  0.00    -0.313 N 
ATOM     18  H7  UNL     1       7.804   9.894  27.243  0.00  0.00    +0.149 HD
BRANCH  16  19
ATOM     19  C2  UNL     1       7.703  11.027  29.713  0.00  0.00    +0.130 C 
BRANCH  19  20
ATOM     20  C3  UNL     1       8.666  12.081  29.239  0.00  0.00    -0.038 A 
ATOM     21  C4  UNL     1       8.343  12.890  28.136  0.00  0.00    +0.007 A 
ATOM     22  C5  UNL     1       9.251  13.848  27.675  0.00  0.00    +0.038 A 
ATOM     23  C6  UNL     1      10.490  14.000  28.306  0.00  0.00    +0.123 A 
ATOM     24  F1  UNL     1      11.369  14.929  27.856  0.00  0.00    -0.205 F 
ATOM     25  C7  UNL     1      10.822  13.192  29.397  0.00  0.00    +0.038 A 
ATOM     26  C8  UNL     1       9.917  12.233  29.861  0.00  0.00    +0.007 A 
ENDBRANCH  19  20
ENDBRANCH  16  19
ENDBRANCH   1  17
TORSDOF 5
ENDMDL
MODEL 4
REMARK VINA RESULT:    -6.384      3.095      8.571
REMARK INTER + INTRA:          -8.898
REMARK INTER:                  -8.326
REMARK INTRA:                  -0.572
REMARK UNBOUND:                -0.648
REMARK  Name = /home/qwerty/github/datacon2025hack/step_04_hit_selection/docking/ligands/lig_64.pdb
REMARK  5 active torsions:
REMARK  status: ('A' for Active; 'I' for Inactive)
REMARK    1  A    between atoms: C1_2  and  C2_3
REMARK    2  A    between atoms: C2_3  and  C3_4
REMARK    3  A    between atoms: N1_11  and  C9_12
REMARK    4  A    between atoms: C9_12  and  C10_13
REMARK    5  A    between atoms: C13_17  and  C14_19
REMARK                            x       y       z     vdW  Elec       q    Type
REMARK                         _______ _______ _______ _____ _____    ______ ____
ROOT
ATOM      1  C9  UNL     1      21.362   2.550  32.192  0.00  0.00    +0.126 C 
ENDROOT
BRANCH   1   2
ATOM      2  C10 UNL     1      20.650   3.859  31.809  0.00  0.00    +0.095 C 
ATOM      3  C11 UNL     1      20.481   4.041  30.330  0.00  0.00    +0.043 C 
ATOM      4  C12 UNL     1      21.364   5.223  30.554  0.00  0.00    +0.110 C 
ATOM      5  N2  UNL     1      21.532   5.028  32.009  0.00  0.00    -0.293 N 
ATOM      6  C13 UNL     1      22.278   5.589  33.095  0.00  0.00    +0.247 C 
ATOM      7  O2  UNL     1      22.227   5.030  34.223  0.00  0.00    -0.270 OA
BRANCH   6   8
ATOM      8  C14 UNL     1      23.141   6.774  32.911  0.00  0.00    +0.037 A 
ATOM      9  C15 UNL     1      22.590   7.970  32.418  0.00  0.00    +0.016 A 
ATOM     10  C16 UNL     1      23.395   9.099  32.238  0.00  0.00    +0.039 A 
ATOM     11  C17 UNL     1      24.758   9.042  32.536  0.00  0.00    +0.123 A 
ATOM     12  F2  UNL     1      25.538  10.138  32.357  0.00  0.00    -0.205 F 
ATOM     13  C18 UNL     1      25.320   7.854  33.008  0.00  0.00    +0.039 A 
ATOM     14  C19 UNL     1      24.518   6.722  33.191  0.00  0.00    +0.016 A 
ENDBRANCH   6   8
ENDBRANCH   1   2
BRANCH   1  17
ATOM     15  O1  UNL     1      20.337   0.271  30.794  0.00  0.00    -0.275 OA
ATOM     16  C1  UNL     1      21.392   0.800  30.352  0.00  0.00    +0.217 C 
ATOM     17  N1  UNL     1      21.973   1.930  31.018  0.00  0.00    -0.313 N 
ATOM     18  H7  UNL     1      22.892   2.298  30.684  0.00  0.00    +0.149 HD
BRANCH  16  19
ATOM     19  C2  UNL     1      22.069   0.204  29.156  0.00  0.00    +0.130 C 
BRANCH  19  20
ATOM     20  C3  UNL     1      21.862   1.084  27.954  0.00  0.00    -0.038 A 
ATOM     21  C4  UNL     1      20.850   0.786  27.026  0.00  0.00    +0.007 A 
ATOM     22  C5  UNL     1      20.676   1.585  25.892  0.00  0.00    +0.038 A 
ATOM     23  C6  UNL     1      21.517   2.681  25.672  0.00  0.00    +0.123 A 
ATOM     24  F1  UNL     1      21.348   3.454  24.570  0.00  0.00    -0.205 F 
ATOM     25  C7  UNL     1      22.532   2.977  26.586  0.00  0.00    +0.038 A 
ATOM     26  C8  UNL     1      22.708   2.180  27.721  0.00  0.00    +0.007 A 
ENDBRANCH  19  20
ENDBRANCH  16  19
ENDBRANCH   1  17
TORSDOF 5
ENDMDL
MODEL 5
REMARK VINA RESULT:    -6.298      5.432      7.808
REMARK INTER + INTRA:          -8.787
REMARK INTER:                  -8.108
REMARK INTRA:                  -0.679
REMARK UNBOUND:                -0.648
REMARK  Name = /home/qwerty/github/datacon2025hack/step_04_hit_selection/docking/ligands/lig_64.pdb
REMARK  5 active torsions:
REMARK  status: ('A' for Active; 'I' for Inactive)
REMARK    1  A    between atoms: C1_2  and  C2_3
REMARK    2  A    between atoms: C2_3  and  C3_4
REMARK    3  A    between atoms: N1_11  and  C9_12
REMARK    4  A    between atoms: C9_12  and  C10_13
REMARK    5  A    between atoms: C13_17  and  C14_19
REMARK                            x       y       z     vdW  Elec       q    Type
REMARK                         _______ _______ _______ _____ _____    ______ ____
ROOT
ATOM      1  C9  UNL     1      20.300   3.238  25.340  0.00  0.00    +0.126 C 
ENDROOT
BRANCH   1   2
ATOM      2  C10 UNL     1      19.888   2.486  24.063  0.00  0.00    +0.095 C 
ATOM      3  C11 UNL     1      18.969   3.270  23.173  0.00  0.00    +0.043 C 
ATOM      4  C12 UNL     1      18.017   2.162  23.481  0.00  0.00    +0.110 C 
ATOM      5  N2  UNL     1      18.928   1.404  24.363  0.00  0.00    -0.293 N 
ATOM      6  C13 UNL     1      18.896   0.255  25.217  0.00  0.00    +0.247 C 
ATOM      7  O2  UNL     1      19.903  -0.005  25.928  0.00  0.00    -0.270 OA
BRANCH   6   8
ATOM      8  C14 UNL     1      17.696  -0.600  25.321  0.00  0.00    +0.037 A 
ATOM      9  C15 UNL     1      16.664  -0.252  26.212  0.00  0.00    +0.016 A 
ATOM     10  C16 UNL     1      15.523  -1.052  26.321  0.00  0.00    +0.039 A 
ATOM     11  C17 UNL     1      15.405  -2.213  25.554  0.00  0.00    +0.123 A 
ATOM     12  F2  UNL     1      14.298  -2.990  25.663  0.00  0.00    -0.205 F 
ATOM     13  C18 UNL     1      16.431  -2.578  24.679  0.00  0.00    +0.039 A 
ATOM     14  C19 UNL     1      17.574  -1.780  24.565  0.00  0.00    +0.016 A 
ENDBRANCH   6   8
ENDBRANCH   1   2
BRANCH   1  17
ATOM     15  O1  UNL     1      21.826   4.139  27.590  0.00  0.00    -0.275 OA
ATOM     16  C1  UNL     1      21.860   2.909  27.317  0.00  0.00    +0.217 C 
ATOM     17  N1  UNL     1      21.137   2.393  26.190  0.00  0.00    -0.313 N 
ATOM     18  H7  UNL     1      21.249   1.387  25.934  0.00  0.00    +0.149 HD
BRANCH  16  19
ATOM     19  C2  UNL     1      22.707   1.994  28.147  0.00  0.00    +0.130 C 
BRANCH  19  20
ATOM     20  C3  UNL     1      22.004   1.666  29.436  0.00  0.00    -0.038 A 
ATOM     21  C4  UNL     1      22.234   2.444  30.584  0.00  0.00    +0.007 A 
ATOM     22  C5  UNL     1      21.605   2.121  31.790  0.00  0.00    +0.038 A 
ATOM     23  C6  UNL     1      20.751   1.017  31.862  0.00  0.00    +0.123 A 
ATOM     24  F1  UNL     1      20.143   0.705  33.033  0.00  0.00    -0.205 F 
ATOM     25  C7  UNL     1      20.526   0.232  30.726  0.00  0.00    +0.038 A 
ATOM     26  C8  UNL     1      21.153   0.552  29.518  0.00  0.00    +0.007 A 
ENDBRANCH  19  20
ENDBRANCH  16  19
ENDBRANCH   1  17
TORSDOF 5
ENDMDL
MODEL 6
REMARK VINA RESULT:    -6.207      7.261     10.291
REMARK INTER + INTRA:          -8.669
REMARK INTER:                  -7.938
REMARK INTRA:                  -0.731
REMARK UNBOUND:                -0.648
REMARK  Name = /home/qwerty/github/datacon2025hack/step_04_hit_selection/docking/ligands/lig_64.pdb
REMARK  5 active torsions:
REMARK  status: ('A' for Active; 'I' for Inactive)
REMARK    1  A    between atoms: C1_2  and  C2_3
REMARK    2  A    between atoms: C2_3  and  C3_4
REMARK    3  A    between atoms: N1_11  and  C9_12
REMARK    4  A    between atoms: C9_12  and  C10_13
REMARK    5  A    between atoms: C13_17  and  C14_19
REMARK                            x       y       z     vdW  Elec       q    Type
REMARK                         _______ _______ _______ _____ _____    ______ ____
ROOT
ATOM      1  C9  UNL     1      21.066  10.915  30.090  0.00  0.00    +0.126 C 
ENDROOT
BRANCH   1   2
ATOM      2  C10 UNL     1      20.487  12.339  30.149  0.00  0.00    +0.095 C 
ATOM      3  C11 UNL     1      19.076  12.437  29.650  0.00  0.00    +0.043 C 
ATOM      4  C12 UNL     1      19.692  13.315  28.612  0.00  0.00    +0.110 C 
ATOM      5  N2  UNL     1      21.080  13.203  29.107  0.00  0.00    -0.293 N 
ATOM      6  C13 UNL     1      22.400  13.605  28.723  0.00  0.00    +0.247 C 
ATOM      7  O2  UNL     1      23.384  13.186  29.388  0.00  0.00    -0.270 OA
BRANCH   6   8
ATOM      8  C14 UNL     1      22.636  14.457  27.538  0.00  0.00    +0.037 A 
ATOM      9  C15 UNL     1      23.454  13.989  26.494  0.00  0.00    +0.016 A 
ATOM     10  C16 UNL     1      23.688  14.784  25.368  0.00  0.00    +0.039 A 
ATOM     11  C17 UNL     1      23.119  16.056  25.278  0.00  0.00    +0.123 A 
ATOM     12  F2  UNL     1      23.349  16.827  24.185  0.00  0.00    -0.205 F 
ATOM     13  C18 UNL     1      22.320  16.538  26.317  0.00  0.00    +0.039 A 
ATOM     14  C19 UNL     1      22.082  15.746  27.446  0.00  0.00    +0.016 A 
ENDBRANCH   6   8
ENDBRANCH   1   2
BRANCH   1  17
ATOM     15  O1  UNL     1      22.424   8.483  30.754  0.00  0.00    -0.275 OA
ATOM     16  C1  UNL     1      22.920   9.562  31.177  0.00  0.00    +0.217 C 
ATOM     17  N1  UNL     1      22.278  10.815  30.900  0.00  0.00    -0.313 N 
ATOM     18  H7  UNL     1      22.659  11.687  31.332  0.00  0.00    +0.149 HD
BRANCH  16  19
ATOM     19  C2  UNL     1      24.157   9.524  32.021  0.00  0.00    +0.130 C 
BRANCH  19  20
ATOM     20  C3  UNL     1      24.001   8.510  33.120  0.00  0.00    -0.038 A 
ATOM     21  C4  UNL     1      24.836   7.381  33.165  0.00  0.00    +0.007 A 
ATOM     22  C5  UNL     1      24.671   6.421  34.169  0.00  0.00    +0.038 A 
ATOM     23  C6  UNL     1      23.665   6.576  35.128  0.00  0.00    +0.123 A 
ATOM     24  F1  UNL     1      23.506   5.644  36.099  0.00  0.00    -0.205 F 
ATOM     25  C7  UNL     1      22.823   7.692  35.083  0.00  0.00    +0.038 A 
ATOM     26  C8  UNL     1      22.986   8.654  34.081  0.00  0.00    +0.007 A 
ENDBRANCH  19  20
ENDBRANCH  16  19
ENDBRANCH   1  17
TORSDOF 5
ENDMDL
MODEL 7
REMARK VINA RESULT:    -6.127     13.285     16.169
REMARK INTER + INTRA:          -8.566
REMARK INTER:                  -7.671
REMARK INTRA:                  -0.895
REMARK UNBOUND:                -0.648
REMARK  Name = /home/qwerty/github/datacon2025hack/step_04_hit_selection/docking/ligands/lig_64.pdb
REMARK  5 active torsions:
REMARK  status: ('A' for Active; 'I' for Inactive)
REMARK    1  A    between atoms: C1_2  and  C2_3
REMARK    2  A    between atoms: C2_3  and  C3_4
REMARK    3  A    between atoms: N1_11  and  C9_12
REMARK    4  A    between atoms: C9_12  and  C10_13
REMARK    5  A    between atoms: C13_17  and  C14_19
REMARK                            x       y       z     vdW  Elec       q    Type
REMARK                         _______ _______ _______ _____ _____    ______ ____
ROOT
ATOM      1  C9  UNL     1      13.538  12.635  30.015  0.00  0.00    +0.126 C 
ENDROOT
BRANCH   1   2
ATOM      2  C10 UNL     1      13.946  13.621  31.125  0.00  0.00    +0.095 C 
ATOM      3  C11 UNL     1      15.330  13.389  31.656  0.00  0.00    +0.043 C 
ATOM      4  C12 UNL     1      14.602  13.105  32.927  0.00  0.00    +0.110 C 
ATOM      5  N2  UNL     1      13.243  13.326  32.390  0.00  0.00    -0.293 N 
ATOM      6  C13 UNL     1      11.881  13.199  32.812  0.00  0.00    +0.247 C 
ATOM      7  O2  UNL     1      10.961  13.382  31.971  0.00  0.00    -0.270 OA
BRANCH   6   8
ATOM      8  C14 UNL     1      11.531  12.810  34.194  0.00  0.00    +0.037 A 
ATOM      9  C15 UNL     1      11.014  13.771  35.081  0.00  0.00    +0.016 A 
ATOM     10  C16 UNL     1      10.679  13.418  36.392  0.00  0.00    +0.039 A 
ATOM     11  C17 UNL     1      10.870  12.107  36.835  0.00  0.00    +0.123 A 
ATOM     12  F2  UNL     1      10.548  11.767  38.108  0.00  0.00    -0.205 F 
ATOM     13  C18 UNL     1      11.401  11.149  35.968  0.00  0.00    +0.039 A 
ATOM     14  C19 UNL     1      11.735  11.497  34.655  0.00  0.00    +0.016 A 
ENDBRANCH   6   8
ENDBRANCH   1   2
BRANCH   1  17
ATOM     15  O1  UNL     1      13.192  13.716  27.386  0.00  0.00    -0.275 OA
ATOM     16  C1  UNL     1      12.158  13.543  28.087  0.00  0.00    +0.217 C 
ATOM     17  N1  UNL     1      12.261  13.026  29.421  0.00  0.00    -0.313 N 
ATOM     18  H7  UNL     1      11.401  12.971  30.012  0.00  0.00    +0.149 HD
BRANCH  16  19
ATOM     19  C2  UNL     1      10.821  13.933  27.535  0.00  0.00    +0.130 C 
BRANCH  19  20
ATOM     20  C3  UNL     1       9.772  12.953  27.983  0.00  0.00    -0.038 A 
ATOM     21  C4  UNL     1       8.877  13.296  29.012  0.00  0.00    +0.007 A 
ATOM     22  C5  UNL     1       7.923  12.373  29.451  0.00  0.00    +0.038 A 
ATOM     23  C6  UNL     1       7.859  11.102  28.874  0.00  0.00    +0.123 A 
ATOM     24  F1  UNL     1       6.934  10.208  29.303  0.00  0.00    -0.205 F 
ATOM     25  C7  UNL     1       8.753  10.750  27.858  0.00  0.00    +0.038 A 
ATOM     26  C8  UNL     1       9.709  11.670  27.416  0.00  0.00    +0.007 A 
ENDBRANCH  19  20
ENDBRANCH  16  19
ENDBRANCH   1  17
TORSDOF 5
ENDMDL
MODEL 8
REMARK VINA RESULT:    -6.084     11.970     13.150
REMARK INTER + INTRA:          -8.511
REMARK INTER:                  -7.711
REMARK INTRA:                  -0.800
REMARK UNBOUND:                -0.648
REMARK  Name = /home/qwerty/github/datacon2025hack/step_04_hit_selection/docking/ligands/lig_64.pdb
REMARK  5 active torsions:
REMARK  status: ('A' for Active; 'I' for Inactive)
REMARK    1  A    between atoms: C1_2  and  C2_3
REMARK    2  A    between atoms: C2_3  and  C3_4
REMARK    3  A    between atoms: N1_11  and  C9_12
REMARK    4  A    between atoms: C9_12  and  C10_13
REMARK    5  A    between atoms: C13_17  and  C14_19
REMARK                            x       y       z     vdW  Elec       q    Type
REMARK                         _______ _______ _______ _____ _____    ______ ____
ROOT
ATOM      1  C9  UNL     1      21.041  13.995  21.084  0.00  0.00    +0.126 C 
ENDROOT
BRANCH   1   2
ATOM      2  C10 UNL     1      21.692  13.632  19.738  0.00  0.00    +0.095 C 
ATOM      3  C11 UNL     1      20.707  13.221  18.684  0.00  0.00    +0.043 C 
ATOM      4  C12 UNL     1      21.431  11.919  18.767  0.00  0.00    +0.110 C 
ATOM      5  N2  UNL     1      22.391  12.332  19.812  0.00  0.00    -0.293 N 
ATOM      6  C13 UNL     1      23.419  11.754  20.624  0.00  0.00    +0.247 C 
ATOM      7  O2  UNL     1      23.948  12.453  21.529  0.00  0.00    -0.270 OA
BRANCH   6   8
ATOM      8  C14 UNL     1      23.837  10.346  20.458  0.00  0.00    +0.037 A 
ATOM      9  C15 UNL     1      22.908   9.312  20.668  0.00  0.00    +0.016 A 
ATOM     10  C16 UNL     1      23.289   7.975  20.516  0.00  0.00    +0.039 A 
ATOM     11  C17 UNL     1      24.603   7.657  20.165  0.00  0.00    +0.123 A 
ATOM     12  F2  UNL     1      24.972   6.360  20.021  0.00  0.00    -0.205 F 
ATOM     13  C18 UNL     1      25.539   8.676  19.971  0.00  0.00    +0.039 A 
ATOM     14  C19 UNL     1      25.162  10.015  20.121  0.00  0.00    +0.016 A 
ENDBRANCH   6   8
ENDBRANCH   1   2
BRANCH   1  17
ATOM     15  O1  UNL     1      20.348  15.985  23.023  0.00  0.00    -0.275 OA
ATOM     16  C1  UNL     1      21.567  15.684  22.906  0.00  0.00    +0.217 C 
ATOM     17  N1  UNL     1      21.986  14.711  21.939  0.00  0.00    -0.313 N 
ATOM     18  H7  UNL     1      23.008  14.540  21.801  0.00  0.00    +0.149 HD
BRANCH  16  19
ATOM     19  C2  UNL     1      22.584  16.390  23.749  0.00  0.00    +0.130 C 
BRANCH  19  20
ATOM     20  C3  UNL     1      22.697  15.721  25.091  0.00  0.00    -0.038 A 
ATOM     21  C4  UNL     1      22.026  16.254  26.205  0.00  0.00    +0.007 A 
ATOM     22  C5  UNL     1      22.156  15.651  27.460  0.00  0.00    +0.038 A 
ATOM     23  C6  UNL     1      22.962  14.519  27.614  0.00  0.00    +0.123 A 
ATOM     24  F1  UNL     1      23.087  13.937  28.832  0.00  0.00    -0.205 F 
ATOM     25  C7  UNL     1      23.640  13.990  26.512  0.00  0.00    +0.038 A 
ATOM     26  C8  UNL     1      23.513  14.589  25.255  0.00  0.00    +0.007 A 
ENDBRANCH  19  20
ENDBRANCH  16  19
ENDBRANCH   1  17
TORSDOF 5
ENDMDL
MODEL 9
REMARK VINA RESULT:    -6.074     14.511     16.513
REMARK INTER + INTRA:          -8.498
REMARK INTER:                  -7.844
REMARK INTRA:                  -0.654
REMARK UNBOUND:                -0.648
REMARK  Name = /home/qwerty/github/datacon2025hack/step_04_hit_selection/docking/ligands/lig_64.pdb
REMARK  5 active torsions:
REMARK  status: ('A' for Active; 'I' for Inactive)
REMARK    1  A    between atoms: C1_2  and  C2_3
REMARK    2  A    between atoms: C2_3  and  C3_4
REMARK    3  A    between atoms: N1_11  and  C9_12
REMARK    4  A    between atoms: C9_12  and  C10_13
REMARK    5  A    between atoms: C13_17  and  C14_19
REMARK                            x       y       z     vdW  Elec       q    Type
REMARK                         _______ _______ _______ _____ _____    ______ ____
ROOT
ATOM      1  C9  UNL     1      15.245   8.914  22.013  0.00  0.00    +0.126 C 
ENDROOT
BRANCH   1   2
ATOM      2  C10 UNL     1      16.363   8.124  21.310  0.00  0.00    +0.095 C 
ATOM      3  C11 UNL     1      17.315   7.457  22.257  0.00  0.00    +0.043 C 
ATOM      4  C12 UNL     1      18.308   8.373  21.622  0.00  0.00    +0.110 C 
ATOM      5  N2  UNL     1      17.358   9.029  20.700  0.00  0.00    -0.293 N 
ATOM      6  C13 UNL     1      17.337  10.107  19.758  0.00  0.00    +0.247 C 
ATOM      7  O2  UNL     1      16.240  10.443  19.239  0.00  0.00    -0.270 OA
BRANCH   6   8
ATOM      8  C14 UNL     1      18.560  10.864  19.419  0.00  0.00    +0.037 A 
ATOM      9  C15 UNL     1      18.561  12.268  19.509  0.00  0.00    +0.016 A 
ATOM     10  C16 UNL     1      19.710  12.998  19.192  0.00  0.00    +0.039 A 
ATOM     11  C17 UNL     1      20.865  12.336  18.769  0.00  0.00    +0.123 A 
ATOM     12  F2  UNL     1      21.979  13.046  18.458  0.00  0.00    -0.205 F 
ATOM     13  C18 UNL     1      20.870  10.944  18.659  0.00  0.00    +0.039 A 
ATOM     14  C19 UNL     1      19.723  10.209  18.977  0.00  0.00    +0.016 A 
ENDBRANCH   6   8
ENDBRANCH   1   2
BRANCH   1  17
ATOM     15  O1  UNL     1      12.569   9.695  22.670  0.00  0.00    -0.275 OA
ATOM     16  C1  UNL     1      12.905   9.728  21.456  0.00  0.00    +0.217 C 
ATOM     17  N1  UNL     1      14.223   9.328  21.054  0.00  0.00    -0.313 N 
ATOM     18  H7  UNL     1      14.450   9.283  20.035  0.00  0.00    +0.149 HD
BRANCH  16  19
ATOM     19  C2  UNL     1      11.897  10.135  20.424  0.00  0.00    +0.130 C 
BRANCH  19  20
ATOM     20  C3  UNL     1      10.588   9.442  20.680  0.00  0.00    -0.038 A 
ATOM     21  C4  UNL     1       9.510  10.150  21.241  0.00  0.00    +0.007 A 
ATOM     22  C5  UNL     1       8.303   9.499  21.508  0.00  0.00    +0.038 A 
ATOM     23  C6  UNL     1       8.164   8.136  21.228  0.00  0.00    +0.123 A 
ATOM     24  F1  UNL     1       6.992   7.506  21.490  0.00  0.00    -0.205 F 
ATOM     25  C7  UNL     1       9.235   7.423  20.680  0.00  0.00    +0.038 A 
ATOM     26  C8  UNL     1      10.444   8.071  20.410  0.00  0.00    +0.007 A 
ENDBRANCH  19  20
ENDBRANCH  16  19
ENDBRANCH   1  17
TORSDOF 5
ENDMDL
