REMARK  Name = /home/qwerty/github/datacon2025hack/step_04_hit_selection/docking/ligands/lig_42.pdb
REMARK  6 active torsions:
REMARK  status: ('A' for Active; 'I' for Inactive)
REMARK    1  A    between atoms: C1_1  and  C2_2
REMARK    2  A    between atoms: C2_2  and  C3_3
REMARK    3  A    between atoms: C3_3  and  C4_4
REMARK    4  A    between atoms: C3_3  and  C5_5
REMARK    5  A    between atoms: C9_11  and  C10_12
REMARK    6  A    between atoms: N2_14  and  C11_15
REMARK                            x       y       z     vdW  Elec       q    Type
REMARK                         _______ _______ _______ _____ _____    ______ ____
ROOT
ATOM      1  C10 UNL     1       0.506   0.865   1.860  0.00  0.00    +0.222 C 
ATOM      2  O2  UNL     1       1.528   0.892   2.602  0.00  0.00    -0.275 OA
ATOM      3  N2  UNL     1       0.329   1.868   0.848  0.00  0.00    -0.285 N 
ATOM      4  H17 UNL     1      -0.643   2.144   0.586  0.00  0.00    +0.155 HD
ENDROOT
BRANCH   3   5
ATOM      5  C11 UNL     1       1.419   2.631   0.313  0.00  0.00    +0.038 A 
ATOM      6  C12 UNL     1       1.299   4.027   0.191  0.00  0.00    +0.023 A 
ATOM      7  C13 UNL     1       2.351   4.790  -0.352  0.00  0.00    +0.002 A 
ATOM      8  C14 UNL     1       3.520   4.158  -0.806  0.00  0.00    +0.005 A 
ATOM      9  C15 UNL     1       3.615   2.773  -0.705  0.00  0.00    -0.024 A 
ATOM     10  C16 UNL     1       2.596   2.021  -0.157  0.00  0.00    -0.004 A 
ATOM     11  C17 UNL     1       2.895   0.569  -0.300  0.00  0.00    +0.144 C 
ATOM     12  N3  UNL     1       4.203   0.560  -0.956  0.00  0.00    -0.301 N 
ATOM     13  C18 UNL     1       4.888  -0.642  -1.333  0.00  0.00    +0.161 A 
ATOM     14  N4  UNL     1       4.370  -1.877  -1.155  0.00  0.00    -0.233 NA
ATOM     15  C19 UNL     1       5.212  -2.843  -1.615  0.00  0.00    +0.120 A 
ATOM     16  C20 UNL     1       6.406  -2.380  -2.161  0.00  0.00    +0.068 A 
ATOM     17  S1  UNL     1       6.401  -0.701  -2.070  0.00  0.00    -0.061 S 
ATOM     18  C21 UNL     1       4.702   1.906  -1.227  0.00  0.00    +0.142 C 
ENDBRANCH   3   5
BRANCH   1  25
ATOM     19  C5  UNL     1      -2.574  -2.535  -0.146  0.00  0.00    +0.218 C 
ATOM     20  O1  UNL     1      -1.860  -3.513  -0.507  0.00  0.00    -0.275 OA
ATOM     21  N1  UNL     1      -2.137  -1.727   0.958  0.00  0.00    -0.301 N 
ATOM     22  C6  UNL     1      -2.664  -1.971   2.305  0.00  0.00    +0.108 C 
ATOM     23  C7  UNL     1      -2.898  -0.639   3.036  0.00  0.00    +0.020 C 
ATOM     24  C8  UNL     1      -1.787   0.409   2.782  0.00  0.00    +0.016 C 
ATOM     25  C9  UNL     1      -0.545  -0.190   2.096  0.00  0.00    +0.093 C 
ATOM     26  C22 UNL     1      -0.936  -0.901   0.783  0.00  0.00    +0.120 C 
BRANCH  19  27
ATOM     27  C3  UNL     1      -3.843  -2.222  -0.919  0.00  0.00    +0.072 C 
ATOM     28  C4  UNL     1      -5.113  -2.537  -0.109  0.00  0.00    +0.017 C 
BRANCH  27  30
ATOM     29  C1  UNL     1      -4.198   0.338  -0.576  0.00  0.00    +0.004 C 
ATOM     30  C2  UNL     1      -3.849  -0.801  -1.542  0.00  0.00    +0.009 C 
ENDBRANCH  27  30
ENDBRANCH  19  27
ENDBRANCH   1  25
TORSDOF 4
