REMARK  Name = /home/qwerty/github/datacon2025hack/step_04_hit_selection/docking/ligands/lig_786.pdb
REMARK  5 active torsions:
REMARK  status: ('A' for Active; 'I' for Inactive)
REMARK    1  A    between atoms: C1_2  and  C14_19
REMARK    2  A    between atoms: N1_3  and  C2_4
REMARK    3  A    between atoms: C5_7  and  C6_8
REMARK    4  A    between atoms: C10_14  and  C11_15
REMARK    5  A    between atoms: C11_15  and  O3_16
REMARK                            x       y       z     vdW  Elec       q    Type
REMARK                         _______ _______ _______ _____ _____    ______ ____
ROOT
ATOM      1  C2  UNL     1       0.881  -0.079   0.178  0.00  0.00    +0.034 A 
ATOM      2  C3  UNL     1      -0.033  -0.152  -0.882  0.00  0.00    +0.024 A 
ATOM      3  C4  UNL     1      -1.369   0.214  -0.695  0.00  0.00    +0.015 A 
ATOM      4  C5  UNL     1      -1.813   0.664   0.558  0.00  0.00    +0.037 A 
ATOM      5  C12 UNL     1      -0.890   0.777   1.610  0.00  0.00    +0.015 A 
ATOM      6  C13 UNL     1       0.446   0.409   1.423  0.00  0.00    +0.024 A 
ENDROOT
BRANCH   4   7
ATOM      7  C6  UNL     1      -3.221   1.066   0.760  0.00  0.00    +0.247 C 
ATOM      8  O2  UNL     1      -3.478   2.045   1.512  0.00  0.00    -0.270 OA
ATOM      9  N2  UNL     1      -4.302   0.356   0.126  0.00  0.00    -0.292 N 
ATOM     10  C7  UNL     1      -4.290  -1.088  -0.061  0.00  0.00    +0.108 C 
ATOM     11  C8  UNL     1      -5.751  -1.503  -0.159  0.00  0.00    +0.021 C 
ATOM     12  C9  UNL     1      -6.515  -0.234  -0.519  0.00  0.00    +0.026 C 
ATOM     13  C10 UNL     1      -5.633   0.926  -0.043  0.00  0.00    +0.102 C 
BRANCH  13  14
ATOM     14  C11 UNL     1      -5.606   2.084  -1.051  0.00  0.00    +0.178 C 
BRANCH  14  15
ATOM     15  O3  UNL     1      -6.897   2.602  -1.217  0.00  0.00    -0.393 OA
ATOM     16  H13 UNL     1      -6.817   3.332  -1.884  0.00  0.00    +0.209 HD
ENDBRANCH  14  15
ENDBRANCH  13  14
ENDBRANCH   4   7
BRANCH   1  19
ATOM     17  O1  UNL     1       2.607  -1.546   1.982  0.00  0.00    -0.270 OA
ATOM     18  C1  UNL     1       3.114  -0.984   0.972  0.00  0.00    +0.248 C 
ATOM     19  N1  UNL     1       2.255  -0.442  -0.046  0.00  0.00    -0.282 N 
ATOM     20  H1  UNL     1       2.612  -0.417  -1.027  0.00  0.00    +0.155 HD
BRANCH  18  21
ATOM     21  C14 UNL     1       4.588  -0.937   0.827  0.00  0.00    +0.041 A 
ATOM     22  C15 UNL     1       5.409  -1.798   1.606  0.00  0.00    +0.017 A 
ATOM     23  C16 UNL     1       6.810  -1.760   1.485  0.00  0.00    +0.050 A 
ATOM     24  C17 UNL     1       7.360  -0.852   0.588  0.00  0.00    +0.166 A 
ATOM     25  C18 UNL     1       6.589  -0.019  -0.154  0.00  0.00    +0.167 A 
ATOM     26  C19 UNL     1       5.199  -0.024  -0.067  0.00  0.00    +0.062 A 
ATOM     27  O4  UNL     1       7.397   0.773  -0.946  0.00  0.00    -0.453 OA
ATOM     28  C20 UNL     1       8.761   0.414  -0.686  0.00  0.00    +0.466 C 
ATOM     29  O5  UNL     1       8.692  -0.627   0.299  0.00  0.00    -0.453 OA
ENDBRANCH  18  21
ENDBRANCH   1  19
TORSDOF 5
