REMARK  Name = /home/qwerty/github/datacon2025hack/step_04_hit_selection/docking/ligands/lig_249.pdb
REMARK  9 active torsions:
REMARK  status: ('A' for Active; 'I' for Inactive)
REMARK    1  A    between atoms: C2_2  and  C3_3
REMARK    2  A    between atoms: C3_3  and  C4_4
REMARK    3  A    between atoms: C3_3  and  C5_5
REMARK    4  A    between atoms: C3_3  and  C6_6
REMARK    5  A    between atoms: C6_6  and  C7_7
REMARK    6  A    between atoms: C11_13  and  C12_14
REMARK    7  A    between atoms: C12_14  and  N2_15
REMARK    8  A    between atoms: N2_15  and  C13_16
REMARK    9  A    between atoms: C14_17  and  C15_19
REMARK                            x       y       z     vdW  Elec       q    Type
REMARK                         _______ _______ _______ _____ _____    ______ ____
ROOT
ATOM      1  C7  UNL     1      -2.168  -1.092  -1.422  0.00  0.00    +0.217 C 
ATOM      2  O1  UNL     1      -2.873  -1.506  -2.382  0.00  0.00    -0.276 OA
ATOM      3  N1  UNL     1      -1.062  -0.205  -1.693  0.00  0.00    -0.297 N 
ATOM      4  C8  UNL     1      -0.954   0.490  -2.970  0.00  0.00    +0.108 C 
ATOM      5  C9  UNL     1       0.482   0.980  -3.061  0.00  0.00    +0.021 C 
ATOM      6  C10 UNL     1       1.255   0.116  -2.073  0.00  0.00    +0.025 C 
ATOM      7  C11 UNL     1       0.229  -0.284  -1.008  0.00  0.00    +0.093 C 
ENDROOT
BRANCH   1   8
ATOM      8  C6  UNL     1      -2.525  -1.540  -0.026  0.00  0.00    +0.106 C 
BRANCH   8   9
ATOM      9  C3  UNL     1      -3.758  -0.804   0.582  0.00  0.00    -0.009 C 
ATOM     10  C4  UNL     1      -5.002  -1.006  -0.313  0.00  0.00    +0.016 C 
ATOM     11  C5  UNL     1      -3.505   0.715   0.725  0.00  0.00    +0.016 C 
BRANCH   9  13
ATOM     12  C1  UNL     1      -3.202  -1.380   2.975  0.00  0.00    +0.004 C 
ATOM     13  C2  UNL     1      -4.070  -1.394   1.953  0.00  0.00    -0.028 C 
ENDBRANCH   9  13
ENDBRANCH   8   9
ENDBRANCH   1   8
BRANCH   7  14
ATOM     14  C12 UNL     1       0.272   0.686   0.192  0.00  0.00    +0.130 C 
BRANCH  14  15
ATOM     15  N2  UNL     1       1.492   0.480   0.984  0.00  0.00    -0.299 N 
ATOM     16  C13 UNL     1       1.607  -0.704   1.843  0.00  0.00    +0.132 C 
ATOM     17  C14 UNL     1       2.500   1.508   1.046  0.00  0.00    +0.247 C 
ATOM     18  O2  UNL     1       2.149   2.718   1.092  0.00  0.00    -0.270 OA
BRANCH  17  19
ATOM     19  C15 UNL     1       3.943   1.175   1.063  0.00  0.00    +0.040 A 
ATOM     20  C16 UNL     1       4.442   0.086   0.324  0.00  0.00    +0.033 A 
ATOM     21  C17 UNL     1       5.815  -0.179   0.327  0.00  0.00    +0.111 A 
ATOM     22  N3  UNL     1       6.662   0.609   1.039  0.00  0.00    -0.263 NA
ATOM     23  C18 UNL     1       6.210   1.671   1.759  0.00  0.00    +0.111 A 
ATOM     24  C19 UNL     1       4.845   1.982   1.776  0.00  0.00    +0.033 A 
ENDBRANCH  17  19
ENDBRANCH  14  15
ENDBRANCH   7  14
TORSDOF 6
