REMARK  Name = /home/qwerty/github/datacon2025hack/step_04_hit_selection/docking/ligands/lig_171.pdb
REMARK  5 active torsions:
REMARK  status: ('A' for Active; 'I' for Inactive)
REMARK    1  A    between atoms: C1_1  and  O1_2
REMARK    2  A    between atoms: O1_2  and  C2_3
REMARK    3  A    between atoms: C9_10  and  N1_11
REMARK    4  A    between atoms: N2_18  and  C16_19
REMARK    5  A    between atoms: C16_19  and  C17_20
REMARK                            x       y       z     vdW  Elec       q    Type
REMARK                         _______ _______ _______ _____ _____    ______ ____
ROOT
ATOM      1  N1  UNL     1       0.813   1.331  -0.158  0.00  0.00    -0.299 NA
ATOM      2  C10 UNL     1       0.717  -0.121  -0.426  0.00  0.00    +0.087 C 
ATOM      3  C11 UNL     1      -0.747  -0.598  -0.303  0.00  0.00    +0.051 C 
ATOM      4  C12 UNL     1      -1.781   0.555  -0.455  0.00  0.00    +0.085 C 
ATOM      5  C13 UNL     1      -1.253   1.504  -1.570  0.00  0.00    +0.051 C 
ATOM      6  C14 UNL     1       0.113   2.121  -1.195  0.00  0.00    +0.087 C 
ATOM      7  C15 UNL     1      -3.181  -0.037  -0.835  0.00  0.00    +0.119 C 
ATOM      8  N2  UNL     1      -4.228   0.404   0.110  0.00  0.00    -0.293 NA
ATOM      9  C21 UNL     1      -4.163   1.865   0.251  0.00  0.00    +0.113 C 
ATOM     10  C22 UNL     1      -2.800   2.273   0.832  0.00  0.00    +0.176 C 
ATOM     11  O3  UNL     1      -1.845   1.224   0.803  0.00  0.00    -0.371 OA
ENDROOT
BRANCH   1  19
ATOM     12  C2  UNL     1       5.920  -1.091  -0.021  0.00  0.00    +0.120 A 
ATOM     13  C3  UNL     1       5.631  -1.160   1.365  0.00  0.00    +0.046 A 
ATOM     14  C4  UNL     1       4.590  -0.393   1.911  0.00  0.00    +0.007 A 
ATOM     15  C5  UNL     1       3.845   0.430   1.066  0.00  0.00    -0.042 A 
ATOM     16  C6  UNL     1       4.118   0.500  -0.277  0.00  0.00    -0.039 A 
ATOM     17  C7  UNL     1       5.154  -0.247  -0.843  0.00  0.00    +0.049 A 
ATOM     18  C8  UNL     1       3.227   1.452  -0.979  0.00  0.00    +0.054 C 
ATOM     19  C9  UNL     1       2.183   1.844   0.104  0.00  0.00    +0.065 C 
ATOM     20  C23 UNL     1       2.725   1.318   1.457  0.00  0.00    +0.054 C 
BRANCH  12  22
ATOM     21  C1  UNL     1       7.805  -2.727   0.100  0.00  0.00    +0.277 C 
ATOM     22  O1  UNL     1       6.952  -1.835  -0.610  0.00  0.00    -0.495 OA
ENDBRANCH  12  22
ENDBRANCH   1  19
BRANCH   8  23
ATOM     23  C16 UNL     1      -5.572  -0.006  -0.347  0.00  0.00    +0.123 C 
BRANCH  23  24
ATOM     24  C17 UNL     1      -5.757  -1.485  -0.184  0.00  0.00    +0.004 A 
ATOM     25  C18 UNL     1      -5.817  -2.424  -1.190  0.00  0.00    +0.046 A 
ATOM     26  C19 UNL     1      -5.948  -3.640  -0.549  0.00  0.00    +0.195 A 
ATOM     27  O2  UNL     1      -5.961  -3.458   0.753  0.00  0.00    -0.471 OA
ATOM     28  C20 UNL     1      -5.844  -2.175   1.007  0.00  0.00    +0.199 A 
ENDBRANCH  23  24
ENDBRANCH   8  23
TORSDOF 4
