REMARK  Name = /home/qwerty/github/datacon2025hack/step_04_hit_selection/docking/ligands/lig_327.pdb
REMARK  6 active torsions:
REMARK  status: ('A' for Active; 'I' for Inactive)
REMARK    1  A    between atoms: C1_1  and  C2_2
REMARK    2  A    between atoms: C4_5  and  C5_6
REMARK    3  A    between atoms: C8_11  and  N3_12
REMARK    4  A    between atoms: C9_13  and  C10_15
REMARK    5  A    between atoms: C11_16  and  C12_17
REMARK    6  A    between atoms: C16_21  and  C17_22
REMARK                            x       y       z     vdW  Elec       q    Type
REMARK                         _______ _______ _______ _____ _____    ______ ____
ROOT
ATOM      1  C5  UNL     1       3.283  -1.589   0.413  0.00  0.00    +0.255 C 
ATOM      2  O1  UNL     1       3.098  -2.775   0.803  0.00  0.00    -0.269 OA
ATOM      3  N2  UNL     1       2.181  -0.658   0.462  0.00  0.00    -0.295 N 
ATOM      4  C6  UNL     1       2.112   0.603  -0.262  0.00  0.00    +0.110 C 
ATOM      5  C7  UNL     1       0.645   1.010  -0.241  0.00  0.00    +0.043 C 
ATOM      6  C8  UNL     1       0.031   0.238   0.927  0.00  0.00    +0.092 C 
ATOM      7  C18 UNL     1       0.912  -1.002   1.086  0.00  0.00    +0.130 C 
ENDROOT
BRANCH   1  12
ATOM      8  C1  UNL     1       7.949   0.644  -1.040  0.00  0.00    +0.073 C 
ATOM      9  C2  UNL     1       6.772  -0.225  -0.756  0.00  0.00    +0.076 A 
ATOM     10  N1  UNL     1       6.808  -1.573  -0.809  0.00  0.00    -0.252 NA
ATOM     11  C3  UNL     1       5.623  -2.129  -0.439  0.00  0.00    +0.132 A 
ATOM     12  C4  UNL     1       4.628  -1.219  -0.082  0.00  0.00    +0.094 A 
ATOM     13  S1  UNL     1       5.282   0.329  -0.214  0.00  0.00    -0.068 S 
ENDBRANCH   1  12
BRANCH   6  14
ATOM     14  N3  UNL     1      -1.372  -0.105   0.667  0.00  0.00    -0.307 N 
ATOM     15  C9  UNL     1      -2.403   0.892   0.635  0.00  0.00    +0.245 C 
ATOM     16  O2  UNL     1      -2.153   2.078   0.982  0.00  0.00    -0.270 OA
ATOM     17  H10 UNL     1      -1.651  -1.103   0.545  0.00  0.00    +0.149 HD
BRANCH  15  18
ATOM     18  C10 UNL     1      -3.772   0.528   0.212  0.00  0.00    +0.043 A 
ATOM     19  C11 UNL     1      -4.011   0.059  -1.106  0.00  0.00    -0.038 A 
ATOM     20  C12 UNL     1      -2.899  -0.058  -2.117  0.00  0.00    +0.044 C 
ATOM     21  C13 UNL     1      -5.313  -0.308  -1.484  0.00  0.00    +0.004 A 
ATOM     22  C14 UNL     1      -6.371  -0.190  -0.585  0.00  0.00    +0.001 A 
ATOM     23  C15 UNL     1      -6.146   0.286   0.707  0.00  0.00    +0.004 A 
ATOM     24  C16 UNL     1      -4.853   0.638   1.123  0.00  0.00    -0.038 A 
ATOM     25  C17 UNL     1      -4.646   1.129   2.533  0.00  0.00    +0.044 C 
ENDBRANCH  15  18
ENDBRANCH   6  14
TORSDOF 3
