MODEL 1
REMARK VINA RESULT:    -6.030      0.000      0.000
REMARK INTER + INTRA:          -8.576
REMARK INTER:                  -7.969
REMARK INTRA:                  -0.606
REMARK UNBOUND:                -0.606
REMARK  Name = /home/qwerty/github/datacon2025hack/step_04_hit_selection/docking/ligands/lig_62.pdb
REMARK  8 active torsions:
REMARK  status: ('A' for Active; 'I' for Inactive)
REMARK    1  A    between atoms: C1_1  and  N1_2
REMARK    2  A    between atoms: N1_2  and  C2_3
REMARK    3  A    between atoms: C3_4  and  C4_6
REMARK    4  A    between atoms: C7_9  and  N2_10
REMARK    5  A    between atoms: N3_13  and  C9_14
REMARK    6  A    between atoms: C9_14  and  C10_15
REMARK    7  A    between atoms: C9_14  and  C11_17
REMARK    8  A    between atoms: C10_15  and  O3_16
REMARK                            x       y       z     vdW  Elec       q    Type
REMARK                         _______ _______ _______ _____ _____    ______ ____
ROOT
ATOM      1  N2  UNL     1      20.014  11.307  36.430  0.00  0.00    -0.269 N 
ATOM      2  C8  UNL     1      20.203   9.914  36.142  0.00  0.00    +0.304 C 
ATOM      3  O2  UNL     1      19.360   9.288  35.444  0.00  0.00    -0.252 OA
ATOM      4  N3  UNL     1      21.383   9.249  36.618  0.00  0.00    -0.294 N 
ATOM      5  H9  UNL     1      20.846  11.851  36.756  0.00  0.00    +0.156 HD
ATOM      6  H10 UNL     1      22.045   9.801  37.206  0.00  0.00    +0.151 HD
ENDROOT
BRANCH   1  10
ATOM      7  C4  UNL     1      16.363  13.359  35.670  0.00  0.00    +0.037 A 
ATOM      8  C5  UNL     1      16.507  12.543  36.804  0.00  0.00    +0.015 A 
ATOM      9  C6  UNL     1      17.708  11.871  37.042  0.00  0.00    +0.024 A 
ATOM     10  C7  UNL     1      18.797  12.027  36.171  0.00  0.00    +0.035 A 
ATOM     11  C17 UNL     1      18.653  12.843  35.036  0.00  0.00    +0.024 A 
ATOM     12  C18 UNL     1      17.450  13.514  34.796  0.00  0.00    +0.015 A 
BRANCH   7  16
ATOM     13  C1  UNL     1      13.159  14.518  33.903  0.00  0.00    +0.132 C 
ATOM     14  N1  UNL     1      14.095  13.576  34.523  0.00  0.00    -0.304 N 
ATOM     15  C2  UNL     1      13.912  12.131  34.346  0.00  0.00    +0.132 C 
ATOM     16  C3  UNL     1      15.094  14.079  35.433  0.00  0.00    +0.246 C 
ATOM     17  O1  UNL     1      14.883  15.156  36.054  0.00  0.00    -0.270 OA
ENDBRANCH   7  16
ENDBRANCH   1  10
BRANCH   4  18
ATOM     18  C9  UNL     1      21.746   7.878  36.233  0.00  0.00    +0.103 C 
BRANCH  18  19
ATOM     19  C11 UNL     1      23.034   7.846  35.352  0.00  0.00    +0.012 C 
ATOM     20  C12 UNL     1      22.855   8.452  33.925  0.00  0.00    +0.005 C 
ATOM     21  C13 UNL     1      22.713   7.375  32.843  0.00  0.00    +0.000 C 
ATOM     22  C14 UNL     1      23.950   6.459  32.786  0.00  0.00    +0.000 C 
ATOM     23  C15 UNL     1      24.623   6.252  34.158  0.00  0.00    +0.000 C 
ATOM     24  C16 UNL     1      23.621   6.411  35.306  0.00  0.00    +0.005 C 
ENDBRANCH  18  19
BRANCH  18  25
ATOM     25  C10 UNL     1      21.834   6.968  37.476  0.00  0.00    +0.178 C 
BRANCH  25  26
ATOM     26  O3  UNL     1      22.006   7.701  38.658  0.00  0.00    -0.393 OA
ATOM     27  H14 UNL     1      22.493   7.115  39.294  0.00  0.00    +0.209 HD
ENDBRANCH  25  26
ENDBRANCH  18  25
ENDBRANCH   4  18
TORSDOF 6
ENDMDL
MODEL 2
REMARK VINA RESULT:    -5.939     11.293     14.701
REMARK INTER + INTRA:          -8.455
REMARK INTER:                  -7.731
REMARK INTRA:                  -0.724
REMARK UNBOUND:                -0.606
REMARK  Name = /home/qwerty/github/datacon2025hack/step_04_hit_selection/docking/ligands/lig_62.pdb
REMARK  8 active torsions:
REMARK  status: ('A' for Active; 'I' for Inactive)
REMARK    1  A    between atoms: C1_1  and  N1_2
REMARK    2  A    between atoms: N1_2  and  C2_3
REMARK    3  A    between atoms: C3_4  and  C4_6
REMARK    4  A    between atoms: C7_9  and  N2_10
REMARK    5  A    between atoms: N3_13  and  C9_14
REMARK    6  A    between atoms: C9_14  and  C10_15
REMARK    7  A    between atoms: C9_14  and  C11_17
REMARK    8  A    between atoms: C10_15  and  O3_16
REMARK                            x       y       z     vdW  Elec       q    Type
REMARK                         _______ _______ _______ _____ _____    ______ ____
ROOT
ATOM      1  N2  UNL     1      22.012   3.282  24.427  0.00  0.00    -0.269 N 
ATOM      2  C8  UNL     1      21.158   4.311  23.905  0.00  0.00    +0.304 C 
ATOM      3  O2  UNL     1      20.267   4.828  24.633  0.00  0.00    -0.252 OA
ATOM      4  N3  UNL     1      21.355   4.778  22.563  0.00  0.00    -0.294 N 
ATOM      5  H9  UNL     1      22.899   3.081  23.911  0.00  0.00    +0.156 HD
ATOM      6  H10 UNL     1      22.092   4.309  21.991  0.00  0.00    +0.151 HD
ENDROOT
BRANCH   1  10
ATOM      7  C4  UNL     1      21.451   1.267  28.135  0.00  0.00    +0.037 A 
ATOM      8  C5  UNL     1      22.386   2.308  28.016  0.00  0.00    +0.015 A 
ATOM      9  C6  UNL     1      22.566   2.960  26.793  0.00  0.00    +0.024 A 
ATOM     10  C7  UNL     1      21.792   2.608  25.678  0.00  0.00    +0.035 A 
ATOM     11  C17 UNL     1      20.856   1.566  25.796  0.00  0.00    +0.024 A 
ATOM     12  C18 UNL     1      20.678   0.911  27.018  0.00  0.00    +0.015 A 
BRANCH   7  16
ATOM     13  C1  UNL     1      20.645   0.792  31.857  0.00  0.00    +0.132 C 
ATOM     14  N1  UNL     1      20.400   1.144  30.456  0.00  0.00    -0.304 N 
ATOM     15  C2  UNL     1      19.206   1.914  30.088  0.00  0.00    +0.132 C 
ATOM     16  C3  UNL     1      21.256   0.592  29.435  0.00  0.00    +0.246 C 
ATOM     17  O1  UNL     1      21.851  -0.499  29.647  0.00  0.00    -0.270 OA
ENDBRANCH   7  16
ENDBRANCH   1  10
BRANCH   4  18
ATOM     18  C9  UNL     1      20.649   5.938  22.001  0.00  0.00    +0.103 C 
BRANCH  18  19
ATOM     19  C11 UNL     1      21.621   6.899  21.249  0.00  0.00    +0.012 C 
ATOM     20  C12 UNL     1      21.520   6.830  19.693  0.00  0.00    +0.005 C 
ATOM     21  C13 UNL     1      22.661   6.021  19.065  0.00  0.00    +0.000 C 
ATOM     22  C14 UNL     1      24.039   6.627  19.396  0.00  0.00    +0.000 C 
ATOM     23  C15 UNL     1      24.092   7.307  20.779  0.00  0.00    +0.000 C 
ATOM     24  C16 UNL     1      23.076   6.694  21.747  0.00  0.00    +0.005 C 
ENDBRANCH  18  19
BRANCH  18  25
ATOM     25  C10 UNL     1      19.453   5.482  21.139  0.00  0.00    +0.178 C 
BRANCH  25  26
ATOM     26  O3  UNL     1      18.462   4.847  21.901  0.00  0.00    -0.393 OA
ATOM     27  H14 UNL     1      17.734   5.507  22.037  0.00  0.00    +0.209 HD
ENDBRANCH  25  26
ENDBRANCH  18  25
ENDBRANCH   4  18
TORSDOF 6
ENDMDL
MODEL 3
REMARK VINA RESULT:    -5.913     16.326     19.497
REMARK INTER + INTRA:          -8.421
REMARK INTER:                  -7.965
REMARK INTRA:                  -0.455
REMARK UNBOUND:                -0.606
REMARK  Name = /home/qwerty/github/datacon2025hack/step_04_hit_selection/docking/ligands/lig_62.pdb
REMARK  8 active torsions:
REMARK  status: ('A' for Active; 'I' for Inactive)
REMARK    1  A    between atoms: C1_1  and  N1_2
REMARK    2  A    between atoms: N1_2  and  C2_3
REMARK    3  A    between atoms: C3_4  and  C4_6
REMARK    4  A    between atoms: C7_9  and  N2_10
REMARK    5  A    between atoms: N3_13  and  C9_14
REMARK    6  A    between atoms: C9_14  and  C10_15
REMARK    7  A    between atoms: C9_14  and  C11_17
REMARK    8  A    between atoms: C10_15  and  O3_16
REMARK                            x       y       z     vdW  Elec       q    Type
REMARK                         _______ _______ _______ _____ _____    ______ ____
ROOT
ATOM      1  N2  UNL     1      11.711   3.510  20.033  0.00  0.00    -0.269 N 
ATOM      2  C8  UNL     1      10.823   4.301  20.837  0.00  0.00    +0.304 C 
ATOM      3  O2  UNL     1      11.110   4.559  22.037  0.00  0.00    -0.252 OA
ATOM      4  N3  UNL     1       9.627   4.834  20.250  0.00  0.00    -0.294 N 
ATOM      5  H9  UNL     1      11.591   3.551  18.996  0.00  0.00    +0.156 HD
ATOM      6  H10 UNL     1       9.420   4.580  19.259  0.00  0.00    +0.151 HD
ENDROOT
BRANCH   1  10
ATOM      7  C4  UNL     1      14.991   1.338  21.660  0.00  0.00    +0.037 A 
ATOM      8  C5  UNL     1      13.669   0.936  21.908  0.00  0.00    +0.015 A 
ATOM      9  C6  UNL     1      12.599   1.658  21.373  0.00  0.00    +0.024 A 
ATOM     10  C7  UNL     1      12.830   2.774  20.554  0.00  0.00    +0.035 A 
ATOM     11  C17 UNL     1      14.154   3.176  20.306  0.00  0.00    +0.024 A 
ATOM     12  C18 UNL     1      15.225   2.456  20.844  0.00  0.00    +0.015 A 
BRANCH   7  16
ATOM     13  C1  UNL     1      17.274  -1.654  22.413  0.00  0.00    +0.132 C 
ATOM     14  N1  UNL     1      16.583  -0.654  21.595  0.00  0.00    -0.304 N 
ATOM     15  C2  UNL     1      16.512  -0.816  20.138  0.00  0.00    +0.132 C 
ATOM     16  C3  UNL     1      16.118   0.560  22.217  0.00  0.00    +0.246 C 
ATOM     17  O1  UNL     1      16.687   0.981  23.261  0.00  0.00    -0.270 OA
ENDBRANCH   7  16
ENDBRANCH   1  10
BRANCH   4  18
ATOM     18  C9  UNL     1       8.748   5.790  20.938  0.00  0.00    +0.103 C 
BRANCH  18  19
ATOM     19  C11 UNL     1       9.018   7.257  20.480  0.00  0.00    +0.012 C 
ATOM     20  C12 UNL     1      10.525   7.598  20.264  0.00  0.00    +0.005 C 
ATOM     21  C13 UNL     1      11.119   8.401  21.428  0.00  0.00    +0.000 C 
ATOM     22  C14 UNL     1      10.383   9.740  21.631  0.00  0.00    +0.000 C 
ATOM     23  C15 UNL     1       8.884   9.675  21.273  0.00  0.00    +0.000 C 
ATOM     24  C16 UNL     1       8.326   8.259  21.442  0.00  0.00    +0.005 C 
ENDBRANCH  18  19
BRANCH  18  25
ATOM     25  C10 UNL     1       7.270   5.369  20.799  0.00  0.00    +0.178 C 
BRANCH  25  26
ATOM     26  O3  UNL     1       7.092   4.373  19.828  0.00  0.00    -0.393 OA
ATOM     27  H14 UNL     1       6.382   4.694  19.212  0.00  0.00    +0.209 HD
ENDBRANCH  25  26
ENDBRANCH  18  25
ENDBRANCH   4  18
TORSDOF 6
ENDMDL
MODEL 4
REMARK VINA RESULT:    -5.838      2.250      9.254
REMARK INTER + INTRA:          -8.321
REMARK INTER:                  -7.910
REMARK INTRA:                  -0.410
REMARK UNBOUND:                -0.606
REMARK  Name = /home/qwerty/github/datacon2025hack/step_04_hit_selection/docking/ligands/lig_62.pdb
REMARK  8 active torsions:
REMARK  status: ('A' for Active; 'I' for Inactive)
REMARK    1  A    between atoms: C1_1  and  N1_2
REMARK    2  A    between atoms: N1_2  and  C2_3
REMARK    3  A    between atoms: C3_4  and  C4_6
REMARK    4  A    between atoms: C7_9  and  N2_10
REMARK    5  A    between atoms: N3_13  and  C9_14
REMARK    6  A    between atoms: C9_14  and  C10_15
REMARK    7  A    between atoms: C9_14  and  C11_17
REMARK    8  A    between atoms: C10_15  and  O3_16
REMARK                            x       y       z     vdW  Elec       q    Type
REMARK                         _______ _______ _______ _____ _____    ______ ____
ROOT
ATOM      1  N2  UNL     1      17.703  11.511  37.521  0.00  0.00    -0.269 N 
ATOM      2  C8  UNL     1      16.907  12.317  36.639  0.00  0.00    +0.304 C 
ATOM      3  O2  UNL     1      16.778  11.996  35.426  0.00  0.00    -0.252 OA
ATOM      4  N3  UNL     1      16.225  13.468  37.158  0.00  0.00    -0.294 N 
ATOM      5  H9  UNL     1      17.563  11.637  38.549  0.00  0.00    +0.156 HD
ATOM      6  H10 UNL     1      16.375  13.707  38.163  0.00  0.00    +0.151 HD
ENDROOT
BRANCH   1  10
ATOM      7  C4  UNL     1      20.293   8.357  36.311  0.00  0.00    +0.037 A 
ATOM      8  C5  UNL     1      19.128   8.088  37.048  0.00  0.00    +0.015 A 
ATOM      9  C6  UNL     1      18.286   9.131  37.444  0.00  0.00    +0.024 A 
ATOM     10  C7  UNL     1      18.575  10.456  37.083  0.00  0.00    +0.035 A 
ATOM     11  C17 UNL     1      19.741  10.725  36.346  0.00  0.00    +0.024 A 
ATOM     12  C18 UNL     1      20.585   9.681  35.953  0.00  0.00    +0.015 A 
BRANCH   7  16
ATOM     13  C1  UNL     1      23.435   6.180  35.972  0.00  0.00    +0.132 C 
ATOM     14  N1  UNL     1      22.326   6.854  36.651  0.00  0.00    -0.304 N 
ATOM     15  C2  UNL     1      22.324   6.979  38.113  0.00  0.00    +0.132 C 
ATOM     16  C3  UNL     1      21.170   7.246  35.884  0.00  0.00    +0.246 C 
ATOM     17  O1  UNL     1      20.888   6.625  34.823  0.00  0.00    -0.270 OA
ENDBRANCH   7  16
ENDBRANCH   1  10
BRANCH   4  18
ATOM     18  C9  UNL     1      15.258  14.252  36.376  0.00  0.00    +0.103 C 
BRANCH  18  19
ATOM     19  C11 UNL     1      13.788  13.819  36.674  0.00  0.00    +0.012 C 
ATOM     20  C12 UNL     1      13.602  12.288  36.911  0.00  0.00    +0.005 C 
ATOM     21  C13 UNL     1      13.018  11.571  35.688  0.00  0.00    +0.000 C 
ATOM     22  C14 UNL     1      11.636  12.133  35.303  0.00  0.00    +0.000 C 
ATOM     23  C15 UNL     1      11.483  13.638  35.605  0.00  0.00    +0.000 C 
ATOM     24  C16 UNL     1      12.834  14.359  35.576  0.00  0.00    +0.005 C 
ENDBRANCH  18  19
BRANCH  18  25
ATOM     25  C10 UNL     1      15.500  15.763  36.569  0.00  0.00    +0.178 C 
BRANCH  25  26
ATOM     26  O3  UNL     1      16.011  16.061  37.840  0.00  0.00    -0.393 OA
ATOM     27  H14 UNL     1      15.232  16.216  38.435  0.00  0.00    +0.209 HD
ENDBRANCH  25  26
ENDBRANCH  18  25
ENDBRANCH   4  18
TORSDOF 6
ENDMDL
MODEL 5
REMARK VINA RESULT:    -5.824     15.636     17.316
REMARK INTER + INTRA:          -8.303
REMARK INTER:                  -7.748
REMARK INTRA:                  -0.555
REMARK UNBOUND:                -0.606
REMARK  Name = /home/qwerty/github/datacon2025hack/step_04_hit_selection/docking/ligands/lig_62.pdb
REMARK  8 active torsions:
REMARK  status: ('A' for Active; 'I' for Inactive)
REMARK    1  A    between atoms: C1_1  and  N1_2
REMARK    2  A    between atoms: N1_2  and  C2_3
REMARK    3  A    between atoms: C3_4  and  C4_6
REMARK    4  A    between atoms: C7_9  and  N2_10
REMARK    5  A    between atoms: N3_13  and  C9_14
REMARK    6  A    between atoms: C9_14  and  C10_15
REMARK    7  A    between atoms: C9_14  and  C11_17
REMARK    8  A    between atoms: C10_15  and  O3_16
REMARK                            x       y       z     vdW  Elec       q    Type
REMARK                         _______ _______ _______ _____ _____    ______ ____
ROOT
ATOM      1  N2  UNL     1      11.400   2.416  20.900  0.00  0.00    -0.269 N 
ATOM      2  C8  UNL     1      12.801   2.267  21.179  0.00  0.00    +0.304 C 
ATOM      3  O2  UNL     1      13.420   3.157  21.822  0.00  0.00    -0.252 OA
ATOM      4  N3  UNL     1      13.481   1.076  20.756  0.00  0.00    -0.294 N 
ATOM      5  H9  UNL     1      10.868   1.559  20.625  0.00  0.00    +0.156 HD
ATOM      6  H10 UNL     1      12.934   0.374  20.211  0.00  0.00    +0.151 HD
ENDROOT
BRANCH   1  10
ATOM      7  C4  UNL     1       9.136   5.969  21.508  0.00  0.00    +0.037 A 
ATOM      8  C5  UNL     1       9.033   4.890  22.399  0.00  0.00    +0.015 A 
ATOM      9  C6  UNL     1       9.778   3.726  22.189  0.00  0.00    +0.024 A 
ATOM     10  C7  UNL     1      10.662   3.632  21.104  0.00  0.00    +0.035 A 
ATOM     11  C17 UNL     1      10.765   4.712  20.211  0.00  0.00    +0.024 A 
ATOM     12  C18 UNL     1      10.017   5.875  20.419  0.00  0.00    +0.015 A 
BRANCH   7  16
ATOM     13  C1  UNL     1       7.905   9.173  23.225  0.00  0.00    +0.132 C 
ATOM     14  N1  UNL     1       8.858   8.268  22.576  0.00  0.00    -0.304 N 
ATOM     15  C2  UNL     1      10.297   8.545  22.641  0.00  0.00    +0.132 C 
ATOM     16  C3  UNL     1       8.356   7.202  21.745  0.00  0.00    +0.246 C 
ATOM     17  O1  UNL     1       7.227   7.321  21.196  0.00  0.00    -0.270 OA
ENDBRANCH   7  16
ENDBRANCH   1  10
BRANCH   4  18
ATOM     18  C9  UNL     1      14.863   0.759  21.141  0.00  0.00    +0.103 C 
BRANCH  18  19
ATOM     19  C11 UNL     1      14.926  -0.452  22.124  0.00  0.00    +0.012 C 
ATOM     20  C12 UNL     1      14.418  -0.139  23.566  0.00  0.00    +0.005 C 
ATOM     21  C13 UNL     1      15.565   0.066  24.563  0.00  0.00    +0.000 C 
ATOM     22  C14 UNL     1      16.459  -1.185  24.667  0.00  0.00    +0.000 C 
ATOM     23  C15 UNL     1      16.563  -1.975  23.347  0.00  0.00    +0.000 C 
ATOM     24  C16 UNL     1      16.350  -1.069  22.130  0.00  0.00    +0.005 C 
ENDBRANCH  18  19
BRANCH  18  25
ATOM     25  C10 UNL     1      15.749   0.576  19.890  0.00  0.00    +0.178 C 
BRANCH  25  26
ATOM     26  O3  UNL     1      15.052  -0.021  18.831  0.00  0.00    -0.393 OA
ATOM     27  H14 UNL     1      15.642   0.026  18.034  0.00  0.00    +0.209 HD
ENDBRANCH  25  26
ENDBRANCH  18  25
ENDBRANCH   4  18
TORSDOF 6
ENDMDL
MODEL 6
REMARK VINA RESULT:    -5.821      8.854     12.035
REMARK INTER + INTRA:          -8.298
REMARK INTER:                  -7.666
REMARK INTRA:                  -0.632
REMARK UNBOUND:                -0.606
REMARK  Name = /home/qwerty/github/datacon2025hack/step_04_hit_selection/docking/ligands/lig_62.pdb
REMARK  8 active torsions:
REMARK  status: ('A' for Active; 'I' for Inactive)
REMARK    1  A    between atoms: C1_1  and  N1_2
REMARK    2  A    between atoms: N1_2  and  C2_3
REMARK    3  A    between atoms: C3_4  and  C4_6
REMARK    4  A    between atoms: C7_9  and  N2_10
REMARK    5  A    between atoms: N3_13  and  C9_14
REMARK    6  A    between atoms: C9_14  and  C10_15
REMARK    7  A    between atoms: C9_14  and  C11_17
REMARK    8  A    between atoms: C10_15  and  O3_16
REMARK                            x       y       z     vdW  Elec       q    Type
REMARK                         _______ _______ _______ _____ _____    ______ ____
ROOT
ATOM      1  N2  UNL     1      19.846   0.709  33.363  0.00  0.00    -0.269 N 
ATOM      2  C8  UNL     1      18.736   1.459  33.880  0.00  0.00    +0.304 C 
ATOM      3  O2  UNL     1      18.165   2.326  33.164  0.00  0.00    -0.252 OA
ATOM      4  N3  UNL     1      18.253   1.182  35.202  0.00  0.00    -0.294 N 
ATOM      5  H9  UNL     1      20.107  -0.173  33.859  0.00  0.00    +0.156 HD
ATOM      6  H10 UNL     1      18.767   0.470  35.766  0.00  0.00    +0.151 HD
ENDROOT
BRANCH   1  10
ATOM      7  C4  UNL     1      21.847   1.722  29.745  0.00  0.00    +0.037 A 
ATOM      8  C5  UNL     1      22.123   2.412  30.937  0.00  0.00    +0.015 A 
ATOM      9  C6  UNL     1      21.457   2.074  32.118  0.00  0.00    +0.024 A 
ATOM     10  C7  UNL     1      20.530   1.022  32.138  0.00  0.00    +0.035 A 
ATOM     11  C17 UNL     1      20.254   0.331  30.945  0.00  0.00    +0.024 A 
ATOM     12  C18 UNL     1      20.917   0.671  29.762  0.00  0.00    +0.015 A 
BRANCH   7  16
ATOM     13  C1  UNL     1      22.445   2.955  26.160  0.00  0.00    +0.132 C 
ATOM     14  N1  UNL     1      22.035   3.032  27.564  0.00  0.00    -0.304 N 
ATOM     15  C2  UNL     1      21.226   4.163  28.034  0.00  0.00    +0.132 C 
ATOM     16  C3  UNL     1      22.566   2.075  28.503  0.00  0.00    +0.246 C 
ATOM     17  O1  UNL     1      23.678   1.527  28.269  0.00  0.00    -0.270 OA
ENDBRANCH   7  16
ENDBRANCH   1  10
BRANCH   4  18
ATOM     18  C9  UNL     1      17.025   1.773  35.752  0.00  0.00    +0.103 C 
BRANCH  18  19
ATOM     19  C11 UNL     1      16.094   0.691  36.383  0.00  0.00    +0.012 C 
ATOM     20  C12 UNL     1      16.040   0.717  37.942  0.00  0.00    +0.005 C 
ATOM     21  C13 UNL     1      16.892  -0.388  38.578  0.00  0.00    +0.000 C 
ATOM     22  C14 UNL     1      16.428  -1.790  38.139  0.00  0.00    +0.000 C 
ATOM     23  C15 UNL     1      15.857  -1.825  36.707  0.00  0.00    +0.000 C 
ATOM     24  C16 UNL     1      16.453  -0.716  35.836  0.00  0.00    +0.005 C 
ENDBRANCH  18  19
BRANCH  18  25
ATOM     25  C10 UNL     1      17.361   2.929  36.718  0.00  0.00    +0.178 C 
BRANCH  25  26
ATOM     26  O3  UNL     1      17.464   4.160  36.056  0.00  0.00    -0.393 OA
ATOM     27  H14 UNL     1      17.282   3.989  35.096  0.00  0.00    +0.209 HD
ENDBRANCH  25  26
ENDBRANCH  18  25
ENDBRANCH   4  18
TORSDOF 6
ENDMDL
MODEL 7
REMARK VINA RESULT:    -5.473     15.499     17.740
REMARK INTER + INTRA:          -7.839
REMARK INTER:                  -7.206
REMARK INTRA:                  -0.633
REMARK UNBOUND:                -0.606
REMARK  Name = /home/qwerty/github/datacon2025hack/step_04_hit_selection/docking/ligands/lig_62.pdb
REMARK  8 active torsions:
REMARK  status: ('A' for Active; 'I' for Inactive)
REMARK    1  A    between atoms: C1_1  and  N1_2
REMARK    2  A    between atoms: N1_2  and  C2_3
REMARK    3  A    between atoms: C3_4  and  C4_6
REMARK    4  A    between atoms: C7_9  and  N2_10
REMARK    5  A    between atoms: N3_13  and  C9_14
REMARK    6  A    between atoms: C9_14  and  C10_15
REMARK    7  A    between atoms: C9_14  and  C11_17
REMARK    8  A    between atoms: C10_15  and  O3_16
REMARK                            x       y       z     vdW  Elec       q    Type
REMARK                         _______ _______ _______ _____ _____    ______ ____
ROOT
ATOM      1  N2  UNL     1      10.639   0.495  27.401  0.00  0.00    -0.269 N 
ATOM      2  C8  UNL     1       9.774   0.782  26.292  0.00  0.00    +0.304 C 
ATOM      3  O2  UNL     1       8.525   0.830  26.455  0.00  0.00    -0.252 OA
ATOM      4  N3  UNL     1      10.346   1.058  25.005  0.00  0.00    -0.294 N 
ATOM      5  H9  UNL     1      11.652   0.737  27.300  0.00  0.00    +0.156 HD
ATOM      6  H10 UNL     1      11.383   0.990  24.912  0.00  0.00    +0.151 HD
ENDROOT
BRANCH   1  10
ATOM      7  C4  UNL     1       9.359  -0.864  31.226  0.00  0.00    +0.037 A 
ATOM      8  C5  UNL     1       9.610   0.497  30.994  0.00  0.00    +0.015 A 
ATOM      9  C6  UNL     1      10.034   0.933  29.736  0.00  0.00    +0.024 A 
ATOM     10  C7  UNL     1      10.183   0.022  28.679  0.00  0.00    +0.035 A 
ATOM     11  C17 UNL     1       9.932  -1.341  28.911  0.00  0.00    +0.024 A 
ATOM     12  C18 UNL     1       9.511  -1.778  30.171  0.00  0.00    +0.015 A 
BRANCH   7  16
ATOM     13  C1  UNL     1       7.323  -0.984  34.478  0.00  0.00    +0.132 C 
ATOM     14  N1  UNL     1       7.566  -1.029  33.034  0.00  0.00    -0.304 N 
ATOM     15  C2  UNL     1       6.441  -0.946  32.095  0.00  0.00    +0.132 C 
ATOM     16  C3  UNL     1       8.896  -1.315  32.556  0.00  0.00    +0.246 C 
ATOM     17  O1  UNL     1       9.689  -1.974  33.282  0.00  0.00    -0.270 OA
ENDBRANCH   7  16
ENDBRANCH   1  10
BRANCH   4  18
ATOM     18  C9  UNL     1       9.557   1.527  23.857  0.00  0.00    +0.103 C 
BRANCH  18  19
ATOM     19  C11 UNL     1       9.410   3.081  23.852  0.00  0.00    +0.012 C 
ATOM     20  C12 UNL     1       8.011   3.598  24.309  0.00  0.00    +0.005 C 
ATOM     21  C13 UNL     1       7.130   4.029  23.131  0.00  0.00    +0.000 C 
ATOM     22  C14 UNL     1       7.780   5.164  22.317  0.00  0.00    +0.000 C 
ATOM     23  C15 UNL     1       9.321   5.094  22.293  0.00  0.00    +0.000 C 
ATOM     24  C16 UNL     1       9.822   3.658  22.471  0.00  0.00    +0.005 C 
ENDBRANCH  18  19
BRANCH  18  25
ATOM     25  C10 UNL     1      10.127   0.964  22.538  0.00  0.00    +0.178 C 
BRANCH  25  26
ATOM     26  O3  UNL     1       9.407  -0.150  22.083  0.00  0.00    -0.393 OA
ATOM     27  H14 UNL     1       8.640  -0.271  22.701  0.00  0.00    +0.209 HD
ENDBRANCH  25  26
ENDBRANCH  18  25
ENDBRANCH   4  18
TORSDOF 6
ENDMDL
MODEL 8
REMARK VINA RESULT:    -5.446     12.757     14.412
REMARK INTER + INTRA:          -7.804
REMARK INTER:                  -7.156
REMARK INTRA:                  -0.648
REMARK UNBOUND:                -0.606
REMARK  Name = /home/qwerty/github/datacon2025hack/step_04_hit_selection/docking/ligands/lig_62.pdb
REMARK  8 active torsions:
REMARK  status: ('A' for Active; 'I' for Inactive)
REMARK    1  A    between atoms: C1_1  and  N1_2
REMARK    2  A    between atoms: N1_2  and  C2_3
REMARK    3  A    between atoms: C3_4  and  C4_6
REMARK    4  A    between atoms: C7_9  and  N2_10
REMARK    5  A    between atoms: N3_13  and  C9_14
REMARK    6  A    between atoms: C9_14  and  C10_15
REMARK    7  A    between atoms: C9_14  and  C11_17
REMARK    8  A    between atoms: C10_15  and  O3_16
REMARK                            x       y       z     vdW  Elec       q    Type
REMARK                         _______ _______ _______ _____ _____    ______ ____
ROOT
ATOM      1  N2  UNL     1      22.082  15.162  22.820  0.00  0.00    -0.269 N 
ATOM      2  C8  UNL     1      22.576  14.196  21.881  0.00  0.00    +0.304 C 
ATOM      3  O2  UNL     1      22.885  13.035  22.265  0.00  0.00    -0.252 OA
ATOM      4  N3  UNL     1      22.675  14.548  20.493  0.00  0.00    -0.294 N 
ATOM      5  H9  UNL     1      21.580  15.996  22.437  0.00  0.00    +0.156 HD
ATOM      6  H10 UNL     1      22.426  15.525  20.223  0.00  0.00    +0.151 HD
ENDROOT
BRANCH   1  10
ATOM      7  C4  UNL     1      22.103  14.703  27.052  0.00  0.00    +0.037 A 
ATOM      8  C5  UNL     1      20.995  14.298  26.290  0.00  0.00    +0.015 A 
ATOM      9  C6  UNL     1      20.996  14.457  24.902  0.00  0.00    +0.024 A 
ATOM     10  C7  UNL     1      22.115  14.992  24.247  0.00  0.00    +0.035 A 
ATOM     11  C17 UNL     1      23.224  15.397  25.009  0.00  0.00    +0.024 A 
ATOM     12  C18 UNL     1      23.222  15.242  26.399  0.00  0.00    +0.015 A 
BRANCH   7  16
ATOM     13  C1  UNL     1      22.200  15.573  30.788  0.00  0.00    +0.132 C 
ATOM     14  N1  UNL     1      21.689  15.569  29.415  0.00  0.00    -0.304 N 
ATOM     15  C2  UNL     1      20.653  16.527  29.012  0.00  0.00    +0.132 C 
ATOM     16  C3  UNL     1      22.100  14.518  28.518  0.00  0.00    +0.246 C 
ATOM     17  O1  UNL     1      22.459  13.404  28.989  0.00  0.00    -0.270 OA
ENDBRANCH   7  16
ENDBRANCH   1  10
BRANCH   4  18
ATOM     18  C9  UNL     1      23.006  13.579  19.438  0.00  0.00    +0.103 C 
BRANCH  18  19
ATOM     19  C11 UNL     1      21.729  13.072  18.698  0.00  0.00    +0.012 C 
ATOM     20  C12 UNL     1      20.506  14.038  18.785  0.00  0.00    +0.005 C 
ATOM     21  C13 UNL     1      19.465  13.576  19.811  0.00  0.00    +0.000 C 
ATOM     22  C14 UNL     1      18.907  12.181  19.469  0.00  0.00    +0.000 C 
ATOM     23  C15 UNL     1      19.936  11.264  18.777  0.00  0.00    +0.000 C 
ATOM     24  C16 UNL     1      21.370  11.635  19.162  0.00  0.00    +0.005 C 
ENDBRANCH  18  19
BRANCH  18  25
ATOM     25  C10 UNL     1      24.075  14.155  18.486  0.00  0.00    +0.178 C 
BRANCH  25  26
ATOM     26  O3  UNL     1      25.044  14.903  19.168  0.00  0.00    -0.393 OA
ATOM     27  H14 UNL     1      25.900  14.406  19.092  0.00  0.00    +0.209 HD
ENDBRANCH  25  26
ENDBRANCH  18  25
ENDBRANCH   4  18
TORSDOF 6
ENDMDL
MODEL 9
REMARK VINA RESULT:    -5.418      5.323     10.113
REMARK INTER + INTRA:          -7.767
REMARK INTER:                  -7.185
REMARK INTRA:                  -0.581
REMARK UNBOUND:                -0.606
REMARK  Name = /home/qwerty/github/datacon2025hack/step_04_hit_selection/docking/ligands/lig_62.pdb
REMARK  8 active torsions:
REMARK  status: ('A' for Active; 'I' for Inactive)
REMARK    1  A    between atoms: C1_1  and  N1_2
REMARK    2  A    between atoms: N1_2  and  C2_3
REMARK    3  A    between atoms: C3_4  and  C4_6
REMARK    4  A    between atoms: C7_9  and  N2_10
REMARK    5  A    between atoms: N3_13  and  C9_14
REMARK    6  A    between atoms: C9_14  and  C10_15
REMARK    7  A    between atoms: C9_14  and  C11_17
REMARK    8  A    between atoms: C10_15  and  O3_16
REMARK                            x       y       z     vdW  Elec       q    Type
REMARK                         _______ _______ _______ _____ _____    ______ ____
ROOT
ATOM      1  N2  UNL     1      20.973   4.209  34.222  0.00  0.00    -0.269 N 
ATOM      2  C8  UNL     1      21.004   5.644  34.259  0.00  0.00    +0.304 C 
ATOM      3  O2  UNL     1      20.919   6.310  33.192  0.00  0.00    -0.252 OA
ATOM      4  N3  UNL     1      21.089   6.315  35.525  0.00  0.00    -0.294 N 
ATOM      5  H9  UNL     1      20.763   3.707  35.115  0.00  0.00    +0.156 HD
ATOM      6  H10 UNL     1      21.176   5.724  36.381  0.00  0.00    +0.151 HD
ENDROOT
BRANCH   1  10
ATOM      7  C4  UNL     1      21.335   1.971  30.619  0.00  0.00    +0.037 A 
ATOM      8  C5  UNL     1      22.473   2.467  31.275  0.00  0.00    +0.015 A 
ATOM      9  C6  UNL     1      22.343   3.204  32.456  0.00  0.00    +0.024 A 
ATOM     10  C7  UNL     1      21.079   3.431  33.018  0.00  0.00    +0.035 A 
ATOM     11  C17 UNL     1      19.939   2.935  32.362  0.00  0.00    +0.024 A 
ATOM     12  C18 UNL     1      20.068   2.201  31.179  0.00  0.00    +0.015 A 
BRANCH   7  16
ATOM     13  C1  UNL     1      20.921   0.920  26.952  0.00  0.00    +0.132 C 
ATOM     14  N1  UNL     1      21.314   1.773  28.076  0.00  0.00    -0.304 N 
ATOM     15  C2  UNL     1      21.686   3.173  27.844  0.00  0.00    +0.132 C 
ATOM     16  C3  UNL     1      21.482   1.180  29.380  0.00  0.00    +0.246 C 
ATOM     17  O1  UNL     1      21.770  -0.044  29.472  0.00  0.00    -0.270 OA
ENDBRANCH   7  16
ENDBRANCH   1  10
BRANCH   4  18
ATOM     18  C9  UNL     1      20.956   7.771  35.675  0.00  0.00    +0.103 C 
BRANCH  18  19
ATOM     19  C11 UNL     1      20.222   8.151  36.999  0.00  0.00    +0.012 C 
ATOM     20  C12 UNL     1      19.273   7.042  37.551  0.00  0.00    +0.005 C 
ATOM     21  C13 UNL     1      17.796   7.333  37.256  0.00  0.00    +0.000 C 
ATOM     22  C14 UNL     1      17.340   8.664  37.885  0.00  0.00    +0.000 C 
ATOM     23  C15 UNL     1      18.457   9.726  37.947  0.00  0.00    +0.000 C 
ATOM     24  C16 UNL     1      19.497   9.514  36.842  0.00  0.00    +0.005 C 
ENDBRANCH  18  19
BRANCH  18  25
ATOM     25  C10 UNL     1      22.327   8.462  35.518  0.00  0.00    +0.178 C 
BRANCH  25  26
ATOM     26  O3  UNL     1      23.342   7.793  36.216  0.00  0.00    -0.393 OA
ATOM     27  H14 UNL     1      22.896   7.206  36.881  0.00  0.00    +0.209 HD
ENDBRANCH  25  26
ENDBRANCH  18  25
ENDBRANCH   4  18
TORSDOF 6
ENDMDL
