REMARK  Name = /home/qwerty/github/datacon2025hack/step_04_hit_selection/docking/ligands/lig_773.pdb
REMARK  7 active torsions:
REMARK  status: ('A' for Active; 'I' for Inactive)
REMARK    1  A    between atoms: C1_1  and  O1_2
REMARK    2  A    between atoms: O1_2  and  C2_3
REMARK    3  A    between atoms: C5_6  and  N1_7
REMARK    4  A    between atoms: C9_13  and  C10_14
REMARK    5  A    between atoms: C12_16  and  C13_17
REMARK    6  A    between atoms: C19_24  and  N3_25
REMARK    7  A    between atoms: C20_26  and  C21_27
REMARK                            x       y       z     vdW  Elec       q    Type
REMARK                         _______ _______ _______ _____ _____    ______ ____
ROOT
ATOM      1  N1  UNL     1       1.161   0.403  -0.227  0.00  0.00    -0.269 N 
ATOM      2  C6  UNL     1      -0.047  -0.263  -0.634  0.00  0.00    +0.306 C 
ATOM      3  O2  UNL     1       0.007  -1.429  -1.109  0.00  0.00    -0.252 OA
ATOM      4  N2  UNL     1      -1.327   0.375  -0.476  0.00  0.00    -0.285 N 
ATOM      5  C7  UNL     1      -1.513   1.705   0.081  0.00  0.00    +0.110 C 
ATOM      6  C8  UNL     1      -3.019   1.939   0.113  0.00  0.00    +0.029 C 
ATOM      7  C9  UNL     1      -3.625   0.870  -0.807  0.00  0.00    +0.038 C 
ATOM      8  C17 UNL     1      -2.568  -0.232  -0.925  0.00  0.00    +0.117 C 
ATOM      9  H6  UNL     1       1.091   1.194   0.452  0.00  0.00    +0.156 HD
ENDROOT
BRANCH   7  10
ATOM     10  C10 UNL     1      -4.970   0.359  -0.322  0.00  0.00    -0.041 A 
ATOM     11  C11 UNL     1      -5.099  -0.283   0.925  0.00  0.00    +0.007 A 
ATOM     12  C12 UNL     1      -6.346  -0.756   1.360  0.00  0.00    -0.049 A 
ATOM     13  C13 UNL     1      -6.479  -1.404   2.706  0.00  0.00    +0.044 C 
ATOM     14  C14 UNL     1      -7.479  -0.557   0.558  0.00  0.00    +0.023 A 
ATOM     15  C15 UNL     1      -7.361   0.080  -0.680  0.00  0.00    +0.041 A 
ATOM     16 CL1  UNL     1      -8.782   0.316  -1.681  0.00  0.00    -0.084 Cl
ATOM     17  C16 UNL     1      -6.114   0.534  -1.120  0.00  0.00    +0.024 A 
ENDBRANCH   7  10
BRANCH   1  21
ATOM     18  C2  UNL     1       5.097  -0.790  -1.332  0.00  0.00    +0.141 A 
ATOM     19  C3  UNL     1       4.025  -0.966  -2.228  0.00  0.00    +0.049 A 
ATOM     20  C4  UNL     1       2.731  -0.588  -1.867  0.00  0.00    +0.027 A 
ATOM     21  C5  UNL     1       2.479  -0.031  -0.604  0.00  0.00    +0.037 A 
ATOM     22  C18 UNL     1       3.548   0.167   0.280  0.00  0.00    +0.050 A 
ATOM     23  C19 UNL     1       4.853  -0.229  -0.064  0.00  0.00    +0.077 A 
BRANCH  23  24
ATOM     24  N3  UNL     1       5.950  -0.012   0.842  0.00  0.00    -0.283 N 
ATOM     25  C20 UNL     1       5.851  -0.165   2.266  0.00  0.00    +0.214 C 
ATOM     26  C21 UNL     1       6.987   0.257   3.140  0.00  0.00    +0.109 C 
ATOM     27  O3  UNL     1       4.848  -0.725   2.785  0.00  0.00    -0.276 OA
ATOM     28  H21 UNL     1       6.891   0.203   0.442  0.00  0.00    +0.155 HD
ENDBRANCH  23  24
BRANCH  18  30
ATOM     29  C1  UNL     1       6.795  -1.741  -2.909  0.00  0.00    +0.277 C 
ATOM     30  O1  UNL     1       6.409  -1.166  -1.665  0.00  0.00    -0.493 OA
ENDBRANCH  18  30
ENDBRANCH   1  21
TORSDOF 4
