REMARK  Name = /home/qwerty/github/datacon2025hack/step_04_hit_selection/docking/ligands/lig_406.pdb
REMARK  3 active torsions:
REMARK  status: ('A' for Active; 'I' for Inactive)
REMARK    1  A    between atoms: C1_2  and  C10_15
REMARK    2  A    between atoms: N1_3  and  C2_4
REMARK    3  A    between atoms: C13_18  and  O4_19
REMARK                            x       y       z     vdW  Elec       q    Type
REMARK                         _______ _______ _______ _____ _____    ______ ____
ROOT
ATOM      1  O1  UNL     1      -1.109  -0.968  -1.367  0.00  0.00    -0.270 OA
ATOM      2  C1  UNL     1      -1.494  -0.506  -0.257  0.00  0.00    +0.248 C 
ATOM      3  N1  UNL     1      -0.583  -0.476   0.855  0.00  0.00    -0.280 N 
ATOM      4  H1  UNL     1      -0.982  -0.479   1.819  0.00  0.00    +0.155 HD
ENDROOT
BRANCH   3   5
ATOM      5  C2  UNL     1       0.846  -0.556   0.703  0.00  0.00    +0.051 A 
ATOM      6  C3  UNL     1       1.485   0.103  -0.365  0.00  0.00    +0.073 A 
ATOM      7  C4  UNL     1       2.875   0.056  -0.491  0.00  0.00    +0.164 A 
ATOM      8  C5  UNL     1       3.640  -0.667   0.430  0.00  0.00    +0.163 A 
ATOM      9  C6  UNL     1       3.022  -1.303   1.508  0.00  0.00    +0.066 A 
ATOM     10  C7  UNL     1       1.630  -1.248   1.653  0.00  0.00    +0.043 A 
ATOM     11 BR1  UNL     1       0.836  -2.176   3.131  0.00  0.00    -0.048 Br
ATOM     12  O2  UNL     1       5.026  -0.739   0.256  0.00  0.00    -0.485 OA
ATOM     13  C8  UNL     1       5.638  -0.330  -0.970  0.00  0.00    +0.270 C 
ATOM     14  C9  UNL     1       4.939   0.920  -1.521  0.00  0.00    +0.270 C 
ATOM     15  O3  UNL     1       3.522   0.729  -1.533  0.00  0.00    -0.485 OA
ENDBRANCH   3   5
BRANCH   2  16
ATOM     16  C10 UNL     1      -2.895  -0.043  -0.108  0.00  0.00    +0.040 A 
ATOM     17  C11 UNL     1      -3.260   0.840   0.926  0.00  0.00    +0.017 A 
ATOM     18  C12 UNL     1      -4.582   1.275   1.052  0.00  0.00    +0.049 A 
ATOM     19  C13 UNL     1      -5.558   0.841   0.147  0.00  0.00    +0.152 A 
ATOM     20  C14 UNL     1      -5.203  -0.029  -0.889  0.00  0.00    +0.165 A 
ATOM     21  F1  UNL     1      -6.141  -0.453  -1.773  0.00  0.00    -0.202 F 
ATOM     22  C15 UNL     1      -3.880  -0.465  -1.019  0.00  0.00    +0.055 A 
BRANCH  19  23
ATOM     23  O4  UNL     1      -6.878   1.269   0.267  0.00  0.00    -0.504 OA
ATOM     24  H10 UNL     1      -7.165   1.899   1.007  0.00  0.00    +0.292 HD
ENDBRANCH  19  23
ENDBRANCH   2  16
TORSDOF 3
