MODEL 1
REMARK VINA RESULT:    -6.801      0.000      0.000
REMARK INTER + INTRA:          -9.745
REMARK INTER:                  -8.391
REMARK INTRA:                  -1.354
REMARK UNBOUND:                -1.354
REMARK  Name = /home/qwerty/github/datacon2025hack/step_04_hit_selection/docking/ligands/lig_501.pdb
REMARK  4 active torsions:
REMARK  status: ('A' for Active; 'I' for Inactive)
REMARK    1  A    between atoms: C1_2  and  C2_3
REMARK    2  A    between atoms: C10_17  and  C11_18
REMARK    3  A    between atoms: C14_22  and  C15_23
REMARK    4  A    between atoms: C15_23  and  N6_24
REMARK                            x       y       z     vdW  Elec       q    Type
REMARK                         _______ _______ _______ _____ _____    ______ ____
ROOT
ATOM      1  O1  UNL     1      17.222  -0.094  26.121  0.00  0.00    -0.270 OA
ATOM      2  C1  UNL     1      16.160   0.017  25.448  0.00  0.00    +0.251 C 
ATOM      3  N2  UNL     1      16.198  -0.108  24.012  0.00  0.00    -0.293 N 
ATOM      4  C7  UNL     1      17.372  -0.754  23.384  0.00  0.00    +0.114 C 
ATOM      5  C8  UNL     1      16.991  -1.495  22.093  0.00  0.00    +0.074 C 
ATOM      6  C9  UNL     1      16.175  -0.589  21.242  0.00  0.00    +0.043 A 
ATOM      7  N3  UNL     1      16.141  -0.556  19.900  0.00  0.00    -0.281 N 
ATOM      8  N4  UNL     1      15.338   0.425  19.517  0.00  0.00    -0.173 NA
ATOM      9  C10 UNL     1      14.835   1.019  20.625  0.00  0.00    +0.099 A 
ATOM     10  C22 UNL     1      15.357   0.380  21.745  0.00  0.00    +0.018 A 
ATOM     11  C23 UNL     1      15.220   0.663  23.211  0.00  0.00    +0.147 C 
ATOM     12  H7  UNL     1      16.672  -1.174  19.248  0.00  0.00    +0.189 HD
ENDROOT
BRANCH   2  13
ATOM     13  C2  UNL     1      14.894   0.285  26.161  0.00  0.00    +0.087 A 
ATOM     14  C3  UNL     1      14.603   1.573  26.651  0.00  0.00    +0.057 A 
ATOM     15 CL1  UNL     1      15.708   2.923  26.410  0.00  0.00    -0.083 Cl
ATOM     16  C4  UNL     1      13.398   1.806  27.316  0.00  0.00    +0.040 A 
ATOM     17  C5  UNL     1      12.496   0.759  27.492  0.00  0.00    +0.113 A 
ATOM     18  N1  UNL     1      12.792  -0.480  27.024  0.00  0.00    -0.247 NA
ATOM     19  C6  UNL     1      13.954  -0.745  26.370  0.00  0.00    +0.120 A 
ATOM     20 BR1  UNL     1      14.274  -2.545  25.792  0.00  0.00    -0.028 Br
ENDBRANCH   2  13
BRANCH   9  21
ATOM     21  C11 UNL     1      13.947   2.203  20.574  0.00  0.00    +0.021 A 
ATOM     22  C12 UNL     1      14.409   3.463  20.162  0.00  0.00    +0.120 A 
ATOM     23  N5  UNL     1      13.568   4.531  20.143  0.00  0.00    -0.262 NA
ATOM     24  C13 UNL     1      12.266   4.426  20.514  0.00  0.00    +0.115 A 
ATOM     25  C14 UNL     1      11.753   3.195  20.940  0.00  0.00    -0.015 A 
ATOM     26  C21 UNL     1      12.608   2.085  20.978  0.00  0.00    +0.018 A 
BRANCH  25  27
ATOM     27  C15 UNL     1      10.319   3.083  21.392  0.00  0.00    +0.121 C 
BRANCH  27  28
ATOM     28  N6  UNL     1       9.902   4.291  22.134  0.00  0.00    -0.298 NA
ATOM     29  C16 UNL     1       8.478   4.631  21.863  0.00  0.00    +0.085 C 
ATOM     30  C17 UNL     1       7.532   4.144  22.970  0.00  0.00    +0.015 C 
ATOM     31  C18 UNL     1       7.889   4.779  24.324  0.00  0.00    +0.002 C 
ATOM     32  C19 UNL     1       9.384   5.122  24.440  0.00  0.00    +0.015 C 
ATOM     33  C20 UNL     1      10.232   4.178  23.580  0.00  0.00    +0.085 C 
ENDBRANCH  27  28
ENDBRANCH  25  27
ENDBRANCH   9  21
TORSDOF 4
ENDMDL
MODEL 2
REMARK VINA RESULT:    -6.701     13.488     16.153
REMARK INTER + INTRA:          -9.621
REMARK INTER:                  -8.133
REMARK INTRA:                  -1.488
REMARK UNBOUND:                -1.354
REMARK  Name = /home/qwerty/github/datacon2025hack/step_04_hit_selection/docking/ligands/lig_501.pdb
REMARK  4 active torsions:
REMARK  status: ('A' for Active; 'I' for Inactive)
REMARK    1  A    between atoms: C1_2  and  C2_3
REMARK    2  A    between atoms: C10_17  and  C11_18
REMARK    3  A    between atoms: C14_22  and  C15_23
REMARK    4  A    between atoms: C15_23  and  N6_24
REMARK                            x       y       z     vdW  Elec       q    Type
REMARK                         _______ _______ _______ _____ _____    ______ ____
ROOT
ATOM      1  O1  UNL     1      22.513   6.320  31.001  0.00  0.00    -0.270 OA
ATOM      2  C1  UNL     1      22.267   7.253  31.814  0.00  0.00    +0.251 C 
ATOM      3  N2  UNL     1      22.511   7.068  33.224  0.00  0.00    -0.293 N 
ATOM      4  C7  UNL     1      23.406   5.971  33.653  0.00  0.00    +0.114 C 
ATOM      5  C8  UNL     1      24.167   6.327  34.939  0.00  0.00    +0.074 C 
ATOM      6  C9  UNL     1      23.200   6.849  35.941  0.00  0.00    +0.043 A 
ATOM      7  N3  UNL     1      23.268   6.715  37.275  0.00  0.00    -0.281 N 
ATOM      8  N4  UNL     1      22.192   7.266  37.816  0.00  0.00    -0.173 NA
ATOM      9  C10 UNL     1      21.431   7.777  36.820  0.00  0.00    +0.099 A 
ATOM     10  C22 UNL     1      22.062   7.524  35.606  0.00  0.00    +0.018 A 
ATOM     11  C23 UNL     1      21.643   7.779  34.190  0.00  0.00    +0.147 C 
ATOM     12  H7  UNL     1      24.023   6.236  37.815  0.00  0.00    +0.189 HD
ENDROOT
BRANCH   2  13
ATOM     13  C2  UNL     1      21.719   8.522  31.292  0.00  0.00    +0.087 A 
ATOM     14  C3  UNL     1      20.363   8.622  30.922  0.00  0.00    +0.057 A 
ATOM     15 CL1  UNL     1      19.257   7.263  31.095  0.00  0.00    -0.083 Cl
ATOM     16  C4  UNL     1      19.865   9.833  30.437  0.00  0.00    +0.040 A 
ATOM     17  C5  UNL     1      20.716  10.930  30.319  0.00  0.00    +0.113 A 
ATOM     18  N1  UNL     1      22.022  10.818  30.670  0.00  0.00    -0.247 NA
ATOM     19  C6  UNL     1      22.544   9.657  31.148  0.00  0.00    +0.120 A 
ATOM     20 BR1  UNL     1      24.413   9.614  31.571  0.00  0.00    -0.028 Br
ENDBRANCH   2  13
BRANCH   9  21
ATOM     21  C11 UNL     1      20.114   8.413  37.054  0.00  0.00    +0.021 A 
ATOM     22  C12 UNL     1      19.027   7.700  37.585  0.00  0.00    +0.120 A 
ATOM     23  N5  UNL     1      17.829   8.313  37.772  0.00  0.00    -0.262 NA
ATOM     24  C13 UNL     1      17.635   9.621  37.461  0.00  0.00    +0.115 A 
ATOM     25  C14 UNL     1      18.682  10.379  36.922  0.00  0.00    -0.015 A 
ATOM     26  C21 UNL     1      19.922   9.760  36.710  0.00  0.00    +0.018 A 
BRANCH  25  27
ATOM     27  C15 UNL     1      18.460  11.818  36.536  0.00  0.00    +0.121 C 
BRANCH  27  28
ATOM     28  N6  UNL     1      18.249  11.950  35.079  0.00  0.00    -0.298 NA
ATOM     29  C16 UNL     1      17.018  12.728  34.775  0.00  0.00    +0.085 C 
ATOM     30  C17 UNL     1      17.313  14.196  34.435  0.00  0.00    +0.015 C 
ATOM     31  C18 UNL     1      18.222  14.306  33.200  0.00  0.00    +0.002 C 
ATOM     32  C19 UNL     1      19.152  13.092  33.040  0.00  0.00    +0.015 C 
ATOM     33  C20 UNL     1      19.470  12.463  34.401  0.00  0.00    +0.085 C 
ENDBRANCH  27  28
ENDBRANCH  25  27
ENDBRANCH   9  21
TORSDOF 4
ENDMDL
MODEL 3
REMARK VINA RESULT:    -6.660      7.373     10.051
REMARK INTER + INTRA:          -9.571
REMARK INTER:                  -8.145
REMARK INTRA:                  -1.426
REMARK UNBOUND:                -1.354
REMARK  Name = /home/qwerty/github/datacon2025hack/step_04_hit_selection/docking/ligands/lig_501.pdb
REMARK  4 active torsions:
REMARK  status: ('A' for Active; 'I' for Inactive)
REMARK    1  A    between atoms: C1_2  and  C2_3
REMARK    2  A    between atoms: C10_17  and  C11_18
REMARK    3  A    between atoms: C14_22  and  C15_23
REMARK    4  A    between atoms: C15_23  and  N6_24
REMARK                            x       y       z     vdW  Elec       q    Type
REMARK                         _______ _______ _______ _____ _____    ______ ____
ROOT
ATOM      1  O1  UNL     1       7.710   7.507  21.093  0.00  0.00    -0.270 OA
ATOM      2  C1  UNL     1       8.447   7.288  22.094  0.00  0.00    +0.251 C 
ATOM      3  N2  UNL     1       8.222   6.126  22.918  0.00  0.00    -0.293 N 
ATOM      4  C7  UNL     1       7.419   5.010  22.370  0.00  0.00    +0.114 C 
ATOM      5  C8  UNL     1       7.878   3.653  22.926  0.00  0.00    +0.074 C 
ATOM      6  C9  UNL     1       7.986   3.752  24.406  0.00  0.00    +0.043 A 
ATOM      7  N3  UNL     1       7.763   2.775  25.299  0.00  0.00    -0.281 N 
ATOM      8  N4  UNL     1       7.907   3.270  26.519  0.00  0.00    -0.173 NA
ATOM      9  C10 UNL     1       8.246   4.576  26.410  0.00  0.00    +0.099 A 
ATOM     10  C22 UNL     1       8.306   4.907  25.060  0.00  0.00    +0.018 A 
ATOM     11  C23 UNL     1       8.545   6.210  24.360  0.00  0.00    +0.147 C 
ATOM     12  H7  UNL     1       7.493   1.788  25.089  0.00  0.00    +0.189 HD
ENDROOT
BRANCH   2  13
ATOM     13  C2  UNL     1       9.527   8.248  22.401  0.00  0.00    +0.087 A 
ATOM     14  C3  UNL     1       9.272   9.390  23.185  0.00  0.00    +0.057 A 
ATOM     15 CL1  UNL     1       7.677   9.710  23.859  0.00  0.00    -0.083 Cl
ATOM     16  C4  UNL     1      10.309  10.281  23.470  0.00  0.00    +0.040 A 
ATOM     17  C5  UNL     1      11.586  10.033  22.971  0.00  0.00    +0.113 A 
ATOM     18  N1  UNL     1      11.817   8.933  22.209  0.00  0.00    -0.247 NA
ATOM     19  C6  UNL     1      10.834   8.042  21.912  0.00  0.00    +0.120 A 
ATOM     20 BR1  UNL     1      11.276   6.550  20.793  0.00  0.00    -0.028 Br
ENDBRANCH   2  13
BRANCH   9  21
ATOM     21  C11 UNL     1       8.423   5.465  27.581  0.00  0.00    +0.021 A 
ATOM     22  C12 UNL     1       9.180   5.081  28.700  0.00  0.00    +0.120 A 
ATOM     23  N5  UNL     1       9.308   5.918  29.762  0.00  0.00    -0.262 NA
ATOM     24  C13 UNL     1       8.719   7.142  29.788  0.00  0.00    +0.115 A 
ATOM     25  C14 UNL     1       7.947   7.574  28.703  0.00  0.00    -0.015 A 
ATOM     26  C21 UNL     1       7.794   6.719  27.602  0.00  0.00    +0.018 A 
BRANCH  25  27
ATOM     27  C15 UNL     1       7.259   8.914  28.744  0.00  0.00    +0.121 C 
BRANCH  27  28
ATOM     28  N6  UNL     1       8.236  10.007  28.935  0.00  0.00    -0.298 NA
ATOM     29  C16 UNL     1       8.966  10.310  27.674  0.00  0.00    +0.085 C 
ATOM     30  C17 UNL     1       8.392  11.527  26.935  0.00  0.00    +0.015 C 
ATOM     31  C18 UNL     1       8.469  12.792  27.806  0.00  0.00    +0.002 C 
ATOM     32  C19 UNL     1       8.399  12.478  29.310  0.00  0.00    +0.015 C 
ATOM     33  C20 UNL     1       7.601  11.194  29.566  0.00  0.00    +0.085 C 
ENDBRANCH  27  28
ENDBRANCH  25  27
ENDBRANCH   9  21
TORSDOF 4
ENDMDL
MODEL 4
REMARK VINA RESULT:    -6.643      1.681      1.849
REMARK INTER + INTRA:          -9.550
REMARK INTER:                  -8.281
REMARK INTRA:                  -1.269
REMARK UNBOUND:                -1.354
REMARK  Name = /home/qwerty/github/datacon2025hack/step_04_hit_selection/docking/ligands/lig_501.pdb
REMARK  4 active torsions:
REMARK  status: ('A' for Active; 'I' for Inactive)
REMARK    1  A    between atoms: C1_2  and  C2_3
REMARK    2  A    between atoms: C10_17  and  C11_18
REMARK    3  A    between atoms: C14_22  and  C15_23
REMARK    4  A    between atoms: C15_23  and  N6_24
REMARK                            x       y       z     vdW  Elec       q    Type
REMARK                         _______ _______ _______ _____ _____    ______ ____
ROOT
ATOM      1  O1  UNL     1      16.983  -0.163  26.737  0.00  0.00    -0.270 OA
ATOM      2  C1  UNL     1      16.014  -0.071  25.934  0.00  0.00    +0.251 C 
ATOM      3  N2  UNL     1      16.213  -0.329  24.529  0.00  0.00    -0.293 N 
ATOM      4  C7  UNL     1      17.417  -1.078  24.106  0.00  0.00    +0.114 C 
ATOM      5  C8  UNL     1      17.151  -1.918  22.847  0.00  0.00    +0.074 C 
ATOM      6  C9  UNL     1      16.489  -1.061  21.828  0.00  0.00    +0.043 A 
ATOM      7  N3  UNL     1      16.613  -1.150  20.494  0.00  0.00    -0.281 N 
ATOM      8  N4  UNL     1      15.913  -0.177  19.934  0.00  0.00    -0.173 NA
ATOM      9  C10 UNL     1      15.315   0.537  20.917  0.00  0.00    +0.099 A 
ATOM     10  C22 UNL     1      15.669  -0.017  22.143  0.00  0.00    +0.018 A 
ATOM     11  C23 UNL     1      15.376   0.404  23.552  0.00  0.00    +0.147 C 
ATOM     12  H7  UNL     1      17.185  -1.848  19.967  0.00  0.00    +0.189 HD
ENDROOT
BRANCH   2  13
ATOM     13  C2  UNL     1      14.689   0.313  26.463  0.00  0.00    +0.087 A 
ATOM     14  C3  UNL     1      13.704  -0.663  26.709  0.00  0.00    +0.057 A 
ATOM     15 CL1  UNL     1      14.010  -2.375  26.434  0.00  0.00    -0.083 Cl
ATOM     16  C4  UNL     1      12.460  -0.279  27.215  0.00  0.00    +0.040 A 
ATOM     17  C5  UNL     1      12.205   1.067  27.467  0.00  0.00    +0.113 A 
ATOM     18  N1  UNL     1      13.160   1.999  27.217  0.00  0.00    -0.247 NA
ATOM     19  C6  UNL     1      14.384   1.664  26.726  0.00  0.00    +0.120 A 
ATOM     20 BR1  UNL     1      15.633   3.075  26.376  0.00  0.00    -0.028 Br
ENDBRANCH   2  13
BRANCH   9  21
ATOM     21  C11 UNL     1      14.501   1.747  20.657  0.00  0.00    +0.021 A 
ATOM     22  C12 UNL     1      15.058   2.916  20.116  0.00  0.00    +0.120 A 
ATOM     23  N5  UNL     1      14.283   4.012  19.905  0.00  0.00    -0.262 NA
ATOM     24  C13 UNL     1      12.958   4.023  20.203  0.00  0.00    +0.115 A 
ATOM     25  C14 UNL     1      12.351   2.887  20.752  0.00  0.00    -0.015 A 
ATOM     26  C21 UNL     1      13.137   1.750  20.988  0.00  0.00    +0.018 A 
BRANCH  25  27
ATOM     27  C15 UNL     1      10.891   2.908  21.122  0.00  0.00    +0.121 C 
BRANCH  27  28
ATOM     28  N6  UNL     1      10.446   4.279  21.450  0.00  0.00    -0.298 NA
ATOM     29  C16 UNL     1       9.252   4.669  20.652  0.00  0.00    +0.085 C 
ATOM     30  C17 UNL     1       7.940   4.516  21.435  0.00  0.00    +0.015 C 
ATOM     31  C18 UNL     1       7.940   5.398  22.694  0.00  0.00    +0.002 C 
ATOM     32  C19 UNL     1       9.354   5.633  23.252  0.00  0.00    +0.015 C 
ATOM     33  C20 UNL     1      10.278   4.456  22.917  0.00  0.00    +0.085 C 
ENDBRANCH  27  28
ENDBRANCH  25  27
ENDBRANCH   9  21
TORSDOF 4
ENDMDL
MODEL 5
REMARK VINA RESULT:    -6.626      4.355      7.470
REMARK INTER + INTRA:          -9.529
REMARK INTER:                  -8.086
REMARK INTRA:                  -1.443
REMARK UNBOUND:                -1.354
REMARK  Name = /home/qwerty/github/datacon2025hack/step_04_hit_selection/docking/ligands/lig_501.pdb
REMARK  4 active torsions:
REMARK  status: ('A' for Active; 'I' for Inactive)
REMARK    1  A    between atoms: C1_2  and  C2_3
REMARK    2  A    between atoms: C10_17  and  C11_18
REMARK    3  A    between atoms: C14_22  and  C15_23
REMARK    4  A    between atoms: C15_23  and  N6_24
REMARK                            x       y       z     vdW  Elec       q    Type
REMARK                         _______ _______ _______ _____ _____    ______ ____
ROOT
ATOM      1  O1  UNL     1      15.775  -1.598  22.376  0.00  0.00    -0.270 OA
ATOM      2  C1  UNL     1      15.768  -0.437  22.870  0.00  0.00    +0.251 C 
ATOM      3  N2  UNL     1      16.010   0.709  22.028  0.00  0.00    -0.293 N 
ATOM      4  C7  UNL     1      15.863   0.559  20.563  0.00  0.00    +0.114 C 
ATOM      5  C8  UNL     1      15.385   1.862  19.903  0.00  0.00    +0.074 C 
ATOM      6  C9  UNL     1      16.229   2.985  20.392  0.00  0.00    +0.043 A 
ATOM      7  N3  UNL     1      16.577   4.089  19.711  0.00  0.00    -0.281 N 
ATOM      8  N4  UNL     1      17.379   4.822  20.467  0.00  0.00    -0.173 NA
ATOM      9  C10 UNL     1      17.535   4.193  21.656  0.00  0.00    +0.099 A 
ATOM     10  C22 UNL     1      16.800   3.011  21.631  0.00  0.00    +0.018 A 
ATOM     11  C23 UNL     1      16.672   1.893  22.620  0.00  0.00    +0.147 C 
ATOM     12  H7  UNL     1      16.295   4.335  18.736  0.00  0.00    +0.189 HD
ENDROOT
BRANCH   2  13
ATOM     13  C2  UNL     1      15.517  -0.284  24.318  0.00  0.00    +0.087 A 
ATOM     14  C3  UNL     1      16.508  -0.625  25.259  0.00  0.00    +0.057 A 
ATOM     15 CL1  UNL     1      18.091  -1.213  24.761  0.00  0.00    -0.083 Cl
ATOM     16  C4  UNL     1      16.253  -0.466  26.623  0.00  0.00    +0.040 A 
ATOM     17  C5  UNL     1      15.017   0.025  27.039  0.00  0.00    +0.113 A 
ATOM     18  N1  UNL     1      14.067   0.342  26.122  0.00  0.00    -0.247 NA
ATOM     19  C6  UNL     1      14.279   0.203  24.786  0.00  0.00    +0.120 A 
ATOM     20 BR1  UNL     1      12.845   0.646  23.594  0.00  0.00    -0.028 Br
ENDBRANCH   2  13
BRANCH   9  21
ATOM     21  C11 UNL     1      18.424   4.698  22.727  0.00  0.00    +0.021 A 
ATOM     22  C12 UNL     1      18.292   5.991  23.257  0.00  0.00    +0.120 A 
ATOM     23  N5  UNL     1      19.136   6.424  24.229  0.00  0.00    -0.262 NA
ATOM     24  C13 UNL     1      20.128   5.638  24.722  0.00  0.00    +0.115 A 
ATOM     25  C14 UNL     1      20.311   4.342  24.226  0.00  0.00    -0.015 A 
ATOM     26  C21 UNL     1      19.457   3.881  23.214  0.00  0.00    +0.018 A 
BRANCH  25  27
ATOM     27  C15 UNL     1      21.436   3.481  24.740  0.00  0.00    +0.121 C 
BRANCH  27  28
ATOM     28  N6  UNL     1      21.281   3.215  26.186  0.00  0.00    -0.298 NA
ATOM     29  C16 UNL     1      20.163   2.269  26.448  0.00  0.00    +0.085 C 
ATOM     30  C17 UNL     1      20.644   0.828  26.668  0.00  0.00    +0.015 C 
ATOM     31  C18 UNL     1      21.592   0.738  27.875  0.00  0.00    +0.002 C 
ATOM     32  C19 UNL     1      22.371   2.043  28.114  0.00  0.00    +0.015 C 
ATOM     33  C20 UNL     1      22.573   2.808  26.801  0.00  0.00    +0.085 C 
ENDBRANCH  27  28
ENDBRANCH  25  27
ENDBRANCH   9  21
TORSDOF 4
ENDMDL
MODEL 6
REMARK VINA RESULT:    -6.621     14.349     16.478
REMARK INTER + INTRA:          -9.523
REMARK INTER:                  -8.259
REMARK INTRA:                  -1.264
REMARK UNBOUND:                -1.354
REMARK  Name = /home/qwerty/github/datacon2025hack/step_04_hit_selection/docking/ligands/lig_501.pdb
REMARK  4 active torsions:
REMARK  status: ('A' for Active; 'I' for Inactive)
REMARK    1  A    between atoms: C1_2  and  C2_3
REMARK    2  A    between atoms: C10_17  and  C11_18
REMARK    3  A    between atoms: C14_22  and  C15_23
REMARK    4  A    between atoms: C15_23  and  N6_24
REMARK                            x       y       z     vdW  Elec       q    Type
REMARK                         _______ _______ _______ _____ _____    ______ ____
ROOT
ATOM      1  O1  UNL     1      19.274  12.487  30.735  0.00  0.00    -0.270 OA
ATOM      2  C1  UNL     1      18.513  13.274  31.363  0.00  0.00    +0.251 C 
ATOM      3  N2  UNL     1      18.296  13.094  32.778  0.00  0.00    -0.293 N 
ATOM      4  C7  UNL     1      19.252  12.268  33.546  0.00  0.00    +0.114 C 
ATOM      5  C8  UNL     1      19.391  12.757  34.996  0.00  0.00    +0.074 C 
ATOM      6  C9  UNL     1      18.033  12.940  35.573  0.00  0.00    +0.043 A 
ATOM      7  N3  UNL     1      17.669  12.765  36.854  0.00  0.00    -0.281 N 
ATOM      8  N4  UNL     1      16.365  12.970  36.960  0.00  0.00    -0.173 NA
ATOM      9  C10 UNL     1      15.887  13.299  35.737  0.00  0.00    +0.099 A 
ATOM     10  C22 UNL     1      16.942  13.290  34.831  0.00  0.00    +0.018 A 
ATOM     11  C23 UNL     1      16.987  13.489  33.346  0.00  0.00    +0.147 C 
ATOM     12  H7  UNL     1      18.291  12.487  37.646  0.00  0.00    +0.189 HD
ENDROOT
BRANCH   2  13
ATOM     13  C2  UNL     1      17.853  14.366  30.619  0.00  0.00    +0.087 A 
ATOM     14  C3  UNL     1      18.388  15.669  30.629  0.00  0.00    +0.057 A 
ATOM     15 CL1  UNL     1      19.876  16.049  31.491  0.00  0.00    -0.083 Cl
ATOM     16  C4  UNL     1      17.752  16.686  29.913  0.00  0.00    +0.040 A 
ATOM     17  C5  UNL     1      16.589  16.401  29.200  0.00  0.00    +0.113 A 
ATOM     18  N1  UNL     1      16.078  15.143  29.206  0.00  0.00    -0.247 NA
ATOM     19  C6  UNL     1      16.670  14.127  29.889  0.00  0.00    +0.120 A 
ATOM     20 BR1  UNL     1      15.829  12.405  29.854  0.00  0.00    -0.028 Br
ENDBRANCH   2  13
BRANCH   9  21
ATOM     21  C11 UNL     1      14.449  13.533  35.469  0.00  0.00    +0.021 A 
ATOM     22  C12 UNL     1      13.447  13.113  36.358  0.00  0.00    +0.120 A 
ATOM     23  N5  UNL     1      12.137  13.332  36.071  0.00  0.00    -0.262 NA
ATOM     24  C13 UNL     1      11.747  13.958  34.930  0.00  0.00    +0.115 A 
ATOM     25  C14 UNL     1      12.703  14.392  34.003  0.00  0.00    -0.015 A 
ATOM     26  C21 UNL     1      14.059  14.164  34.277  0.00  0.00    +0.018 A 
BRANCH  25  27
ATOM     27  C15 UNL     1      12.273  15.049  32.717  0.00  0.00    +0.121 C 
BRANCH  27  28
ATOM     28  N6  UNL     1      12.498  14.154  31.563  0.00  0.00    -0.298 NA
ATOM     29  C16 UNL     1      11.404  13.153  31.429  0.00  0.00    +0.085 C 
ATOM     30  C17 UNL     1      10.363  13.551  30.373  0.00  0.00    +0.015 C 
ATOM     31  C18 UNL     1      11.008  13.691  28.984  0.00  0.00    +0.002 C 
ATOM     32  C19 UNL     1      12.487  14.106  29.059  0.00  0.00    +0.015 C 
ATOM     33  C20 UNL     1      12.763  14.929  30.322  0.00  0.00    +0.085 C 
ENDBRANCH  27  28
ENDBRANCH  25  27
ENDBRANCH   9  21
TORSDOF 4
ENDMDL
MODEL 7
REMARK VINA RESULT:    -6.524     14.480     15.730
REMARK INTER + INTRA:          -9.404
REMARK INTER:                  -7.960
REMARK INTRA:                  -1.444
REMARK UNBOUND:                -1.354
REMARK  Name = /home/qwerty/github/datacon2025hack/step_04_hit_selection/docking/ligands/lig_501.pdb
REMARK  4 active torsions:
REMARK  status: ('A' for Active; 'I' for Inactive)
REMARK    1  A    between atoms: C1_2  and  C2_3
REMARK    2  A    between atoms: C10_17  and  C11_18
REMARK    3  A    between atoms: C14_22  and  C15_23
REMARK    4  A    between atoms: C15_23  and  N6_24
REMARK                            x       y       z     vdW  Elec       q    Type
REMARK                         _______ _______ _______ _____ _____    ______ ____
ROOT
ATOM      1  O1  UNL     1      16.533  13.354  37.324  0.00  0.00    -0.270 OA
ATOM      2  C1  UNL     1      16.276  13.152  36.105  0.00  0.00    +0.251 C 
ATOM      3  N2  UNL     1      17.348  13.060  35.145  0.00  0.00    -0.293 N 
ATOM      4  C7  UNL     1      18.720  12.800  35.633  0.00  0.00    +0.114 C 
ATOM      5  C8  UNL     1      19.543  11.993  34.617  0.00  0.00    +0.074 C 
ATOM      6  C9  UNL     1      19.404  12.625  33.277  0.00  0.00    +0.043 A 
ATOM      7  N3  UNL     1      20.327  12.662  32.303  0.00  0.00    -0.281 N 
ATOM      8  N4  UNL     1      19.848  13.364  31.287  0.00  0.00    -0.173 NA
ATOM      9  C10 UNL     1      18.596  13.768  31.603  0.00  0.00    +0.099 A 
ATOM     10  C22 UNL     1      18.288  13.301  32.878  0.00  0.00    +0.018 A 
ATOM     11  C23 UNL     1      17.095  13.514  33.759  0.00  0.00    +0.147 C 
ATOM     12  H7  UNL     1      21.281  12.237  32.331  0.00  0.00    +0.189 HD
ENDROOT
BRANCH   2  13
ATOM     13  C2  UNL     1      14.863  13.023  35.691  0.00  0.00    +0.087 A 
ATOM     14  C3  UNL     1      14.022  14.152  35.642  0.00  0.00    +0.057 A 
ATOM     15 CL1  UNL     1      14.616  15.763  36.035  0.00  0.00    -0.083 Cl
ATOM     16  C4  UNL     1      12.692  14.008  35.242  0.00  0.00    +0.040 A 
ATOM     17  C5  UNL     1      12.209  12.747  34.898  0.00  0.00    +0.113 A 
ATOM     18  N1  UNL     1      13.027  11.666  34.958  0.00  0.00    -0.247 NA
ATOM     19  C6  UNL     1      14.328  11.766  35.342  0.00  0.00    +0.120 A 
ATOM     20 BR1  UNL     1      15.370  10.159  35.425  0.00  0.00    -0.028 Br
ENDBRANCH   2  13
BRANCH   9  21
ATOM     21  C11 UNL     1      17.780  14.635  30.722  0.00  0.00    +0.021 A 
ATOM     22  C12 UNL     1      18.134  15.966  30.452  0.00  0.00    +0.120 A 
ATOM     23  N5  UNL     1      17.353  16.736  29.650  0.00  0.00    -0.262 NA
ATOM     24  C13 UNL     1      16.214  16.258  29.084  0.00  0.00    +0.115 A 
ATOM     25  C14 UNL     1      15.808  14.940  29.325  0.00  0.00    -0.015 A 
ATOM     26  C21 UNL     1      16.596  14.134  30.159  0.00  0.00    +0.018 A 
BRANCH  25  27
ATOM     27  C15 UNL     1      14.525  14.418  28.733  0.00  0.00    +0.121 C 
BRANCH  27  28
ATOM     28  N6  UNL     1      13.354  14.900  29.497  0.00  0.00    -0.298 NA
ATOM     29  C16 UNL     1      12.140  14.980  28.640  0.00  0.00    +0.085 C 
ATOM     30  C17 UNL     1      11.215  13.767  28.808  0.00  0.00    +0.015 C 
ATOM     31  C18 UNL     1      10.724  13.641  30.260  0.00  0.00    +0.002 C 
ATOM     32  C19 UNL     1      11.728  14.214  31.275  0.00  0.00    +0.015 C 
ATOM     33  C20 UNL     1      13.163  14.112  30.744  0.00  0.00    +0.085 C 
ENDBRANCH  27  28
ENDBRANCH  25  27
ENDBRANCH   9  21
TORSDOF 4
ENDMDL
MODEL 8
REMARK VINA RESULT:    -6.507      2.475      3.735
REMARK INTER + INTRA:          -9.383
REMARK INTER:                  -8.183
REMARK INTRA:                  -1.200
REMARK UNBOUND:                -1.354
REMARK  Name = /home/qwerty/github/datacon2025hack/step_04_hit_selection/docking/ligands/lig_501.pdb
REMARK  4 active torsions:
REMARK  status: ('A' for Active; 'I' for Inactive)
REMARK    1  A    between atoms: C1_2  and  C2_3
REMARK    2  A    between atoms: C10_17  and  C11_18
REMARK    3  A    between atoms: C14_22  and  C15_23
REMARK    4  A    between atoms: C15_23  and  N6_24
REMARK                            x       y       z     vdW  Elec       q    Type
REMARK                         _______ _______ _______ _____ _____    ______ ____
ROOT
ATOM      1  O1  UNL     1      17.330   1.714  24.142  0.00  0.00    -0.270 OA
ATOM      2  C1  UNL     1      16.191   1.398  23.702  0.00  0.00    +0.251 C 
ATOM      3  N2  UNL     1      15.649   2.072  22.548  0.00  0.00    -0.293 N 
ATOM      4  C7  UNL     1      16.569   2.820  21.663  0.00  0.00    +0.114 C 
ATOM      5  C8  UNL     1      16.094   2.802  20.202  0.00  0.00    +0.074 C 
ATOM      6  C9  UNL     1      14.655   3.177  20.161  0.00  0.00    +0.043 A 
ATOM      7  N3  UNL     1      14.021   3.842  19.182  0.00  0.00    -0.281 N 
ATOM      8  N4  UNL     1      12.761   4.032  19.540  0.00  0.00    -0.173 NA
ATOM      9  C10 UNL     1      12.575   3.466  20.756  0.00  0.00    +0.099 A 
ATOM     10  C22 UNL     1      13.779   2.907  21.173  0.00  0.00    +0.018 A 
ATOM     11  C23 UNL     1      14.181   2.238  22.452  0.00  0.00    +0.147 C 
ATOM     12  H7  UNL     1      14.441   4.185  18.289  0.00  0.00    +0.189 HD
ENDROOT
BRANCH   2  13
ATOM     13  C2  UNL     1      15.431   0.339  24.398  0.00  0.00    +0.087 A 
ATOM     14  C3  UNL     1      14.624   0.646  25.511  0.00  0.00    +0.057 A 
ATOM     15 CL1  UNL     1      14.456   2.296  26.102  0.00  0.00    -0.083 Cl
ATOM     16  C4  UNL     1      13.909  -0.369  26.150  0.00  0.00    +0.040 A 
ATOM     17  C5  UNL     1      14.005  -1.678  25.681  0.00  0.00    +0.113 A 
ATOM     18  N1  UNL     1      14.792  -1.962  24.613  0.00  0.00    -0.247 NA
ATOM     19  C6  UNL     1      15.502  -1.001  23.964  0.00  0.00    +0.120 A 
ATOM     20 BR1  UNL     1      16.611  -1.535  22.494  0.00  0.00    -0.028 Br
ENDBRANCH   2  13
BRANCH   9  21
ATOM     21  C11 UNL     1      11.295   3.544  21.496  0.00  0.00    +0.021 A 
ATOM     22  C12 UNL     1      10.566   2.397  21.847  0.00  0.00    +0.120 A 
ATOM     23  N5  UNL     1       9.388   2.508  22.513  0.00  0.00    -0.262 NA
ATOM     24  C13 UNL     1       8.873   3.715  22.864  0.00  0.00    +0.115 A 
ATOM     25  C14 UNL     1       9.553   4.893  22.535  0.00  0.00    -0.015 A 
ATOM     26  C21 UNL     1      10.765   4.799  21.836  0.00  0.00    +0.018 A 
BRANCH  25  27
ATOM     27  C15 UNL     1       8.965   6.236  22.885  0.00  0.00    +0.121 C 
BRANCH  27  28
ATOM     28  N6  UNL     1       9.711   7.329  22.227  0.00  0.00    -0.298 NA
ATOM     29  C16 UNL     1       8.896   7.982  21.166  0.00  0.00    +0.085 C 
ATOM     30  C17 UNL     1       8.241   9.287  21.640  0.00  0.00    +0.015 C 
ATOM     31  C18 UNL     1       9.301  10.312  22.078  0.00  0.00    +0.002 C 
ATOM     32  C19 UNL     1      10.581   9.647  22.611  0.00  0.00    +0.015 C 
ATOM     33  C20 UNL     1      10.272   8.277  23.227  0.00  0.00    +0.085 C 
ENDBRANCH  27  28
ENDBRANCH  25  27
ENDBRANCH   9  21
TORSDOF 4
ENDMDL
MODEL 9
REMARK VINA RESULT:    -6.500      4.382      8.660
REMARK INTER + INTRA:          -9.373
REMARK INTER:                  -8.218
REMARK INTRA:                  -1.155
REMARK UNBOUND:                -1.354
REMARK  Name = /home/qwerty/github/datacon2025hack/step_04_hit_selection/docking/ligands/lig_501.pdb
REMARK  4 active torsions:
REMARK  status: ('A' for Active; 'I' for Inactive)
REMARK    1  A    between atoms: C1_2  and  C2_3
REMARK    2  A    between atoms: C10_17  and  C11_18
REMARK    3  A    between atoms: C14_22  and  C15_23
REMARK    4  A    between atoms: C15_23  and  N6_24
REMARK                            x       y       z     vdW  Elec       q    Type
REMARK                         _______ _______ _______ _____ _____    ______ ____
ROOT
ATOM      1  O1  UNL     1       9.598   8.495  24.644  0.00  0.00    -0.270 OA
ATOM      2  C1  UNL     1       9.931   7.997  23.534  0.00  0.00    +0.251 C 
ATOM      3  N2  UNL     1       9.717   6.593  23.277  0.00  0.00    -0.293 N 
ATOM      4  C7  UNL     1       8.763   5.851  24.130  0.00  0.00    +0.114 C 
ATOM      5  C8  UNL     1       8.066   4.722  23.356  0.00  0.00    +0.074 C 
ATOM      6  C9  UNL     1       9.096   3.927  22.635  0.00  0.00    +0.043 A 
ATOM      7  N3  UNL     1       9.058   2.613  22.364  0.00  0.00    -0.281 N 
ATOM      8  N4  UNL     1      10.184   2.269  21.759  0.00  0.00    -0.173 NA
ATOM      9  C10 UNL     1      10.949   3.377  21.621  0.00  0.00    +0.099 A 
ATOM     10  C22 UNL     1      10.267   4.457  22.174  0.00  0.00    +0.018 A 
ATOM     11  C23 UNL     1      10.659   5.889  22.378  0.00  0.00    +0.147 C 
ATOM     12  H7  UNL     1       8.289   1.949  22.606  0.00  0.00    +0.189 HD
ENDROOT
BRANCH   2  13
ATOM     13  C2  UNL     1      10.548   8.876  22.519  0.00  0.00    +0.087 A 
ATOM     14  C3  UNL     1       9.778   9.408  21.466  0.00  0.00    +0.057 A 
ATOM     15 CL1  UNL     1       8.053   9.084  21.328  0.00  0.00    -0.083 Cl
ATOM     16  C4  UNL     1      10.380  10.242  20.521  0.00  0.00    +0.040 A 
ATOM     17  C5  UNL     1      11.737  10.536  20.627  0.00  0.00    +0.113 A 
ATOM     18  N1  UNL     1      12.470  10.009  21.641  0.00  0.00    -0.247 NA
ATOM     19  C6  UNL     1      11.920   9.195  22.581  0.00  0.00    +0.120 A 
ATOM     20 BR1  UNL     1      13.069   8.481  23.940  0.00  0.00    -0.028 Br
ENDBRANCH   2  13
BRANCH   9  21
ATOM     21  C11 UNL     1      12.312   3.352  21.043  0.00  0.00    +0.021 A 
ATOM     22  C12 UNL     1      12.622   4.000  19.837  0.00  0.00    +0.120 A 
ATOM     23  N5  UNL     1      13.881   3.943  19.330  0.00  0.00    -0.262 NA
ATOM     24  C13 UNL     1      14.878   3.268  19.958  0.00  0.00    +0.115 A 
ATOM     25  C14 UNL     1      14.625   2.597  21.160  0.00  0.00    -0.015 A 
ATOM     26  C21 UNL     1      13.328   2.634  21.693  0.00  0.00    +0.018 A 
BRANCH  25  27
ATOM     27  C15 UNL     1      15.717   1.812  21.839  0.00  0.00    +0.121 C 
BRANCH  27  28
ATOM     28  N6  UNL     1      15.298   0.414  22.075  0.00  0.00    -0.298 NA
ATOM     29  C16 UNL     1      16.129  -0.543  21.295  0.00  0.00    +0.085 C 
ATOM     30  C17 UNL     1      17.242  -1.184  22.136  0.00  0.00    +0.015 C 
ATOM     31  C18 UNL     1      16.658  -1.969  23.321  0.00  0.00    +0.002 C 
ATOM     32  C19 UNL     1      15.316  -1.396  23.807  0.00  0.00    +0.015 C 
ATOM     33  C20 UNL     1      15.230   0.109  23.529  0.00  0.00    +0.085 C 
ENDBRANCH  27  28
ENDBRANCH  25  27
ENDBRANCH   9  21
TORSDOF 4
ENDMDL
