REMARK  Name = /home/qwerty/github/datacon2025hack/step_04_hit_selection/docking/ligands/lig_73.pdb
REMARK  8 active torsions:
REMARK  status: ('A' for Active; 'I' for Inactive)
REMARK    1  A    between atoms: C1_1  and  C2_2
REMARK    2  A    between atoms: C4_4  and  C5_5
REMARK    3  A    between atoms: N1_6  and  C6_7
REMARK    4  A    between atoms: C6_7  and  C7_8
REMARK    5  A    between atoms: C10_14  and  C11_15
REMARK    6  A    between atoms: C12_17  and  C13_18
REMARK    7  A    between atoms: N5_20  and  C15_21
REMARK    8  A    between atoms: C15_21  and  C16_22
REMARK                            x       y       z     vdW  Elec       q    Type
REMARK                         _______ _______ _______ _____ _____    ______ ____
ROOT
ATOM      1  C7  UNL     1       1.395  -0.488   1.721  0.00  0.00    +0.156 A 
ATOM      2  N2  UNL     1       0.802  -1.467   2.431  0.00  0.00    -0.131 NA
ATOM      3  N3  UNL     1      -0.432  -1.592   1.968  0.00  0.00    -0.113 NA
ATOM      4  C8  UNL     1      -0.568  -0.695   0.972  0.00  0.00    +0.220 A 
ATOM      5  N4  UNL     1      -1.803  -0.509   0.255  0.00  0.00    -0.295 N 
ATOM      6  C9  UNL     1      -3.072  -0.610   0.966  0.00  0.00    +0.139 C 
ATOM      7  C10 UNL     1      -3.819  -1.876   0.500  0.00  0.00    +0.133 C 
ATOM      8  C11 UNL     1      -5.319  -1.777   0.782  0.00  0.00    +0.039 C 
ATOM      9  O1  UNL     1      -3.598  -2.266  -0.855  0.00  0.00    -0.371 OA
ATOM     10  C12 UNL     1      -3.125  -1.242  -1.722  0.00  0.00    +0.133 C 
ATOM     11  C13 UNL     1      -4.230  -0.247  -2.108  0.00  0.00    +0.039 C 
ATOM     12  C14 UNL     1      -1.834  -0.563  -1.207  0.00  0.00    +0.139 C 
ATOM     13  N5  UNL     1       0.567   0.015   0.777  0.00  0.00    -0.294 N 
ENDROOT
BRANCH   1  14
ATOM     14  C6  UNL     1       2.814  -0.058   1.954  0.00  0.00    +0.220 C 
BRANCH  14  20
ATOM     15  C1  UNL     1       5.490  -0.855  -2.105  0.00  0.00    +0.067 C 
ATOM     16  C2  UNL     1       4.836  -1.101  -0.787  0.00  0.00    +0.060 A 
ATOM     17  C3  UNL     1       4.987  -2.232  -0.007  0.00  0.00    +0.047 A 
ATOM     18  C4  UNL     1       4.245  -1.961   1.125  0.00  0.00    +0.037 A 
ATOM     19  C5  UNL     1       4.066  -2.882   2.291  0.00  0.00    +0.065 C 
ATOM     20  N1  UNL     1       3.705  -0.727   1.008  0.00  0.00    -0.261 N 
ATOM     21  N6  UNL     1       4.063  -0.198  -0.152  0.00  0.00    -0.176 NA
ENDBRANCH  14  20
ENDBRANCH   1  14
BRANCH  13  22
ATOM     22  C15 UNL     1       0.788   1.193  -0.069  0.00  0.00    +0.170 C 
BRANCH  22  23
ATOM     23  C16 UNL     1       0.291   2.469   0.634  0.00  0.00    +0.193 C 
ATOM     24  C17 UNL     1       0.656   3.740  -0.155  0.00  0.00    +0.050 C 
ATOM     25  C18 UNL     1      -0.199   3.871  -1.424  0.00  0.00    +0.034 C 
ATOM     26  C19 UNL     1      -1.655   3.619  -1.147  0.00  0.00    +0.011 C 
ATOM     27  C20 UNL     1      -2.050   2.906  -0.089  0.00  0.00    +0.183 C 
ATOM     28  O2  UNL     1      -1.124   2.407   0.837  0.00  0.00    -0.495 OA
ENDBRANCH  22  23
ENDBRANCH  13  22
TORSDOF 4
