MODEL 1
REMARK VINA RESULT:    -7.174      0.000      0.000
REMARK INTER + INTRA:          -8.590
REMARK INTER:                  -8.433
REMARK INTRA:                  -0.157
REMARK UNBOUND:                -0.157
REMARK  Name = /home/qwerty/github/datacon2025hack/step_04_hit_selection/docking/ligands/lig_243.pdb
REMARK  4 active torsions:
REMARK  status: ('A' for Active; 'I' for Inactive)
REMARK    1  A    between atoms: C1_1  and  O1_2
REMARK    2  A    between atoms: O1_2  and  C2_3
REMARK    3  A    between atoms: C9_11  and  N1_12
REMARK    4  A    between atoms: C13_18  and  C14_19
REMARK                            x       y       z     vdW  Elec       q    Type
REMARK                         _______ _______ _______ _____ _____    ______ ____
ROOT
ATOM      1  N1  UNL     1      23.311  11.996  29.539  0.00  0.00    -0.293 N 
ATOM      2  C10 UNL     1      22.401  13.044  29.165  0.00  0.00    +0.303 C 
ATOM      3  O3  UNL     1      21.330  13.204  29.812  0.00  0.00    -0.253 OA
ATOM      4  N2  UNL     1      22.693  13.916  28.058  0.00  0.00    -0.285 N 
ATOM      5  C11 UNL     1      21.842  15.037  27.698  0.00  0.00    +0.110 C 
ATOM      6  C12 UNL     1      22.568  15.773  26.579  0.00  0.00    +0.029 C 
ATOM      7  C13 UNL     1      23.682  14.832  26.092  0.00  0.00    +0.038 C 
ATOM      8  C20 UNL     1      23.853  13.779  27.194  0.00  0.00    +0.117 C 
ATOM      9  H10 UNL     1      24.178  11.849  28.977  0.00  0.00    +0.151 HD
ENDROOT
BRANCH   1  18
ATOM     10  C2  UNL     1      23.391   7.118  33.840  0.00  0.00    +0.124 A 
ATOM     11  C3  UNL     1      24.722   7.507  33.594  0.00  0.00    +0.046 A 
ATOM     12  C4  UNL     1      25.004   8.509  32.660  0.00  0.00    +0.011 A 
ATOM     13  C5  UNL     1      23.963   9.141  31.967  0.00  0.00    -0.004 A 
ATOM     14  C6  UNL     1      22.634   8.739  32.194  0.00  0.00    +0.127 A 
ATOM     15  C7  UNL     1      22.355   7.742  33.135  0.00  0.00    +0.091 A 
ATOM     16  O2  UNL     1      21.582   9.351  31.503  0.00  0.00    -0.490 OA
ATOM     17  C8  UNL     1      21.811  10.236  30.407  0.00  0.00    +0.251 C 
ATOM     18  C9  UNL     1      23.049  11.107  30.677  0.00  0.00    +0.116 C 
ATOM     19  C21 UNL     1      24.268  10.202  30.938  0.00  0.00    +0.064 C 
BRANCH  10  21
ATOM     20  C1  UNL     1      23.236   6.244  36.177  0.00  0.00    +0.277 C 
ATOM     21  O1  UNL     1      23.059   6.122  34.770  0.00  0.00    -0.495 OA
ENDBRANCH  10  21
ENDBRANCH   1  18
BRANCH   7  22
ATOM     22  C14 UNL     1      23.341  14.206  24.750  0.00  0.00    -0.043 A 
ATOM     23  C15 UNL     1      22.080  13.622  24.518  0.00  0.00    +0.007 A 
ATOM     24  C16 UNL     1      21.778  13.059  23.275  0.00  0.00    +0.038 A 
ATOM     25  C17 UNL     1      22.725  13.076  22.249  0.00  0.00    +0.123 A 
ATOM     26  F1  UNL     1      22.430  12.530  21.044  0.00  0.00    -0.205 F 
ATOM     27  C18 UNL     1      23.978  13.657  22.465  0.00  0.00    +0.038 A 
ATOM     28  C19 UNL     1      24.285  14.220  23.708  0.00  0.00    +0.007 A 
ENDBRANCH   7  22
TORSDOF 3
ENDMDL
MODEL 2
REMARK VINA RESULT:    -6.989      7.906      9.239
REMARK INTER + INTRA:          -8.372
REMARK INTER:                  -7.945
REMARK INTRA:                  -0.427
REMARK UNBOUND:                -0.157
REMARK  Name = /home/qwerty/github/datacon2025hack/step_04_hit_selection/docking/ligands/lig_243.pdb
REMARK  4 active torsions:
REMARK  status: ('A' for Active; 'I' for Inactive)
REMARK    1  A    between atoms: C1_1  and  O1_2
REMARK    2  A    between atoms: O1_2  and  C2_3
REMARK    3  A    between atoms: C9_11  and  N1_12
REMARK    4  A    between atoms: C13_18  and  C14_19
REMARK                            x       y       z     vdW  Elec       q    Type
REMARK                         _______ _______ _______ _____ _____    ______ ____
ROOT
ATOM      1  N1  UNL     1      20.087   5.732  22.730  0.00  0.00    -0.293 N 
ATOM      2  C10 UNL     1      20.251   5.637  21.305  0.00  0.00    +0.303 C 
ATOM      3  O3  UNL     1      21.124   4.862  20.826  0.00  0.00    -0.253 OA
ATOM      4  N2  UNL     1      19.433   6.416  20.414  0.00  0.00    -0.285 N 
ATOM      5  C11 UNL     1      19.510   6.290  18.969  0.00  0.00    +0.110 C 
ATOM      6  C12 UNL     1      18.400   7.172  18.410  0.00  0.00    +0.029 C 
ATOM      7  C13 UNL     1      17.926   8.060  19.572  0.00  0.00    +0.038 C 
ATOM      8  C20 UNL     1      18.453   7.396  20.851  0.00  0.00    +0.117 C 
ATOM      9  H10 UNL     1      19.386   6.400  23.119  0.00  0.00    +0.151 HD
ENDROOT
BRANCH   1  18
ATOM     10  C2  UNL     1      22.099   1.770  27.478  0.00  0.00    +0.124 A 
ATOM     11  C3  UNL     1      21.050   1.130  26.790  0.00  0.00    +0.046 A 
ATOM     12  C4  UNL     1      20.390   1.784  25.745  0.00  0.00    +0.011 A 
ATOM     13  C5  UNL     1      20.772   3.079  25.368  0.00  0.00    -0.004 A 
ATOM     14  C6  UNL     1      21.806   3.728  26.069  0.00  0.00    +0.127 A 
ATOM     15  C7  UNL     1      22.469   3.068  27.109  0.00  0.00    +0.091 A 
ATOM     16  O2  UNL     1      22.193   5.025  25.715  0.00  0.00    -0.490 OA
ATOM     17  C8  UNL     1      21.441   5.815  24.794  0.00  0.00    +0.251 C 
ATOM     18  C9  UNL     1      20.891   4.933  23.661  0.00  0.00    +0.116 C 
ATOM     19  C21 UNL     1      20.041   3.796  24.260  0.00  0.00    +0.064 C 
BRANCH  10  21
ATOM     20  C1  UNL     1      22.643  -0.212  28.902  0.00  0.00    +0.277 C 
ATOM     21  O1  UNL     1      22.794   1.153  28.529  0.00  0.00    -0.495 OA
ENDBRANCH  10  21
ENDBRANCH   1  18
BRANCH   7  22
ATOM     22  C14 UNL     1      18.422   9.489  19.424  0.00  0.00    -0.043 A 
ATOM     23  C15 UNL     1      19.777   9.766  19.156  0.00  0.00    +0.007 A 
ATOM     24  C16 UNL     1      20.215  11.086  19.013  0.00  0.00    +0.038 A 
ATOM     25  C17 UNL     1      19.309  12.141  19.130  0.00  0.00    +0.123 A 
ATOM     26  F1  UNL     1      19.736  13.421  18.990  0.00  0.00    -0.205 F 
ATOM     27  C18 UNL     1      17.961  11.879  19.391  0.00  0.00    +0.038 A 
ATOM     28  C19 UNL     1      17.519  10.561  19.537  0.00  0.00    +0.007 A 
ENDBRANCH   7  22
TORSDOF 3
ENDMDL
MODEL 3
REMARK VINA RESULT:    -6.968      7.179      9.677
REMARK INTER + INTRA:          -8.347
REMARK INTER:                  -7.943
REMARK INTRA:                  -0.405
REMARK UNBOUND:                -0.157
REMARK  Name = /home/qwerty/github/datacon2025hack/step_04_hit_selection/docking/ligands/lig_243.pdb
REMARK  4 active torsions:
REMARK  status: ('A' for Active; 'I' for Inactive)
REMARK    1  A    between atoms: C1_1  and  O1_2
REMARK    2  A    between atoms: O1_2  and  C2_3
REMARK    3  A    between atoms: C9_11  and  N1_12
REMARK    4  A    between atoms: C13_18  and  C14_19
REMARK                            x       y       z     vdW  Elec       q    Type
REMARK                         _______ _______ _______ _____ _____    ______ ____
ROOT
ATOM      1  N1  UNL     1      16.787  14.895  29.167  0.00  0.00    -0.293 N 
ATOM      2  C10 UNL     1      17.602  16.020  29.535  0.00  0.00    +0.303 C 
ATOM      3  O3  UNL     1      17.080  17.164  29.637  0.00  0.00    -0.253 OA
ATOM      4  N2  UNL     1      19.010  15.862  29.789  0.00  0.00    -0.285 N 
ATOM      5  C11 UNL     1      19.851  16.956  30.241  0.00  0.00    +0.110 C 
ATOM      6  C12 UNL     1      21.220  16.346  30.519  0.00  0.00    +0.029 C 
ATOM      7  C13 UNL     1      21.209  14.948  29.880  0.00  0.00    +0.038 C 
ATOM      8  C20 UNL     1      19.734  14.613  29.627  0.00  0.00    +0.117 C 
ATOM      9  H10 UNL     1      17.234  13.958  29.052  0.00  0.00    +0.151 HD
ENDROOT
BRANCH   1  18
ATOM     10  C2  UNL     1      10.380  13.866  28.748  0.00  0.00    +0.124 A 
ATOM     11  C3  UNL     1      10.804  13.463  30.029  0.00  0.00    +0.046 A 
ATOM     12  C4  UNL     1      12.158  13.525  30.375  0.00  0.00    +0.011 A 
ATOM     13  C5  UNL     1      13.102  13.997  29.453  0.00  0.00    -0.004 A 
ATOM     14  C6  UNL     1      12.683  14.379  28.165  0.00  0.00    +0.127 A 
ATOM     15  C7  UNL     1      11.327  14.323  27.825  0.00  0.00    +0.091 A 
ATOM     16  O2  UNL     1      13.613  14.841  27.227  0.00  0.00    -0.490 OA
ATOM     17  C8  UNL     1      15.020  14.749  27.448  0.00  0.00    +0.251 C 
ATOM     18  C9  UNL     1      15.346  15.023  28.926  0.00  0.00    +0.116 C 
ATOM     19  C21 UNL     1      14.566  14.036  29.816  0.00  0.00    +0.064 C 
BRANCH  10  21
ATOM     20  C1  UNL     1       7.958  13.444  29.206  0.00  0.00    +0.277 C 
ATOM     21  O1  UNL     1       9.033  13.827  28.356  0.00  0.00    -0.495 OA
ENDBRANCH  10  21
ENDBRANCH   1  18
BRANCH   7  22
ATOM     22  C14 UNL     1      22.031  14.910  28.602  0.00  0.00    -0.043 A 
ATOM     23  C15 UNL     1      22.937  13.860  28.349  0.00  0.00    +0.007 A 
ATOM     24  C16 UNL     1      23.678  13.835  27.164  0.00  0.00    +0.038 A 
ATOM     25  C17 UNL     1      23.523  14.850  26.219  0.00  0.00    +0.123 A 
ATOM     26  F1  UNL     1      24.243  14.823  25.069  0.00  0.00    -0.205 F 
ATOM     27  C18 UNL     1      22.624  15.894  26.456  0.00  0.00    +0.038 A 
ATOM     28  C19 UNL     1      21.881  15.925  27.639  0.00  0.00    +0.007 A 
ENDBRANCH   7  22
TORSDOF 3
ENDMDL
MODEL 4
REMARK VINA RESULT:    -6.887     10.540     13.188
REMARK INTER + INTRA:          -8.253
REMARK INTER:                  -7.732
REMARK INTRA:                  -0.520
REMARK UNBOUND:                -0.157
REMARK  Name = /home/qwerty/github/datacon2025hack/step_04_hit_selection/docking/ligands/lig_243.pdb
REMARK  4 active torsions:
REMARK  status: ('A' for Active; 'I' for Inactive)
REMARK    1  A    between atoms: C1_1  and  O1_2
REMARK    2  A    between atoms: O1_2  and  C2_3
REMARK    3  A    between atoms: C9_11  and  N1_12
REMARK    4  A    between atoms: C13_18  and  C14_19
REMARK                            x       y       z     vdW  Elec       q    Type
REMARK                         _______ _______ _______ _____ _____    ______ ____
ROOT
ATOM      1  N1  UNL     1      12.735  13.918  27.978  0.00  0.00    -0.293 N 
ATOM      2  C10 UNL     1      11.876  13.880  29.131  0.00  0.00    +0.303 C 
ATOM      3  O3  UNL     1      12.359  14.087  30.278  0.00  0.00    -0.253 OA
ATOM      4  N2  UNL     1      10.470  13.607  28.996  0.00  0.00    -0.285 N 
ATOM      5  C11 UNL     1       9.555  13.639  30.124  0.00  0.00    +0.110 C 
ATOM      6  C12 UNL     1       8.162  13.435  29.540  0.00  0.00    +0.029 C 
ATOM      7  C13 UNL     1       8.364  12.944  28.098  0.00  0.00    +0.038 C 
ATOM      8  C20 UNL     1       9.818  13.277  27.740  0.00  0.00    +0.117 C 
ATOM      9  H10 UNL     1      12.332  13.712  27.037  0.00  0.00    +0.151 HD
ENDROOT
BRANCH   1  18
ATOM     10  C2  UNL     1      18.833  15.881  26.864  0.00  0.00    +0.124 A 
ATOM     11  C3  UNL     1      17.964  16.925  26.494  0.00  0.00    +0.046 A 
ATOM     12  C4  UNL     1      16.578  16.753  26.580  0.00  0.00    +0.011 A 
ATOM     13  C5  UNL     1      16.044  15.543  27.043  0.00  0.00    -0.004 A 
ATOM     14  C6  UNL     1      16.911  14.490  27.391  0.00  0.00    +0.127 A 
ATOM     15  C7  UNL     1      18.296  14.669  27.311  0.00  0.00    +0.091 A 
ATOM     16  O2  UNL     1      16.396  13.270  27.844  0.00  0.00    -0.490 OA
ATOM     17  C8  UNL     1      15.003  12.965  27.773  0.00  0.00    +0.251 C 
ATOM     18  C9  UNL     1      14.167  14.217  28.084  0.00  0.00    +0.116 C 
ATOM     19  C21 UNL     1      14.549  15.346  27.108  0.00  0.00    +0.064 C 
BRANCH  10  21
ATOM     20  C1  UNL     1      21.027  16.628  27.801  0.00  0.00    +0.277 C 
ATOM     21  O1  UNL     1      20.229  16.007  26.800  0.00  0.00    -0.495 OA
ENDBRANCH  10  21
ENDBRANCH   1  18
BRANCH   7  22
ATOM     22  C14 UNL     1       8.068  11.459  27.964  0.00  0.00    -0.043 A 
ATOM     23  C15 UNL     1       7.549  10.719  29.045  0.00  0.00    +0.007 A 
ATOM     24  C16 UNL     1       7.273   9.356  28.902  0.00  0.00    +0.038 A 
ATOM     25  C17 UNL     1       7.507   8.718  27.683  0.00  0.00    +0.123 A 
ATOM     26  F1  UNL     1       7.238   7.396  27.547  0.00  0.00    -0.205 F 
ATOM     27  C18 UNL     1       8.017   9.442  26.602  0.00  0.00    +0.038 A 
ATOM     28  C19 UNL     1       8.296  10.805  26.740  0.00  0.00    +0.007 A 
ENDBRANCH   7  22
TORSDOF 3
ENDMDL
MODEL 5
REMARK VINA RESULT:    -6.875      9.632     12.012
REMARK INTER + INTRA:          -8.238
REMARK INTER:                  -7.714
REMARK INTRA:                  -0.524
REMARK UNBOUND:                -0.157
REMARK  Name = /home/qwerty/github/datacon2025hack/step_04_hit_selection/docking/ligands/lig_243.pdb
REMARK  4 active torsions:
REMARK  status: ('A' for Active; 'I' for Inactive)
REMARK    1  A    between atoms: C1_1  and  O1_2
REMARK    2  A    between atoms: O1_2  and  C2_3
REMARK    3  A    between atoms: C9_11  and  N1_12
REMARK    4  A    between atoms: C13_18  and  C14_19
REMARK                            x       y       z     vdW  Elec       q    Type
REMARK                         _______ _______ _______ _____ _____    ______ ____
ROOT
ATOM      1  N1  UNL     1      19.013   1.287  32.224  0.00  0.00    -0.293 N 
ATOM      2  C10 UNL     1      20.301   1.916  32.114  0.00  0.00    +0.303 C 
ATOM      3  O3  UNL     1      20.637   2.803  32.946  0.00  0.00    -0.253 OA
ATOM      4  N2  UNL     1      21.216   1.549  31.066  0.00  0.00    -0.285 N 
ATOM      5  C11 UNL     1      22.556   2.101  30.968  0.00  0.00    +0.110 C 
ATOM      6  C12 UNL     1      23.232   1.360  29.820  0.00  0.00    +0.029 C 
ATOM      7  C13 UNL     1      22.116   0.624  29.061  0.00  0.00    +0.038 C 
ATOM      8  C20 UNL     1      20.909   0.600  30.009  0.00  0.00    +0.117 C 
ATOM      9  H10 UNL     1      18.730   0.578  31.511  0.00  0.00    +0.151 HD
ENDROOT
BRANCH   1  18
ATOM     10  C2  UNL     1      14.413   1.120  36.818  0.00  0.00    +0.124 A 
ATOM     11  C3  UNL     1      15.256   0.008  37.003  0.00  0.00    +0.046 A 
ATOM     12  C4  UNL     1      16.309  -0.235  36.114  0.00  0.00    +0.011 A 
ATOM     13  C5  UNL     1      16.539   0.632  35.037  0.00  0.00    -0.004 A 
ATOM     14  C6  UNL     1      15.684   1.732  34.838  0.00  0.00    +0.127 A 
ATOM     15  C7  UNL     1      14.637   1.975  35.733  0.00  0.00    +0.091 A 
ATOM     16  O2  UNL     1      15.891   2.602  33.761  0.00  0.00    -0.490 OA
ATOM     17  C8  UNL     1      16.819   2.306  32.718  0.00  0.00    +0.251 C 
ATOM     18  C9  UNL     1      18.070   1.625  33.295  0.00  0.00    +0.116 C 
ATOM     19  C21 UNL     1      17.656   0.354  34.062  0.00  0.00    +0.064 C 
BRANCH  10  21
ATOM     20  C1  UNL     1      12.370   0.461  38.099  0.00  0.00    +0.277 C 
ATOM     21  O1  UNL     1      13.348   1.408  37.684  0.00  0.00    -0.495 OA
ENDBRANCH  10  21
ENDBRANCH   1  18
BRANCH   7  22
ATOM     22  C14 UNL     1      21.793   1.304  27.741  0.00  0.00    -0.043 A 
ATOM     23  C15 UNL     1      22.564   2.385  27.270  0.00  0.00    +0.007 A 
ATOM     24  C16 UNL     1      22.260   2.993  26.049  0.00  0.00    +0.038 A 
ATOM     25  C17 UNL     1      21.189   2.529  25.282  0.00  0.00    +0.123 A 
ATOM     26  F1  UNL     1      20.896   3.119  24.097  0.00  0.00    -0.205 F 
ATOM     27  C18 UNL     1      20.419   1.454  25.736  0.00  0.00    +0.038 A 
ATOM     28  C19 UNL     1      20.719   0.844  26.958  0.00  0.00    +0.007 A 
ENDBRANCH   7  22
TORSDOF 3
ENDMDL
MODEL 6
REMARK VINA RESULT:    -6.832      7.693     11.165
REMARK INTER + INTRA:          -8.187
REMARK INTER:                  -7.647
REMARK INTRA:                  -0.540
REMARK UNBOUND:                -0.157
REMARK  Name = /home/qwerty/github/datacon2025hack/step_04_hit_selection/docking/ligands/lig_243.pdb
REMARK  4 active torsions:
REMARK  status: ('A' for Active; 'I' for Inactive)
REMARK    1  A    between atoms: C1_1  and  O1_2
REMARK    2  A    between atoms: O1_2  and  C2_3
REMARK    3  A    between atoms: C9_11  and  N1_12
REMARK    4  A    between atoms: C13_18  and  C14_19
REMARK                            x       y       z     vdW  Elec       q    Type
REMARK                         _______ _______ _______ _____ _____    ______ ____
ROOT
ATOM      1  N1  UNL     1      17.822  10.287  35.401  0.00  0.00    -0.293 N 
ATOM      2  C10 UNL     1      18.808   9.944  36.389  0.00  0.00    +0.303 C 
ATOM      3  O3  UNL     1      18.804  10.530  37.507  0.00  0.00    -0.253 OA
ATOM      4  N2  UNL     1      19.803   8.939  36.123  0.00  0.00    -0.285 N 
ATOM      5  C11 UNL     1      20.765   8.505  37.121  0.00  0.00    +0.110 C 
ATOM      6  C12 UNL     1      21.533   7.351  36.490  0.00  0.00    +0.029 C 
ATOM      7  C13 UNL     1      21.206   7.381  34.988  0.00  0.00    +0.038 C 
ATOM      8  C20 UNL     1      19.953   8.255  34.849  0.00  0.00    +0.117 C 
ATOM      9  H10 UNL     1      17.854   9.821  34.467  0.00  0.00    +0.151 HD
ENDROOT
BRANCH   1  18
ATOM     10  C2  UNL     1      12.173  13.439  36.063  0.00  0.00    +0.124 A 
ATOM     11  C3  UNL     1      12.048  12.183  36.687  0.00  0.00    +0.046 A 
ATOM     12  C4  UNL     1      13.106  11.269  36.649  0.00  0.00    +0.011 A 
ATOM     13  C5  UNL     1      14.302  11.599  35.998  0.00  0.00    -0.004 A 
ATOM     14  C6  UNL     1      14.420  12.844  35.354  0.00  0.00    +0.127 A 
ATOM     15  C7  UNL     1      13.363  13.759  35.400  0.00  0.00    +0.091 A 
ATOM     16  O2  UNL     1      15.603  13.187  34.688  0.00  0.00    -0.490 OA
ATOM     17  C8  UNL     1      16.639  12.235  34.449  0.00  0.00    +0.251 C 
ATOM     18  C9  UNL     1      16.783  11.290  35.654  0.00  0.00    +0.116 C 
ATOM     19  C21 UNL     1      15.433  10.602  35.931  0.00  0.00    +0.064 C 
BRANCH  10  21
ATOM     20  C1  UNL     1       9.755  14.074  36.088  0.00  0.00    +0.277 C 
ATOM     21  O1  UNL     1      11.143  14.391  36.077  0.00  0.00    -0.495 OA
ENDBRANCH  10  21
ENDBRANCH   1  18
BRANCH   7  22
ATOM     22  C14 UNL     1      22.370   7.915  34.171  0.00  0.00    -0.043 A 
ATOM     23  C15 UNL     1      23.638   7.301  34.220  0.00  0.00    +0.007 A 
ATOM     24  C16 UNL     1      24.696   7.800  33.455  0.00  0.00    +0.038 A 
ATOM     25  C17 UNL     1      24.502   8.910  32.631  0.00  0.00    +0.123 A 
ATOM     26  F1  UNL     1      25.530   9.392  31.888  0.00  0.00    -0.205 F 
ATOM     27  C18 UNL     1      23.249   9.525  32.570  0.00  0.00    +0.038 A 
ATOM     28  C19 UNL     1      22.188   9.031  33.334  0.00  0.00    +0.007 A 
ENDBRANCH   7  22
TORSDOF 3
ENDMDL
MODEL 7
REMARK VINA RESULT:    -6.799      8.468      9.011
REMARK INTER + INTRA:          -8.149
REMARK INTER:                  -7.615
REMARK INTRA:                  -0.533
REMARK UNBOUND:                -0.157
REMARK  Name = /home/qwerty/github/datacon2025hack/step_04_hit_selection/docking/ligands/lig_243.pdb
REMARK  4 active torsions:
REMARK  status: ('A' for Active; 'I' for Inactive)
REMARK    1  A    between atoms: C1_1  and  O1_2
REMARK    2  A    between atoms: O1_2  and  C2_3
REMARK    3  A    between atoms: C9_11  and  N1_12
REMARK    4  A    between atoms: C13_18  and  C14_19
REMARK                            x       y       z     vdW  Elec       q    Type
REMARK                         _______ _______ _______ _____ _____    ______ ____
ROOT
ATOM      1  N1  UNL     1      20.762   3.935  24.661  0.00  0.00    -0.293 N 
ATOM      2  C10 UNL     1      21.643   4.979  24.211  0.00  0.00    +0.303 C 
ATOM      3  O3  UNL     1      22.351   5.605  25.047  0.00  0.00    -0.253 OA
ATOM      4  N2  UNL     1      21.730   5.322  22.816  0.00  0.00    -0.285 N 
ATOM      5  C11 UNL     1      22.665   6.312  22.310  0.00  0.00    +0.110 C 
ATOM      6  C12 UNL     1      22.535   6.274  20.792  0.00  0.00    +0.029 C 
ATOM      7  C13 UNL     1      21.254   5.481  20.486  0.00  0.00    +0.038 C 
ATOM      8  C20 UNL     1      20.910   4.725  21.775  0.00  0.00    +0.117 C 
ATOM      9  H10 UNL     1      20.156   3.446  23.966  0.00  0.00    +0.151 HD
ENDROOT
BRANCH   1  18
ATOM     10  C2  UNL     1      20.765   0.673  30.287  0.00  0.00    +0.124 A 
ATOM     11  C3  UNL     1      21.929   0.321  29.577  0.00  0.00    +0.046 A 
ATOM     12  C4  UNL     1      22.159   0.840  28.299  0.00  0.00    +0.011 A 
ATOM     13  C5  UNL     1      21.237   1.721  27.716  0.00  0.00    -0.004 A 
ATOM     14  C6  UNL     1      20.063   2.056  28.415  0.00  0.00    +0.127 A 
ATOM     15  C7  UNL     1      19.839   1.541  29.696  0.00  0.00    +0.091 A 
ATOM     16  O2  UNL     1      19.125   2.924  27.845  0.00  0.00    -0.490 OA
ATOM     17  C8  UNL     1      19.204   3.332  26.480  0.00  0.00    +0.251 C 
ATOM     18  C9  UNL     1      20.671   3.549  26.073  0.00  0.00    +0.116 C 
ATOM     19  C21 UNL     1      21.471   2.257  26.326  0.00  0.00    +0.064 C 
BRANCH  10  21
ATOM     20  C1  UNL     1      19.680   0.852  32.532  0.00  0.00    +0.277 C 
ATOM     21  O1  UNL     1      20.492   0.183  31.572  0.00  0.00    -0.495 OA
ENDBRANCH  10  21
ENDBRANCH   1  18
BRANCH   7  22
ATOM     22  C14 UNL     1      20.124   6.393  20.038  0.00  0.00    -0.043 A 
ATOM     23  C15 UNL     1      20.187   7.083  18.811  0.00  0.00    +0.007 A 
ATOM     24  C16 UNL     1      19.133   7.910  18.409  0.00  0.00    +0.038 A 
ATOM     25  C17 UNL     1      18.007   8.055  19.221  0.00  0.00    +0.123 A 
ATOM     26  F1  UNL     1      16.986   8.857  18.829  0.00  0.00    -0.205 F 
ATOM     27  C18 UNL     1      17.931   7.372  20.438  0.00  0.00    +0.038 A 
ATOM     28  C19 UNL     1      18.982   6.544  20.845  0.00  0.00    +0.007 A 
ENDBRANCH   7  22
TORSDOF 3
ENDMDL
MODEL 8
REMARK VINA RESULT:    -6.780     14.134     15.412
REMARK INTER + INTRA:          -8.126
REMARK INTER:                  -7.621
REMARK INTRA:                  -0.505
REMARK UNBOUND:                -0.157
REMARK  Name = /home/qwerty/github/datacon2025hack/step_04_hit_selection/docking/ligands/lig_243.pdb
REMARK  4 active torsions:
REMARK  status: ('A' for Active; 'I' for Inactive)
REMARK    1  A    between atoms: C1_1  and  O1_2
REMARK    2  A    between atoms: O1_2  and  C2_3
REMARK    3  A    between atoms: C9_11  and  N1_12
REMARK    4  A    between atoms: C13_18  and  C14_19
REMARK                            x       y       z     vdW  Elec       q    Type
REMARK                         _______ _______ _______ _____ _____    ______ ____
ROOT
ATOM      1  N1  UNL     1       8.247   8.821  29.434  0.00  0.00    -0.293 N 
ATOM      2  C10 UNL     1       8.224   9.659  28.266  0.00  0.00    +0.303 C 
ATOM      3  O3  UNL     1       8.107   9.137  27.124  0.00  0.00    -0.253 OA
ATOM      4  N2  UNL     1       8.336  11.089  28.381  0.00  0.00    -0.285 N 
ATOM      5  C11 UNL     1       8.236  11.977  27.235  0.00  0.00    +0.110 C 
ATOM      6  C12 UNL     1       8.267  13.393  27.797  0.00  0.00    +0.029 C 
ATOM      7  C13 UNL     1       8.733  13.270  29.256  0.00  0.00    +0.038 C 
ATOM      8  C20 UNL     1       8.552  11.794  29.633  0.00  0.00    +0.117 C 
ATOM      9  H10 UNL     1       8.378   9.259  30.373  0.00  0.00    +0.151 HD
ENDROOT
BRANCH   1  18
ATOM     10  C2  UNL     1       6.636   2.599  30.427  0.00  0.00    +0.124 A 
ATOM     11  C3  UNL     1       5.460   3.371  30.492  0.00  0.00    +0.046 A 
ATOM     12  C4  UNL     1       5.522   4.762  30.366  0.00  0.00    +0.011 A 
ATOM     13  C5  UNL     1       6.754   5.400  30.165  0.00  0.00    -0.004 A 
ATOM     14  C6  UNL     1       7.932   4.633  30.122  0.00  0.00    +0.127 A 
ATOM     15  C7  UNL     1       7.866   3.241  30.241  0.00  0.00    +0.091 A 
ATOM     16  O2  UNL     1       9.173   5.252  29.934  0.00  0.00    -0.490 OA
ATOM     17  C8  UNL     1       9.326   6.670  29.990  0.00  0.00    +0.251 C 
ATOM     18  C9  UNL     1       8.113   7.363  29.348  0.00  0.00    +0.116 C 
ATOM     19  C21 UNL     1       6.824   6.903  30.058  0.00  0.00    +0.064 C 
BRANCH  10  21
ATOM     20  C1  UNL     1       6.494   0.304  29.447  0.00  0.00    +0.277 C 
ATOM     21  O1  UNL     1       6.625   1.202  30.544  0.00  0.00    -0.495 OA
ENDBRANCH  10  21
ENDBRANCH   1  18
BRANCH   7  22
ATOM     22  C14 UNL     1      10.171  13.732  29.426  0.00  0.00    -0.043 A 
ATOM     23  C15 UNL     1      10.815  13.667  30.678  0.00  0.00    +0.007 A 
ATOM     24  C16 UNL     1      12.141  14.087  30.814  0.00  0.00    +0.038 A 
ATOM     25  C17 UNL     1      12.841  14.570  29.707  0.00  0.00    +0.123 A 
ATOM     26  F1  UNL     1      14.128  14.976  29.842  0.00  0.00    -0.205 F 
ATOM     27  C18 UNL     1      12.215  14.635  28.459  0.00  0.00    +0.038 A 
ATOM     28  C19 UNL     1      10.888  14.218  28.318  0.00  0.00    +0.007 A 
ENDBRANCH   7  22
TORSDOF 3
ENDMDL
MODEL 9
REMARK VINA RESULT:    -6.739     16.138     18.949
REMARK INTER + INTRA:          -8.079
REMARK INTER:                  -7.660
REMARK INTRA:                  -0.419
REMARK UNBOUND:                -0.157
REMARK  Name = /home/qwerty/github/datacon2025hack/step_04_hit_selection/docking/ligands/lig_243.pdb
REMARK  4 active torsions:
REMARK  status: ('A' for Active; 'I' for Inactive)
REMARK    1  A    between atoms: C1_1  and  O1_2
REMARK    2  A    between atoms: O1_2  and  C2_3
REMARK    3  A    between atoms: C9_11  and  N1_12
REMARK    4  A    between atoms: C13_18  and  C14_19
REMARK                            x       y       z     vdW  Elec       q    Type
REMARK                         _______ _______ _______ _____ _____    ______ ____
ROOT
ATOM      1  N1  UNL     1       7.556   5.061  28.483  0.00  0.00    -0.293 N 
ATOM      2  C10 UNL     1       6.398   4.213  28.550  0.00  0.00    +0.303 C 
ATOM      3  O3  UNL     1       5.289   4.694  28.911  0.00  0.00    -0.253 OA
ATOM      4  N2  UNL     1       6.484   2.817  28.211  0.00  0.00    -0.285 N 
ATOM      5  C11 UNL     1       5.322   1.944  28.186  0.00  0.00    +0.110 C 
ATOM      6  C12 UNL     1       5.815   0.605  27.652  0.00  0.00    +0.029 C 
ATOM      7  C13 UNL     1       7.351   0.654  27.706  0.00  0.00    +0.038 C 
ATOM      8  C20 UNL     1       7.718   2.136  27.858  0.00  0.00    +0.117 C 
ATOM      9  H10 UNL     1       8.476   4.646  28.216  0.00  0.00    +0.151 HD
ENDROOT
BRANCH   1  18
ATOM     10  C2  UNL     1       8.453  11.500  28.637  0.00  0.00    +0.124 A 
ATOM     11  C3  UNL     1       8.300  11.112  27.292  0.00  0.00    +0.046 A 
ATOM     12  C4  UNL     1       8.145   9.762  26.961  0.00  0.00    +0.011 A 
ATOM     13  C5  UNL     1       8.131   8.785  27.965  0.00  0.00    -0.004 A 
ATOM     14  C6  UNL     1       8.306   9.169  29.308  0.00  0.00    +0.127 A 
ATOM     15  C7  UNL     1       8.454  10.520  29.636  0.00  0.00    +0.091 A 
ATOM     16  O2  UNL     1       8.308   8.206  30.324  0.00  0.00    -0.490 OA
ATOM     17  C8  UNL     1       8.346   6.808  30.040  0.00  0.00    +0.251 C 
ATOM     18  C9  UNL     1       7.493   6.491  28.801  0.00  0.00    +0.116 C 
ATOM     19  C21 UNL     1       7.993   7.326  27.606  0.00  0.00    +0.064 C 
BRANCH  10  21
ATOM     20  C1  UNL     1       7.584  13.631  29.614  0.00  0.00    +0.277 C 
ATOM     21  O1  UNL     1       8.608  12.841  29.019  0.00  0.00    -0.495 OA
ENDBRANCH  10  21
ENDBRANCH   1  18
BRANCH   7  22
ATOM     22  C14 UNL     1       7.899  -0.190  28.845  0.00  0.00    -0.043 A 
ATOM     23  C15 UNL     1       9.191  -0.749  28.781  0.00  0.00    +0.007 A 
ATOM     24  C16 UNL     1       9.684  -1.516  29.841  0.00  0.00    +0.038 A 
ATOM     25  C17 UNL     1       8.899  -1.729  30.976  0.00  0.00    +0.123 A 
ATOM     26  F1  UNL     1       9.380  -2.472  32.004  0.00  0.00    -0.205 F 
ATOM     27  C18 UNL     1       7.618  -1.175  31.054  0.00  0.00    +0.038 A 
ATOM     28  C19 UNL     1       7.120  -0.409  29.995  0.00  0.00    +0.007 A 
ENDBRANCH   7  22
TORSDOF 3
ENDMDL
