REMARK  Name = /home/qwerty/github/datacon2025hack/step_04_hit_selection/docking/ligands/lig_309.pdb
REMARK  5 active torsions:
REMARK  status: ('A' for Active; 'I' for Inactive)
REMARK    1  A    between atoms: C1_1  and  C2_2
REMARK    2  A    between atoms: C2_2  and  C3_3
REMARK    3  A    between atoms: C2_2  and  N3_9
REMARK    4  A    between atoms: C9_12  and  N4_13
REMARK    5  A    between atoms: C10_14  and  C11_16
REMARK                            x       y       z     vdW  Elec       q    Type
REMARK                         _______ _______ _______ _____ _____    ______ ____
ROOT
ATOM      1  N3  UNL     1      -2.797  -0.123  -0.481  0.00  0.00    -0.292 NA
ATOM      2  C7  UNL     1      -2.245  -0.989  -1.538  0.00  0.00    +0.087 C 
ATOM      3  C8  UNL     1      -1.147  -1.846  -0.914  0.00  0.00    +0.039 C 
ATOM      4  C9  UNL     1      -1.009  -1.347   0.516  0.00  0.00    +0.088 C 
ATOM      5  C18 UNL     1      -1.719  -0.003   0.507  0.00  0.00    +0.107 C 
ENDROOT
BRANCH   4   6
ATOM      6  N4  UNL     1       0.397  -1.230   0.919  0.00  0.00    -0.306 N 
ATOM      7  C10 UNL     1       1.234  -2.384   1.077  0.00  0.00    +0.262 C 
ATOM      8  O1  UNL     1       0.713  -3.529   1.165  0.00  0.00    -0.269 OA
ATOM      9  H13 UNL     1       0.782  -0.296   1.181  0.00  0.00    +0.149 HD
BRANCH   7  10
ATOM     10  C11 UNL     1       2.701  -2.255   1.175  0.00  0.00    +0.124 A 
ATOM     11  C12 UNL     1       3.533  -3.121   1.857  0.00  0.00    +0.143 A 
ATOM     12  N5  UNL     1       4.817  -2.735   1.699  0.00  0.00    -0.240 NA
ATOM     13  C13 UNL     1       4.735  -1.634   0.923  0.00  0.00    +0.110 A 
ATOM     14  N6  UNL     1       3.471  -1.330   0.565  0.00  0.00    -0.324 N 
ATOM     15  C14 UNL     1       3.080  -0.215  -0.304  0.00  0.00    +0.124 C 
ATOM     16  C15 UNL     1       4.276   0.270  -1.136  0.00  0.00    +0.022 C 
ATOM     17  C16 UNL     1       5.523   0.427  -0.253  0.00  0.00    +0.009 C 
ATOM     18  C17 UNL     1       5.931  -0.914   0.374  0.00  0.00    +0.074 C 
ENDBRANCH   7  10
ENDBRANCH   4   6
BRANCH   1  20
ATOM     19  C1  UNL     1      -4.381   1.035  -2.020  0.00  0.00    +0.031 C 
ATOM     20  C2  UNL     1      -3.250   1.197  -0.992  0.00  0.00    +0.104 C 
BRANCH  20  21
ATOM     21  C3  UNL     1      -3.745   2.071   0.140  0.00  0.00    +0.076 A 
ATOM     22  C4  UNL     1      -4.718   1.618   1.046  0.00  0.00    +0.135 A 
ATOM     23  N1  UNL     1      -5.138   2.438   2.044  0.00  0.00    -0.260 NA
ATOM     24  C5  UNL     1      -4.637   3.693   2.182  0.00  0.00    +0.130 A 
ATOM     25  C6  UNL     1      -3.673   4.150   1.281  0.00  0.00    +0.131 A 
ATOM     26  N2  UNL     1      -3.251   3.332   0.283  0.00  0.00    -0.255 NA
ENDBRANCH  20  21
ENDBRANCH   1  20
TORSDOF 4
