REMARK  Name = /home/qwerty/github/datacon2025hack/step_04_hit_selection/docking/ligands/lig_544.pdb
REMARK  9 active torsions:
REMARK  status: ('A' for Active; 'I' for Inactive)
REMARK    1  A    between atoms: C1_1  and  C2_2
REMARK    2  A    between atoms: C2_2  and  C3_3
REMARK    3  A    between atoms: C2_2  and  C18_24
REMARK    4  A    between atoms: C3_3  and  N1_4
REMARK    5  A    between atoms: N2_7  and  C5_8
REMARK    6  A    between atoms: C11_15  and  C12_17
REMARK    7  A    between atoms: C12_17  and  C13_18
REMARK    8  A    between atoms: C12_17  and  C14_19
REMARK    9  A    between atoms: C12_17  and  C15_20
REMARK                            x       y       z     vdW  Elec       q    Type
REMARK                         _______ _______ _______ _____ _____    ______ ____
ROOT
ATOM      1  C5  UNL     1      -0.381  -1.672   1.957  0.00  0.00    +0.037 A 
ATOM      2  C6  UNL     1      -0.819  -2.537   2.970  0.00  0.00    +0.027 A 
ATOM      3  C7  UNL     1      -2.178  -2.632   3.279  0.00  0.00    +0.049 A 
ATOM      4  C8  UNL     1      -3.111  -1.857   2.587  0.00  0.00    +0.142 A 
ATOM      5  C9  UNL     1      -2.688  -0.951   1.599  0.00  0.00    +0.080 A 
ATOM      6  C10 UNL     1      -1.317  -0.861   1.291  0.00  0.00    +0.050 A 
ATOM      7  N3  UNL     1      -3.679  -0.127   0.945  0.00  0.00    -0.265 N 
ATOM      8  C11 UNL     1      -3.311   0.818  -0.073  0.00  0.00    +0.225 C 
ATOM      9  O2  UNL     1      -3.001   1.991   0.273  0.00  0.00    -0.275 OA
ATOM     10  C16 UNL     1      -5.030  -0.044   1.513  0.00  0.00    +0.154 C 
ATOM     11  C17 UNL     1      -5.472  -1.413   2.034  0.00  0.00    +0.248 C 
ATOM     12  O3  UNL     1      -4.472  -1.971   2.885  0.00  0.00    -0.489 OA
ENDROOT
BRANCH   1  16
ATOM     13  N1  UNL     1       2.911  -1.008   0.161  0.00  0.00    -0.299 N 
ATOM     14  C4  UNL     1       1.538  -1.376   0.334  0.00  0.00    +0.304 C 
ATOM     15  O1  UNL     1       0.796  -1.534  -0.673  0.00  0.00    -0.253 OA
ATOM     16  N2  UNL     1       1.021  -1.587   1.656  0.00  0.00    -0.269 N 
ATOM     17  H7  UNL     1       3.479  -0.800   1.014  0.00  0.00    +0.150 HD
ATOM     18  H8  UNL     1       1.705  -1.801   2.416  0.00  0.00    +0.156 HD
BRANCH  13  19
ATOM     19  C3  UNL     1       3.532  -0.953  -1.163  0.00  0.00    +0.113 C 
BRANCH  19  21
ATOM     20  C1  UNL     1       5.648  -0.398  -2.443  0.00  0.00    +0.014 C 
ATOM     21  C2  UNL     1       4.909  -0.263  -1.104  0.00  0.00    +0.033 C 
BRANCH  21  22
ATOM     22  C18 UNL     1       4.773   1.195  -0.703  0.00  0.00    -0.043 A 
ATOM     23  C19 UNL     1       5.287   1.635   0.531  0.00  0.00    +0.004 A 
ATOM     24  C20 UNL     1       5.146   2.970   0.920  0.00  0.00    +0.000 A 
ATOM     25  C21 UNL     1       4.493   3.879   0.085  0.00  0.00    +0.000 A 
ATOM     26  C22 UNL     1       3.977   3.455  -1.142  0.00  0.00    +0.000 A 
ATOM     27  C23 UNL     1       4.110   2.121  -1.534  0.00  0.00    +0.004 A 
ENDBRANCH  21  22
ENDBRANCH  19  21
ENDBRANCH  13  19
ENDBRANCH   1  16
BRANCH   8  28
ATOM     28  C12 UNL     1      -3.356   0.450  -1.548  0.00  0.00    +0.039 C 
ATOM     29  C13 UNL     1      -3.455  -1.079  -1.741  0.00  0.00    +0.020 C 
ATOM     30  C14 UNL     1      -4.586   1.117  -2.190  0.00  0.00    +0.020 C 
ATOM     31  C15 UNL     1      -2.078   0.955  -2.249  0.00  0.00    +0.020 C 
ENDBRANCH   8  28
TORSDOF 5
