REMARK  Name = /home/qwerty/github/datacon2025hack/step_04_hit_selection/docking/ligands/lig_13.pdb
REMARK  8 active torsions:
REMARK  status: ('A' for Active; 'I' for Inactive)
REMARK    1  A    between atoms: C1_1  and  N1_2
REMARK    2  A    between atoms: N1_2  and  C2_3
REMARK    3  A    between atoms: N1_2  and  C3_4
REMARK    4  A    between atoms: C6_7  and  C7_8
REMARK    5  A    between atoms: N2_10  and  C8_11
REMARK    6  A    between atoms: C11_14  and  C12_15
REMARK    7  A    between atoms: C16_21  and  C17_22
REMARK    8  A    between atoms: C19_25  and  C20_26
REMARK                            x       y       z     vdW  Elec       q    Type
REMARK                         _______ _______ _______ _____ _____    ______ ____
ROOT
ATOM      1  C12 UNL     1      -1.636   1.833  -2.846  0.00  0.00    +0.072 A 
ATOM      2  C13 UNL     1      -1.432   2.527  -4.076  0.00  0.00    +0.030 A 
ATOM      3  C14 UNL     1      -2.527   3.097  -4.756  0.00  0.00    +0.031 A 
ATOM      4  C15 UNL     1      -3.780   2.942  -4.180  0.00  0.00    +0.085 A 
ATOM      5  N3  UNL     1      -4.976   3.385  -4.601  0.00  0.00    -0.275 N 
ATOM      6  N4  UNL     1      -5.899   3.005  -3.720  0.00  0.00    -0.168 NA
ATOM      7  C16 UNL     1      -5.281   2.311  -2.731  0.00  0.00    +0.153 A 
ATOM      8  C28 UNL     1      -3.938   2.267  -3.017  0.00  0.00    +0.120 A 
ATOM      9  N9  UNL     1      -2.904   1.713  -2.342  0.00  0.00    -0.243 NA
ATOM     10  H14 UNL     1      -5.172   3.939  -5.465  0.00  0.00    +0.189 HD
ENDROOT
BRANCH   7  11
ATOM     11  C17 UNL     1      -5.956   1.728  -1.565  0.00  0.00    +0.162 A 
ATOM     12  N5  UNL     1      -5.300   1.006  -0.619  0.00  0.00    -0.225 NA
ATOM     13  C18 UNL     1      -6.278   0.680   0.246  0.00  0.00    +0.100 A 
ATOM     14  C19 UNL     1      -6.172  -0.043   1.440  0.00  0.00    +0.028 A 
ATOM     15  C25 UNL     1      -7.364  -0.189   2.190  0.00  0.00    +0.121 A 
ATOM     16  N7  UNL     1      -8.543   0.350   1.742  0.00  0.00    -0.260 NA
ATOM     17  C26 UNL     1      -8.624   1.046   0.571  0.00  0.00    +0.138 A 
ATOM     18  C27 UNL     1      -7.462   1.203  -0.171  0.00  0.00    +0.085 A 
ATOM     19  N8  UNL     1      -7.282   1.867  -1.319  0.00  0.00    -0.335 N 
ATOM     20  H21 UNL     1      -7.994   2.388  -1.878  0.00  0.00    +0.167 HD
BRANCH  14  21
ATOM     21  C20 UNL     1      -4.888  -0.626   1.901  0.00  0.00    -0.011 A 
ATOM     22  C21 UNL     1      -4.518  -0.552   3.254  0.00  0.00    +0.028 A 
ATOM     23  C22 UNL     1      -3.307  -1.111   3.671  0.00  0.00    +0.111 A 
ATOM     24  N6  UNL     1      -2.496  -1.730   2.773  0.00  0.00    -0.263 NA
ATOM     25  C23 UNL     1      -2.829  -1.823   1.459  0.00  0.00    +0.111 A 
ATOM     26  C24 UNL     1      -4.027  -1.273   0.998  0.00  0.00    +0.028 A 
ENDBRANCH  14  21
ENDBRANCH   7  11
BRANCH   1  30
ATOM     27  C8  UNL     1       1.602   0.081  -0.603  0.00  0.00    +0.034 A 
ATOM     28  C9  UNL     1       1.841   1.179  -1.445  0.00  0.00    +0.024 A 
ATOM     29  C10 UNL     1       0.796   1.751  -2.178  0.00  0.00    +0.012 A 
ATOM     30  C11 UNL     1      -0.507   1.225  -2.096  0.00  0.00    +0.000 A 
ATOM     31  C29 UNL     1      -0.738   0.118  -1.260  0.00  0.00    +0.012 A 
ATOM     32  C30 UNL     1       0.308  -0.453  -0.529  0.00  0.00    +0.024 A 
BRANCH  27  35
ATOM     33  C7  UNL     1       3.797   0.184   0.660  0.00  0.00    +0.248 C 
ATOM     34  O1  UNL     1       3.712   1.429   0.845  0.00  0.00    -0.270 OA
ATOM     35  N2  UNL     1       2.663  -0.536   0.147  0.00  0.00    -0.282 N 
ATOM     36  H9  UNL     1       2.544  -1.535   0.428  0.00  0.00    +0.155 HD
BRANCH  33  40
ATOM     37  C3  UNL     1       7.454  -1.858   1.725  0.00  0.00    +0.029 A 
ATOM     38  C4  UNL     1       7.175  -0.563   2.208  0.00  0.00    +0.024 A 
ATOM     39  C5  UNL     1       5.994   0.095   1.858  0.00  0.00    +0.015 A 
ATOM     40  C6  UNL     1       5.049  -0.523   1.024  0.00  0.00    +0.037 A 
ATOM     41  C31 UNL     1       5.325  -1.810   0.531  0.00  0.00    +0.015 A 
ATOM     42  C32 UNL     1       6.509  -2.467   0.876  0.00  0.00    +0.024 A 
BRANCH  37  44
ATOM     43  C1  UNL     1       9.503  -2.065   3.209  0.00  0.00    +0.129 C 
ATOM     44  N1  UNL     1       8.684  -2.543   2.088  0.00  0.00    -0.336 N 
ATOM     45  C2  UNL     1       9.129  -3.728   1.343  0.00  0.00    +0.129 C 
ENDBRANCH  37  44
ENDBRANCH  33  40
ENDBRANCH  27  35
ENDBRANCH   1  30
TORSDOF 6
