REMARK  Name = /home/qwerty/github/datacon2025hack/step_04_hit_selection/docking/ligands/lig_701.pdb
REMARK  9 active torsions:
REMARK  status: ('A' for Active; 'I' for Inactive)
REMARK    1  A    between atoms: C1_1  and  O1_2
REMARK    2  A    between atoms: O1_2  and  C2_3
REMARK    3  A    between atoms: C2_3  and  C3_5
REMARK    4  A    between atoms: C5_7  and  N1_8
REMARK    5  A    between atoms: C6_9  and  C7_11
REMARK    6  A    between atoms: N2_17  and  C13_18
REMARK    7  A    between atoms: C13_18  and  C14_19
REMARK    8  A    between atoms: C28_37  and  C29_38
REMARK    9  A    between atoms: C29_38  and  O7_40
REMARK                            x       y       z     vdW  Elec       q    Type
REMARK                         _______ _______ _______ _____ _____    ______ ____
ROOT
ATOM      1  C7  UNL     1       0.415   0.122  -1.640  0.00  0.00    +0.039 A 
ATOM      2  C8  UNL     1       0.031   0.510  -2.933  0.00  0.00    +0.014 A 
ATOM      3  C9  UNL     1      -1.298   0.831  -3.210  0.00  0.00    +0.020 A 
ATOM      4  C10 UNL     1      -2.263   0.784  -2.201  0.00  0.00    +0.065 A 
ATOM      5  C11 UNL     1      -1.900   0.403  -0.896  0.00  0.00    +0.054 A 
ATOM      6  C12 UNL     1      -0.563   0.060  -0.632  0.00  0.00    +0.037 A 
ATOM      7  N2  UNL     1      -2.843   0.472   0.195  0.00  0.00    -0.262 N 
ATOM      8  C20 UNL     1      -4.064  -0.309   0.229  0.00  0.00    +0.252 C 
ATOM      9  O4  UNL     1      -4.720  -0.375   1.305  0.00  0.00    -0.270 OA
ATOM     10  C21 UNL     1      -4.588  -1.069  -0.936  0.00  0.00    +0.053 A 
ATOM     11  C22 UNL     1      -5.137  -2.345  -0.706  0.00  0.00    +0.014 A 
ATOM     12  C23 UNL     1      -5.721  -3.070  -1.747  0.00  0.00    +0.001 A 
ATOM     13  C24 UNL     1      -5.777  -2.528  -3.030  0.00  0.00    +0.001 A 
ATOM     14  C25 UNL     1      -5.248  -1.260  -3.275  0.00  0.00    +0.018 A 
ATOM     15  C26 UNL     1      -4.661  -0.523  -2.239  0.00  0.00    +0.056 A 
ATOM     16  S1  UNL     1      -3.958   1.056  -2.641  0.00  0.00    +0.088 S 
ATOM     17  O5  UNL     1      -4.526   2.046  -1.634  0.00  0.00    -0.247 OA
ENDROOT
BRANCH   1  19
ATOM     18  N1  UNL     1       2.335  -0.211  -0.008  0.00  0.00    -0.281 N 
ATOM     19  C6  UNL     1       1.829  -0.226  -1.354  0.00  0.00    +0.248 C 
ATOM     20  O3  UNL     1       2.607  -0.492  -2.311  0.00  0.00    -0.270 OA
ATOM     21  H5  UNL     1       1.872   0.422   0.683  0.00  0.00    +0.155 HD
BRANCH  18  24
ATOM     22  C3  UNL     1       5.460  -1.006   1.900  0.00  0.00    +0.062 A 
ATOM     23  C4  UNL     1       4.289  -0.364   1.463  0.00  0.00    +0.038 A 
ATOM     24  C5  UNL     1       3.537  -0.887   0.402  0.00  0.00    +0.035 A 
ATOM     25  C27 UNL     1       3.943  -2.088  -0.203  0.00  0.00    +0.038 A 
ATOM     26  C28 UNL     1       5.113  -2.744   0.218  0.00  0.00    +0.061 A 
ATOM     27  C30 UNL     1       5.867  -2.193   1.267  0.00  0.00    +0.030 A 
BRANCH  22  28
ATOM     28  C2  UNL     1       6.258  -0.442   3.013  0.00  0.00    +0.339 C 
ATOM     29  O2  UNL     1       5.894   0.629   3.574  0.00  0.00    -0.245 OA
BRANCH  28  31
ATOM     30  C1  UNL     1       8.224  -0.611   4.508  0.00  0.00    +0.280 C 
ATOM     31  O1  UNL     1       7.417  -1.097   3.443  0.00  0.00    -0.464 OA
ENDBRANCH  28  31
ENDBRANCH  22  28
BRANCH  26  32
ATOM     32  C29 UNL     1       5.546  -4.001  -0.431  0.00  0.00    +0.337 C 
ATOM     33  O6  UNL     1       4.873  -4.497  -1.376  0.00  0.00    -0.245 OA
BRANCH  32  34
ATOM     34  O7  UNL     1       6.704  -4.649  -0.007  0.00  0.00    -0.477 OA
ATOM     35  H20 UNL     1       7.014  -5.503  -0.453  0.00  0.00    +0.295 HD
ENDBRANCH  32  34
ENDBRANCH  26  32
ENDBRANCH  18  24
ENDBRANCH   1  19
BRANCH   7  36
ATOM     36  C13 UNL     1      -2.541   1.392   1.306  0.00  0.00    +0.149 C 
BRANCH  36  37
ATOM     37  C14 UNL     1      -3.073   2.763   1.001  0.00  0.00    -0.030 A 
ATOM     38  C15 UNL     1      -2.321   3.651   0.215  0.00  0.00    +0.008 A 
ATOM     39  C16 UNL     1      -2.832   4.911  -0.108  0.00  0.00    +0.038 A 
ATOM     40  C17 UNL     1      -4.100   5.290   0.343  0.00  0.00    +0.123 A 
ATOM     41  F1  UNL     1      -4.594   6.513   0.028  0.00  0.00    -0.205 F 
ATOM     42  C18 UNL     1      -4.858   4.407   1.118  0.00  0.00    +0.038 A 
ATOM     43  C19 UNL     1      -4.351   3.145   1.442  0.00  0.00    +0.008 A 
ENDBRANCH  36  37
ENDBRANCH   7  36
TORSDOF 8
