MODEL 1
REMARK VINA RESULT:    -5.901      0.000      0.000
REMARK INTER + INTRA:          -8.154
REMARK INTER:                  -7.281
REMARK INTRA:                  -0.873
REMARK UNBOUND:                -0.873
REMARK  Name = /home/qwerty/github/datacon2025hack/step_04_hit_selection/docking/ligands/lig_258.pdb
REMARK  7 active torsions:
REMARK  status: ('A' for Active; 'I' for Inactive)
REMARK    1  A    between atoms: C1_1  and  C2_2
REMARK    2  A    between atoms: C4_5  and  C5_7
REMARK    3  A    between atoms: N2_9  and  C7_10
REMARK    4  A    between atoms: N3_13  and  C9_14
REMARK    5  A    between atoms: C11_16  and  C12_17
REMARK    6  A    between atoms: C12_17  and  N4_18
REMARK    7  A    between atoms: C13_19  and  C14_21
REMARK                            x       y       z     vdW  Elec       q    Type
REMARK                         _______ _______ _______ _____ _____    ______ ____
ROOT
ATOM      1  C1  UNL     1      20.632   5.425  27.169  0.00  0.00    +0.009 C 
ATOM      2  C2  UNL     1      20.809   3.902  27.237  0.00  0.00    +0.009 C 
ATOM      3  C3  UNL     1      20.960   3.418  28.681  0.00  0.00    +0.111 C 
ATOM      4  N1  UNL     1      21.957   2.362  28.638  0.00  0.00    -0.296 N 
ATOM      5  C4  UNL     1      22.374   1.617  29.793  0.00  0.00    +0.265 C 
ATOM      6  O1  UNL     1      23.551   1.171  29.860  0.00  0.00    -0.268 OA
ATOM      7  C10 UNL     1      22.627   2.261  27.354  0.00  0.00    +0.113 C 
ATOM      8  C11 UNL     1      22.075   3.409  26.499  0.00  0.00    +0.028 C 
ENDROOT
BRANCH   5   9
ATOM      9  C5  UNL     1      21.459   1.384  30.923  0.00  0.00    +0.125 A 
ATOM     10  C6  UNL     1      20.444   0.442  30.946  0.00  0.00    +0.121 A 
ATOM     11  N2  UNL     1      19.809   0.539  32.130  0.00  0.00    -0.301 N 
ATOM     12  C7  UNL     1      18.731  -0.316  32.615  0.00  0.00    +0.153 C 
ATOM     13  C8  UNL     1      20.442   1.521  32.802  0.00  0.00    +0.329 A 
ATOM     14  O2  UNL     1      20.125   1.890  33.965  0.00  0.00    -0.246 OA
ATOM     15  N3  UNL     1      21.446   2.072  32.090  0.00  0.00    -0.291 N 
ATOM     16  C9  UNL     1      22.260   3.220  32.487  0.00  0.00    +0.154 C 
ENDBRANCH   5   9
BRANCH   8  17
ATOM     17  C12 UNL     1      21.799   2.948  25.054  0.00  0.00    +0.110 C 
BRANCH  17  18
ATOM     18  N4  UNL     1      20.874   1.815  25.037  0.00  0.00    -0.310 N 
ATOM     19  C13 UNL     1      19.594   1.860  24.388  0.00  0.00    +0.266 C 
ATOM     20  O3  UNL     1      19.181   2.932  23.867  0.00  0.00    -0.268 OA
ATOM     21  H19 UNL     1      21.200   0.918  25.460  0.00  0.00    +0.149 HD
BRANCH  19  22
ATOM     22  C14 UNL     1      18.756   0.652  24.315  0.00  0.00    +0.163 A 
ATOM     23  C15 UNL     1      18.865  -0.463  25.116  0.00  0.00    +0.230 A 
ATOM     24  O4  UNL     1      17.938  -1.307  24.738  0.00  0.00    -0.450 OA
ATOM     25  C16 UNL     1      17.278  -0.748  23.748  0.00  0.00    +0.308 A 
ATOM     26  N5  UNL     1      17.746   0.479  23.441  0.00  0.00    -0.212 NA
ENDBRANCH  19  22
ENDBRANCH  17  18
ENDBRANCH   8  17
TORSDOF 4
ENDMDL
MODEL 2
REMARK VINA RESULT:    -5.897      4.289      9.542
REMARK INTER + INTRA:          -8.149
REMARK INTER:                  -7.427
REMARK INTRA:                  -0.722
REMARK UNBOUND:                -0.873
REMARK  Name = /home/qwerty/github/datacon2025hack/step_04_hit_selection/docking/ligands/lig_258.pdb
REMARK  7 active torsions:
REMARK  status: ('A' for Active; 'I' for Inactive)
REMARK    1  A    between atoms: C1_1  and  C2_2
REMARK    2  A    between atoms: C4_5  and  C5_7
REMARK    3  A    between atoms: N2_9  and  C7_10
REMARK    4  A    between atoms: N3_13  and  C9_14
REMARK    5  A    between atoms: C11_16  and  C12_17
REMARK    6  A    between atoms: C12_17  and  N4_18
REMARK    7  A    between atoms: C13_19  and  C14_21
REMARK                            x       y       z     vdW  Elec       q    Type
REMARK                         _______ _______ _______ _____ _____    ______ ____
ROOT
ATOM      1  C1  UNL     1      14.379  -2.442  25.165  0.00  0.00    +0.009 C 
ATOM      2  C2  UNL     1      15.458  -1.543  24.545  0.00  0.00    +0.009 C 
ATOM      3  C3  UNL     1      14.899  -0.708  23.391  0.00  0.00    +0.111 C 
ATOM      4  N1  UNL     1      15.946  -0.678  22.385  0.00  0.00    -0.296 N 
ATOM      5  C4  UNL     1      15.833   0.033  21.142  0.00  0.00    +0.265 C 
ATOM      6  O1  UNL     1      16.429  -0.396  20.118  0.00  0.00    -0.268 OA
ATOM      7  C10 UNL     1      17.041  -1.587  22.673  0.00  0.00    +0.113 C 
ATOM      8  C11 UNL     1      16.638  -2.343  23.945  0.00  0.00    +0.028 C 
ENDROOT
BRANCH   5   9
ATOM      9  C5  UNL     1      15.007   1.246  21.029  0.00  0.00    +0.125 A 
ATOM     10  C6  UNL     1      13.642   1.263  20.799  0.00  0.00    +0.121 A 
ATOM     11  N2  UNL     1      13.242   2.548  20.735  0.00  0.00    -0.301 N 
ATOM     12  C7  UNL     1      11.874   3.031  20.590  0.00  0.00    +0.153 C 
ATOM     13  C8  UNL     1      14.355   3.284  20.930  0.00  0.00    +0.329 A 
ATOM     14  O2  UNL     1      14.366   4.544  20.945  0.00  0.00    -0.246 OA
ATOM     15  N3  UNL     1      15.456   2.523  21.097  0.00  0.00    -0.291 N 
ATOM     16  C9  UNL     1      16.829   3.006  21.229  0.00  0.00    +0.154 C 
ENDBRANCH   5   9
BRANCH   8  17
ATOM     17  C12 UNL     1      17.830  -2.490  24.911  0.00  0.00    +0.110 C 
BRANCH  17  18
ATOM     18  N4  UNL     1      18.769  -1.380  24.751  0.00  0.00    -0.310 N 
ATOM     19  C13 UNL     1      18.691  -0.172  25.523  0.00  0.00    +0.266 C 
ATOM     20  O3  UNL     1      17.737   0.009  26.327  0.00  0.00    -0.268 OA
ATOM     21  H19 UNL     1      19.568  -1.514  24.092  0.00  0.00    +0.149 HD
BRANCH  19  22
ATOM     22  C14 UNL     1      19.729   0.862  25.389  0.00  0.00    +0.163 A 
ATOM     23  C15 UNL     1      19.970   1.634  24.274  0.00  0.00    +0.230 A 
ATOM     24  O4  UNL     1      20.968   2.432  24.559  0.00  0.00    -0.450 OA
ATOM     25  C16 UNL     1      21.336   2.174  25.795  0.00  0.00    +0.308 A 
ATOM     26  N5  UNL     1      20.595   1.201  26.364  0.00  0.00    -0.212 NA
ENDBRANCH  19  22
ENDBRANCH  17  18
ENDBRANCH   8  17
TORSDOF 4
ENDMDL
MODEL 3
REMARK VINA RESULT:    -5.847      2.226      8.083
REMARK INTER + INTRA:          -8.088
REMARK INTER:                  -7.213
REMARK INTRA:                  -0.875
REMARK UNBOUND:                -0.873
REMARK  Name = /home/qwerty/github/datacon2025hack/step_04_hit_selection/docking/ligands/lig_258.pdb
REMARK  7 active torsions:
REMARK  status: ('A' for Active; 'I' for Inactive)
REMARK    1  A    between atoms: C1_1  and  C2_2
REMARK    2  A    between atoms: C4_5  and  C5_7
REMARK    3  A    between atoms: N2_9  and  C7_10
REMARK    4  A    between atoms: N3_13  and  C9_14
REMARK    5  A    between atoms: C11_16  and  C12_17
REMARK    6  A    between atoms: C12_17  and  N4_18
REMARK    7  A    between atoms: C13_19  and  C14_21
REMARK                            x       y       z     vdW  Elec       q    Type
REMARK                         _______ _______ _______ _____ _____    ______ ____
ROOT
ATOM      1  C1  UNL     1      17.667   2.124  30.998  0.00  0.00    +0.009 C 
ATOM      2  C2  UNL     1      19.199   2.122  30.889  0.00  0.00    +0.009 C 
ATOM      3  C3  UNL     1      19.659   1.993  29.436  0.00  0.00    +0.111 C 
ATOM      4  N1  UNL     1      20.823   1.125  29.469  0.00  0.00    -0.296 N 
ATOM      5  C4  UNL     1      21.581   0.769  28.301  0.00  0.00    +0.265 C 
ATOM      6  O1  UNL     1      22.158  -0.350  28.247  0.00  0.00    -0.268 OA
ATOM      7  C10 UNL     1      21.035   0.503  30.763  0.00  0.00    +0.113 C 
ATOM      8  C11 UNL     1      19.854   0.939  31.639  0.00  0.00    +0.028 C 
ENDROOT
BRANCH   5   9
ATOM      9  C5  UNL     1      21.676   1.676  27.146  0.00  0.00    +0.125 A 
ATOM     10  C6  UNL     1      22.494   2.791  27.074  0.00  0.00    +0.121 A 
ATOM     11  N2  UNL     1      22.293   3.383  25.880  0.00  0.00    -0.301 N 
ATOM     12  C7  UNL     1      23.005   4.539  25.347  0.00  0.00    +0.153 C 
ATOM     13  C8  UNL     1      21.372   2.625  25.251  0.00  0.00    +0.329 A 
ATOM     14  O2  UNL     1      20.938   2.870  24.093  0.00  0.00    -0.246 OA
ATOM     15  N3  UNL     1      20.960   1.582  26.000  0.00  0.00    -0.291 N 
ATOM     16  C9  UNL     1      19.903   0.633  25.655  0.00  0.00    +0.154 C 
ENDBRANCH   5   9
BRANCH   8  17
ATOM     17  C12 UNL     1      20.318   1.302  33.064  0.00  0.00    +0.110 C 
BRANCH  17  18
ATOM     18  N4  UNL     1      21.338   2.350  33.028  0.00  0.00    -0.310 N 
ATOM     19  C13 UNL     1      21.122   3.670  33.553  0.00  0.00    +0.266 C 
ATOM     20  O3  UNL     1      19.990   4.000  34.000  0.00  0.00    -0.268 OA
ATOM     21  H19 UNL     1      22.283   2.094  32.665  0.00  0.00    +0.149 HD
BRANCH  19  22
ATOM     22  C14 UNL     1      22.224   4.645  33.583  0.00  0.00    +0.163 A 
ATOM     23  C15 UNL     1      22.407   5.637  34.521  0.00  0.00    +0.230 A 
ATOM     24  O4  UNL     1      23.499   6.283  34.199  0.00  0.00    -0.450 OA
ATOM     25  C16 UNL     1      23.979   5.723  33.110  0.00  0.00    +0.308 A 
ATOM     26  N5  UNL     1      23.222   4.693  32.680  0.00  0.00    -0.212 NA
ENDBRANCH  19  22
ENDBRANCH  17  18
ENDBRANCH   8  17
TORSDOF 4
ENDMDL
MODEL 4
REMARK VINA RESULT:    -5.811     13.804     16.322
REMARK INTER + INTRA:          -8.043
REMARK INTER:                  -7.151
REMARK INTRA:                  -0.892
REMARK UNBOUND:                -0.873
REMARK  Name = /home/qwerty/github/datacon2025hack/step_04_hit_selection/docking/ligands/lig_258.pdb
REMARK  7 active torsions:
REMARK  status: ('A' for Active; 'I' for Inactive)
REMARK    1  A    between atoms: C1_1  and  C2_2
REMARK    2  A    between atoms: C4_5  and  C5_7
REMARK    3  A    between atoms: N2_9  and  C7_10
REMARK    4  A    between atoms: N3_13  and  C9_14
REMARK    5  A    between atoms: C11_16  and  C12_17
REMARK    6  A    between atoms: C12_17  and  N4_18
REMARK    7  A    between atoms: C13_19  and  C14_21
REMARK                            x       y       z     vdW  Elec       q    Type
REMARK                         _______ _______ _______ _____ _____    ______ ____
ROOT
ATOM      1  C1  UNL     1      13.596  12.107  27.511  0.00  0.00    +0.009 C 
ATOM      2  C2  UNL     1      12.456  12.583  28.422  0.00  0.00    +0.009 C 
ATOM      3  C3  UNL     1      11.145  11.861  28.105  0.00  0.00    +0.111 C 
ATOM      4  N1  UNL     1      10.103  12.866  28.232  0.00  0.00    -0.296 N 
ATOM      5  C4  UNL     1       8.706  12.589  28.042  0.00  0.00    +0.265 C 
ATOM      6  O1  UNL     1       7.944  13.489  27.597  0.00  0.00    -0.268 OA
ATOM      7  C10 UNL     1      10.624  14.212  28.383  0.00  0.00    +0.113 C 
ATOM      8  C11 UNL     1      12.149  14.091  28.264  0.00  0.00    +0.028 C 
ENDROOT
BRANCH   5   9
ATOM      9  C5  UNL     1       8.145  11.259  28.331  0.00  0.00    +0.125 A 
ATOM     10  C6  UNL     1       7.795  10.798  29.588  0.00  0.00    +0.121 A 
ATOM     11  N2  UNL     1       7.342   9.535  29.461  0.00  0.00    -0.301 N 
ATOM     12  C7  UNL     1       6.790   8.695  30.517  0.00  0.00    +0.153 C 
ATOM     13  C8  UNL     1       7.418   9.254  28.145  0.00  0.00    +0.329 A 
ATOM     14  O2  UNL     1       7.067   8.152  27.644  0.00  0.00    -0.246 OA
ATOM     15  N3  UNL     1       7.918  10.278  27.424  0.00  0.00    -0.291 N 
ATOM     16  C9  UNL     1       8.222  10.263  25.994  0.00  0.00    +0.154 C 
ENDBRANCH   5   9
BRANCH   8  17
ATOM     17  C12 UNL     1      12.864  14.972  29.308  0.00  0.00    +0.110 C 
BRANCH  17  18
ATOM     18  N4  UNL     1      12.260  14.807  30.629  0.00  0.00    -0.310 N 
ATOM     19  C13 UNL     1      12.967  14.249  31.748  0.00  0.00    +0.266 C 
ATOM     20  O3  UNL     1      14.136  13.798  31.602  0.00  0.00    -0.268 OA
ATOM     21  H19 UNL     1      11.294  15.179  30.770  0.00  0.00    +0.149 HD
BRANCH  19  22
ATOM     22  C14 UNL     1      12.338  14.209  33.078  0.00  0.00    +0.163 A 
ATOM     23  C15 UNL     1      12.995  14.194  34.288  0.00  0.00    +0.230 A 
ATOM     24  O4  UNL     1      12.083  14.163  35.227  0.00  0.00    -0.450 OA
ATOM     25  C16 UNL     1      10.909  14.159  34.634  0.00  0.00    +0.308 A 
ATOM     26  N5  UNL     1      11.008  14.188  33.290  0.00  0.00    -0.212 NA
ENDBRANCH  19  22
ENDBRANCH  17  18
ENDBRANCH   8  17
TORSDOF 4
ENDMDL
MODEL 5
REMARK VINA RESULT:    -5.767     13.671     15.391
REMARK INTER + INTRA:          -7.988
REMARK INTER:                  -7.080
REMARK INTRA:                  -0.909
REMARK UNBOUND:                -0.873
REMARK  Name = /home/qwerty/github/datacon2025hack/step_04_hit_selection/docking/ligands/lig_258.pdb
REMARK  7 active torsions:
REMARK  status: ('A' for Active; 'I' for Inactive)
REMARK    1  A    between atoms: C1_1  and  C2_2
REMARK    2  A    between atoms: C4_5  and  C5_7
REMARK    3  A    between atoms: N2_9  and  C7_10
REMARK    4  A    between atoms: N3_13  and  C9_14
REMARK    5  A    between atoms: C11_16  and  C12_17
REMARK    6  A    between atoms: C12_17  and  N4_18
REMARK    7  A    between atoms: C13_19  and  C14_21
REMARK                            x       y       z     vdW  Elec       q    Type
REMARK                         _______ _______ _______ _____ _____    ______ ____
ROOT
ATOM      1  C1  UNL     1       9.949   8.075  30.041  0.00  0.00    +0.009 C 
ATOM      2  C2  UNL     1       9.394   9.106  29.047  0.00  0.00    +0.009 C 
ATOM      3  C3  UNL     1       9.925  10.510  29.340  0.00  0.00    +0.111 C 
ATOM      4  N1  UNL     1       8.809  11.409  29.103  0.00  0.00    -0.296 N 
ATOM      5  C4  UNL     1       8.896  12.836  29.238  0.00  0.00    +0.265 C 
ATOM      6  O1  UNL     1       7.881  13.496  29.591  0.00  0.00    -0.268 OA
ATOM      7  C10 UNL     1       7.551  10.715  28.898  0.00  0.00    +0.113 C 
ATOM      8  C11 UNL     1       7.853   9.225  29.100  0.00  0.00    +0.028 C 
ENDROOT
BRANCH   5   9
ATOM      9  C5  UNL     1      10.162  13.550  29.001  0.00  0.00    +0.125 A 
ATOM     10  C6  UNL     1      10.668  13.882  27.756  0.00  0.00    +0.121 A 
ATOM     11  N2  UNL     1      11.850  14.505  27.936  0.00  0.00    -0.301 N 
ATOM     12  C7  UNL     1      12.690  15.099  26.903  0.00  0.00    +0.153 C 
ATOM     13  C8  UNL     1      12.038  14.546  29.271  0.00  0.00    +0.329 A 
ATOM     14  O2  UNL     1      13.046  15.069  29.819  0.00  0.00    -0.246 OA
ATOM     15  N3  UNL     1      11.035  13.958  29.954  0.00  0.00    -0.291 N 
ATOM     16  C9  UNL     1      10.981  13.745  31.399  0.00  0.00    +0.154 C 
ENDBRANCH   5   9
BRANCH   8  17
ATOM     17  C12 UNL     1       7.138   8.359  28.043  0.00  0.00    +0.110 C 
BRANCH  17  18
ATOM     18  N4  UNL     1       7.220   8.980  26.721  0.00  0.00    -0.310 N 
ATOM     19  C13 UNL     1       8.099   8.506  25.689  0.00  0.00    +0.266 C 
ATOM     20  O3  UNL     1       8.908   7.567  25.922  0.00  0.00    -0.268 OA
ATOM     21  H19 UNL     1       6.555   9.756  26.509  0.00  0.00    +0.149 HD
BRANCH  19  22
ATOM     22  C14 UNL     1       8.057   9.106  24.346  0.00  0.00    +0.163 A 
ATOM     23  C15 UNL     1       7.504  10.324  24.016  0.00  0.00    +0.230 A 
ATOM     24  O4  UNL     1       7.674  10.495  22.729  0.00  0.00    -0.450 OA
ATOM     25  C16 UNL     1       8.306   9.435  22.273  0.00  0.00    +0.308 A 
ATOM     26  N5  UNL     1       8.571   8.534  23.241  0.00  0.00    -0.212 NA
ENDBRANCH  19  22
ENDBRANCH  17  18
ENDBRANCH   8  17
TORSDOF 4
ENDMDL
MODEL 6
REMARK VINA RESULT:    -5.677      7.631      9.786
REMARK INTER + INTRA:          -7.878
REMARK INTER:                  -6.942
REMARK INTRA:                  -0.936
REMARK UNBOUND:                -0.873
REMARK  Name = /home/qwerty/github/datacon2025hack/step_04_hit_selection/docking/ligands/lig_258.pdb
REMARK  7 active torsions:
REMARK  status: ('A' for Active; 'I' for Inactive)
REMARK    1  A    between atoms: C1_1  and  C2_2
REMARK    2  A    between atoms: C4_5  and  C5_7
REMARK    3  A    between atoms: N2_9  and  C7_10
REMARK    4  A    between atoms: N3_13  and  C9_14
REMARK    5  A    between atoms: C11_16  and  C12_17
REMARK    6  A    between atoms: C12_17  and  N4_18
REMARK    7  A    between atoms: C13_19  and  C14_21
REMARK                            x       y       z     vdW  Elec       q    Type
REMARK                         _______ _______ _______ _____ _____    ______ ____
ROOT
ATOM      1  C1  UNL     1      18.276   4.753  21.762  0.00  0.00    +0.009 C 
ATOM      2  C2  UNL     1      16.934   4.082  21.436  0.00  0.00    +0.009 C 
ATOM      3  C3  UNL     1      16.970   2.581  21.731  0.00  0.00    +0.111 C 
ATOM      4  N1  UNL     1      16.218   1.952  20.659  0.00  0.00    -0.296 N 
ATOM      5  C4  UNL     1      15.986   0.537  20.576  0.00  0.00    +0.265 C 
ATOM      6  O1  UNL     1      15.870  -0.014  19.448  0.00  0.00    -0.268 OA
ATOM      7  C10 UNL     1      15.883   2.868  19.583  0.00  0.00    +0.113 C 
ATOM      8  C11 UNL     1      16.547   4.203  19.943  0.00  0.00    +0.028 C 
ENDROOT
BRANCH   5   9
ATOM      9  C5  UNL     1      15.907  -0.296  21.787  0.00  0.00    +0.125 A 
ATOM     10  C6  UNL     1      16.875  -1.196  22.199  0.00  0.00    +0.121 A 
ATOM     11  N2  UNL     1      16.444  -1.787  23.331  0.00  0.00    -0.301 N 
ATOM     12  C7  UNL     1      17.180  -2.740  24.154  0.00  0.00    +0.153 C 
ATOM     13  C8  UNL     1      15.238  -1.241  23.588  0.00  0.00    +0.329 A 
ATOM     14  O2  UNL     1      14.530  -1.548  24.585  0.00  0.00    -0.246 OA
ATOM     15  N3  UNL     1      14.870  -0.337  22.658  0.00  0.00    -0.291 N 
ATOM     16  C9  UNL     1      13.586   0.358  22.588  0.00  0.00    +0.154 C 
ENDBRANCH   5   9
BRANCH   8  17
ATOM     17  C12 UNL     1      15.611   5.392  19.650  0.00  0.00    +0.110 C 
BRANCH  17  18
ATOM     18  N4  UNL     1      14.209   4.976  19.708  0.00  0.00    -0.310 N 
ATOM     19  C13 UNL     1      13.335   5.323  20.793  0.00  0.00    +0.266 C 
ATOM     20  O3  UNL     1      13.780   5.946  21.796  0.00  0.00    -0.268 OA
ATOM     21  H19 UNL     1      13.822   4.464  18.884  0.00  0.00    +0.149 HD
BRANCH  19  22
ATOM     22  C14 UNL     1      11.908   4.966  20.739  0.00  0.00    +0.163 A 
ATOM     23  C15 UNL     1      11.356   3.762  21.119  0.00  0.00    +0.230 A 
ATOM     24  O4  UNL     1      10.065   3.845  20.923  0.00  0.00    -0.450 OA
ATOM     25  C16 UNL     1       9.817   5.045  20.444  0.00  0.00    +0.308 A 
ATOM     26  N5  UNL     1      10.934   5.789  20.309  0.00  0.00    -0.212 NA
ENDBRANCH  19  22
ENDBRANCH  17  18
ENDBRANCH   8  17
TORSDOF 4
ENDMDL
MODEL 7
REMARK VINA RESULT:    -5.621      5.768      8.941
REMARK INTER + INTRA:          -7.808
REMARK INTER:                  -7.000
REMARK INTRA:                  -0.809
REMARK UNBOUND:                -0.873
REMARK  Name = /home/qwerty/github/datacon2025hack/step_04_hit_selection/docking/ligands/lig_258.pdb
REMARK  7 active torsions:
REMARK  status: ('A' for Active; 'I' for Inactive)
REMARK    1  A    between atoms: C1_1  and  C2_2
REMARK    2  A    between atoms: C4_5  and  C5_7
REMARK    3  A    between atoms: N2_9  and  C7_10
REMARK    4  A    between atoms: N3_13  and  C9_14
REMARK    5  A    between atoms: C11_16  and  C12_17
REMARK    6  A    between atoms: C12_17  and  N4_18
REMARK    7  A    between atoms: C13_19  and  C14_21
REMARK                            x       y       z     vdW  Elec       q    Type
REMARK                         _______ _______ _______ _____ _____    ______ ____
ROOT
ATOM      1  C1  UNL     1      23.858   9.272  32.663  0.00  0.00    +0.009 C 
ATOM      2  C2  UNL     1      23.203   8.046  33.315  0.00  0.00    +0.009 C 
ATOM      3  C3  UNL     1      22.252   8.451  34.443  0.00  0.00    +0.111 C 
ATOM      4  N1  UNL     1      22.432   7.454  35.484  0.00  0.00    -0.296 N 
ATOM      5  C4  UNL     1      21.695   7.453  36.718  0.00  0.00    +0.265 C 
ATOM      6  O1  UNL     1      22.228   6.997  37.765  0.00  0.00    -0.268 OA
ATOM      7  C10 UNL     1      23.558   6.571  35.241  0.00  0.00    +0.113 C 
ATOM      8  C11 UNL     1      24.228   7.085  33.961  0.00  0.00    +0.028 C 
ENDROOT
BRANCH   5   9
ATOM      9  C5  UNL     1      20.332   8.003  36.794  0.00  0.00    +0.125 A 
ATOM     10  C6  UNL     1      20.021   9.339  36.987  0.00  0.00    +0.121 A 
ATOM     11  N2  UNL     1      18.679   9.456  37.025  0.00  0.00    -0.301 N 
ATOM     12  C7  UNL     1      17.914  10.692  37.127  0.00  0.00    +0.153 C 
ATOM     13  C8  UNL     1      18.201   8.207  36.852  0.00  0.00    +0.329 A 
ATOM     14  O2  UNL     1      16.973   7.926  36.822  0.00  0.00    -0.246 OA
ATOM     15  N3  UNL     1      19.182   7.290  36.723  0.00  0.00    -0.291 N 
ATOM     16  C9  UNL     1      19.005   5.843  36.623  0.00  0.00    +0.154 C 
ENDBRANCH   5   9
BRANCH   8  17
ATOM     17  C12 UNL     1      24.640   5.922  33.037  0.00  0.00    +0.110 C 
BRANCH  17  18
ATOM     18  N4  UNL     1      23.766   4.766  33.235  0.00  0.00    -0.310 N 
ATOM     19  C13 UNL     1      22.632   4.491  32.397  0.00  0.00    +0.266 C 
ATOM     20  O3  UNL     1      22.299   5.301  31.490  0.00  0.00    -0.268 OA
ATOM     21  H19 UNL     1      24.028   4.082  33.979  0.00  0.00    +0.149 HD
BRANCH  19  22
ATOM     22  C14 UNL     1      21.856   3.254  32.582  0.00  0.00    +0.163 A 
ATOM     23  C15 UNL     1      21.251   2.841  33.748  0.00  0.00    +0.230 A 
ATOM     24  O4  UNL     1      20.659   1.700  33.498  0.00  0.00    -0.450 OA
ATOM     25  C16 UNL     1      20.881   1.412  32.235  0.00  0.00    +0.308 A 
ATOM     26  N5  UNL     1      21.625   2.349  31.612  0.00  0.00    -0.212 NA
ENDBRANCH  19  22
ENDBRANCH  17  18
ENDBRANCH   8  17
TORSDOF 4
ENDMDL
MODEL 8
REMARK VINA RESULT:    -5.523     12.351     15.333
REMARK INTER + INTRA:          -7.687
REMARK INTER:                  -6.938
REMARK INTRA:                  -0.749
REMARK UNBOUND:                -0.873
REMARK  Name = /home/qwerty/github/datacon2025hack/step_04_hit_selection/docking/ligands/lig_258.pdb
REMARK  7 active torsions:
REMARK  status: ('A' for Active; 'I' for Inactive)
REMARK    1  A    between atoms: C1_1  and  C2_2
REMARK    2  A    between atoms: C4_5  and  C5_7
REMARK    3  A    between atoms: N2_9  and  C7_10
REMARK    4  A    between atoms: N3_13  and  C9_14
REMARK    5  A    between atoms: C11_16  and  C12_17
REMARK    6  A    between atoms: C12_17  and  N4_18
REMARK    7  A    between atoms: C13_19  and  C14_21
REMARK                            x       y       z     vdW  Elec       q    Type
REMARK                         _______ _______ _______ _____ _____    ______ ____
ROOT
ATOM      1  C1  UNL     1      10.819  10.156  22.749  0.00  0.00    +0.009 C 
ATOM      2  C2  UNL     1       9.626   9.232  23.032  0.00  0.00    +0.009 C 
ATOM      3  C3  UNL     1       9.778   7.885  22.322  0.00  0.00    +0.111 C 
ATOM      4  N1  UNL     1       8.447   7.534  21.859  0.00  0.00    -0.296 N 
ATOM      5  C4  UNL     1       8.146   6.315  21.160  0.00  0.00    +0.265 C 
ATOM      6  O1  UNL     1       7.213   6.293  20.313  0.00  0.00    -0.268 OA
ATOM      7  C10 UNL     1       7.489   8.614  22.004  0.00  0.00    +0.113 C 
ATOM      8  C11 UNL     1       8.282   9.814  22.537  0.00  0.00    +0.028 C 
ENDROOT
BRANCH   5   9
ATOM      9  C5  UNL     1       8.926   5.089  21.393  0.00  0.00    +0.125 A 
ATOM     10  C6  UNL     1      10.103   4.757  20.743  0.00  0.00    +0.121 A 
ATOM     11  N2  UNL     1      10.510   3.557  21.199  0.00  0.00    -0.301 N 
ATOM     12  C7  UNL     1      11.745   2.863  20.850  0.00  0.00    +0.153 C 
ATOM     13  C8  UNL     1       9.590   3.184  22.111  0.00  0.00    +0.329 A 
ATOM     14  O2  UNL     1       9.646   2.105  22.760  0.00  0.00    -0.246 OA
ATOM     15  N3  UNL     1       8.598   4.087  22.245  0.00  0.00    -0.291 N 
ATOM     16  C9  UNL     1       7.400   3.941  23.070  0.00  0.00    +0.154 C 
ENDBRANCH   5   9
BRANCH   8  17
ATOM     17  C12 UNL     1       7.498  10.561  23.634  0.00  0.00    +0.110 C 
BRANCH  17  18
ATOM     18  N4  UNL     1       7.305   9.708  24.807  0.00  0.00    -0.310 N 
ATOM     19  C13 UNL     1       7.892   9.992  26.086  0.00  0.00    +0.266 C 
ATOM     20  O3  UNL     1       8.680  10.968  26.223  0.00  0.00    -0.268 OA
ATOM     21  H19 UNL     1       6.652   8.898  24.714  0.00  0.00    +0.149 HD
BRANCH  19  22
ATOM     22  C14 UNL     1       7.572   9.153  27.252  0.00  0.00    +0.163 A 
ATOM     23  C15 UNL     1       7.429   7.784  27.255  0.00  0.00    +0.230 A 
ATOM     24  O4  UNL     1       7.152   7.422  28.482  0.00  0.00    -0.450 OA
ATOM     25  C16 UNL     1       7.123   8.513  29.215  0.00  0.00    +0.308 A 
ATOM     26  N5  UNL     1       7.378   9.626  28.498  0.00  0.00    -0.212 NA
ENDBRANCH  19  22
ENDBRANCH  17  18
ENDBRANCH   8  17
TORSDOF 4
ENDMDL
MODEL 9
REMARK VINA RESULT:    -5.434     13.454     14.649
REMARK INTER + INTRA:          -7.578
REMARK INTER:                  -6.954
REMARK INTRA:                  -0.624
REMARK UNBOUND:                -0.873
REMARK  Name = /home/qwerty/github/datacon2025hack/step_04_hit_selection/docking/ligands/lig_258.pdb
REMARK  7 active torsions:
REMARK  status: ('A' for Active; 'I' for Inactive)
REMARK    1  A    between atoms: C1_1  and  C2_2
REMARK    2  A    between atoms: C4_5  and  C5_7
REMARK    3  A    between atoms: N2_9  and  C7_10
REMARK    4  A    between atoms: N3_13  and  C9_14
REMARK    5  A    between atoms: C11_16  and  C12_17
REMARK    6  A    between atoms: C12_17  and  N4_18
REMARK    7  A    between atoms: C13_19  and  C14_21
REMARK                            x       y       z     vdW  Elec       q    Type
REMARK                         _______ _______ _______ _____ _____    ______ ____
ROOT
ATOM      1  C1  UNL     1      11.778  11.247  32.920  0.00  0.00    +0.009 C 
ATOM      2  C2  UNL     1      12.807  12.367  33.128  0.00  0.00    +0.009 C 
ATOM      3  C3  UNL     1      13.697  12.093  34.343  0.00  0.00    +0.111 C 
ATOM      4  N1  UNL     1      13.895  13.383  34.982  0.00  0.00    -0.296 N 
ATOM      5  C4  UNL     1      14.704  13.571  36.154  0.00  0.00    +0.265 C 
ATOM      6  O1  UNL     1      14.414  14.481  36.976  0.00  0.00    -0.268 OA
ATOM      7  C10 UNL     1      13.049  14.427  34.435  0.00  0.00    +0.113 C 
ATOM      8  C11 UNL     1      12.154  13.744  33.394  0.00  0.00    +0.028 C 
ENDROOT
BRANCH   5   9
ATOM      9  C5  UNL     1      15.857  12.700  36.435  0.00  0.00    +0.125 A 
ATOM     10  C6  UNL     1      15.888  11.704  37.396  0.00  0.00    +0.121 A 
ATOM     11  N2  UNL     1      17.112  11.140  37.377  0.00  0.00    -0.301 N 
ATOM     12  C7  UNL     1      17.559   9.997  38.164  0.00  0.00    +0.153 C 
ATOM     13  C8  UNL     1      17.795  11.790  36.413  0.00  0.00    +0.329 A 
ATOM     14  O2  UNL     1      18.987  11.524  36.101  0.00  0.00    -0.246 OA
ATOM     15  N3  UNL     1      17.066  12.761  35.826  0.00  0.00    -0.291 N 
ATOM     16  C9  UNL     1      17.540  13.711  34.821  0.00  0.00    +0.154 C 
ENDBRANCH   5   9
BRANCH   8  17
ATOM     17  C12 UNL     1      12.011  14.607  32.124  0.00  0.00    +0.110 C 
BRANCH  17  18
ATOM     18  N4  UNL     1      10.880  14.156  31.314  0.00  0.00    -0.310 N 
ATOM     19  C13 UNL     1      11.010  13.764  29.939  0.00  0.00    +0.266 C 
ATOM     20  O3  UNL     1      12.119  13.874  29.347  0.00  0.00    -0.268 OA
ATOM     21  H19 UNL     1       9.955  14.054  31.788  0.00  0.00    +0.149 HD
BRANCH  19  22
ATOM     22  C14 UNL     1       9.854  13.218  29.210  0.00  0.00    +0.163 A 
ATOM     23  C15 UNL     1       9.088  12.139  29.590  0.00  0.00    +0.230 A 
ATOM     24  O4  UNL     1       8.159  11.979  28.682  0.00  0.00    -0.450 OA
ATOM     25  C16 UNL     1       8.333  12.915  27.774  0.00  0.00    +0.308 A 
ATOM     26  N5  UNL     1       9.379  13.719  28.053  0.00  0.00    -0.212 NA
ENDBRANCH  19  22
ENDBRANCH  17  18
ENDBRANCH   8  17
TORSDOF 4
ENDMDL
