REMARK  Name = /home/qwerty/github/datacon2025hack/step_04_hit_selection/docking/ligands/lig_495.pdb
REMARK  5 active torsions:
REMARK  status: ('A' for Active; 'I' for Inactive)
REMARK    1  A    between atoms: C1_1  and  N1_2
REMARK    2  A    between atoms: C3_4  and  C4_5
REMARK    3  A    between atoms: C5_7  and  C6_8
REMARK    4  A    between atoms: N3_10  and  C7_11
REMARK    5  A    between atoms: C10_14  and  N4_15
REMARK                            x       y       z     vdW  Elec       q    Type
REMARK                         _______ _______ _______ _____ _____    ______ ____
ROOT
ATOM      1  C6  UNL     1       1.164  -1.459  -0.979  0.00  0.00    +0.267 C 
ATOM      2  O1  UNL     1       0.477  -2.374  -1.509  0.00  0.00    -0.268 OA
ATOM      3  N3  UNL     1       0.536  -0.238  -0.553  0.00  0.00    -0.280 N 
ATOM      4  H5  UNL     1       1.139   0.606  -0.423  0.00  0.00    +0.155 HD
ENDROOT
BRANCH   3   5
ATOM      5  C7  UNL     1      -0.885  -0.072  -0.412  0.00  0.00    +0.034 A 
ATOM      6  C8  UNL     1      -1.460   1.181  -0.659  0.00  0.00    +0.025 A 
ATOM      7  C9  UNL     1      -2.835   1.376  -0.509  0.00  0.00    +0.025 A 
ATOM      8  C10 UNL     1      -3.669   0.321  -0.090  0.00  0.00    +0.030 A 
ATOM      9  C15 UNL     1      -3.082  -0.931   0.181  0.00  0.00    +0.025 A 
ATOM     10  C16 UNL     1      -1.706  -1.123   0.028  0.00  0.00    +0.025 A 
BRANCH   8  11
ATOM     11  N4  UNL     1      -5.094   0.520   0.066  0.00  0.00    -0.330 N 
ATOM     12  C11 UNL     1      -5.993  -0.461   0.656  0.00  0.00    +0.105 C 
ATOM     13  C12 UNL     1      -7.345   0.227   0.770  0.00  0.00    +0.020 C 
ATOM     14  C13 UNL     1      -7.278   1.429  -0.165  0.00  0.00    +0.020 C 
ATOM     15  C14 UNL     1      -5.797   1.724  -0.353  0.00  0.00    +0.105 C 
ENDBRANCH   8  11
ENDBRANCH   3   5
BRANCH   1  18
ATOM     16  C4  UNL     1       4.707  -1.048  -0.230  0.00  0.00    +0.112 A 
ATOM     17  N2  UNL     1       3.407  -0.683  -0.262  0.00  0.00    -0.234 NA
ATOM     18  C5  UNL     1       2.621  -1.634  -0.838  0.00  0.00    +0.133 A 
ATOM     19  C17 UNL     1       3.300  -2.773  -1.269  0.00  0.00    +0.080 A 
ATOM     20  S1  UNL     1       4.931  -2.568  -0.915  0.00  0.00    -0.075 S 
BRANCH  16  24
ATOM     21  C1  UNL     1       9.137   0.624   1.353  0.00  0.00    +0.172 C 
ATOM     22  N1  UNL     1       7.724   0.546   1.010  0.00  0.00    -0.274 N 
ATOM     23  C2  UNL     1       7.115  -0.499   0.420  0.00  0.00    +0.118 A 
ATOM     24  C3  UNL     1       5.769  -0.209   0.336  0.00  0.00    +0.045 A 
ATOM     25  C18 UNL     1       5.628   1.040   0.913  0.00  0.00    +0.145 A 
ATOM     26  N5  UNL     1       6.835   1.476   1.324  0.00  0.00    -0.179 NA
ENDBRANCH  16  24
ENDBRANCH   1  18
TORSDOF 4
