REMARK  Name = /home/qwerty/github/datacon2025hack/step_04_hit_selection/docking/ligands/lig_264.pdb
REMARK  5 active torsions:
REMARK  status: ('A' for Active; 'I' for Inactive)
REMARK    1  A    between atoms: C1_1  and  C2_2
REMARK    2  A    between atoms: C5_6  and  C6_7
REMARK    3  A    between atoms: C9_12  and  N3_13
REMARK    4  A    between atoms: C10_14  and  C11_16
REMARK    5  A    between atoms: C19_26  and  C20_27
REMARK                            x       y       z     vdW  Elec       q    Type
REMARK                         _______ _______ _______ _____ _____    ______ ____
ROOT
ATOM      1  C6  UNL     1      -3.327  -1.114  -0.901  0.00  0.00    +0.249 C 
ATOM      2  O1  UNL     1      -2.967  -2.291  -1.175  0.00  0.00    -0.270 OA
ATOM      3  N2  UNL     1      -2.361  -0.169  -0.408  0.00  0.00    -0.293 N 
ATOM      4  C7  UNL     1      -2.373   1.234  -0.799  0.00  0.00    +0.110 C 
ATOM      5  C8  UNL     1      -0.948   1.730  -0.595  0.00  0.00    +0.043 C 
ATOM      6  C9  UNL     1      -0.310   0.739   0.381  0.00  0.00    +0.095 C 
ATOM      7  C19 UNL     1      -1.099  -0.567   0.202  0.00  0.00    +0.093 C 
ATOM      8  C20 UNL     1      -1.338  -1.274   1.540  0.00  0.00    +0.030 C 
ENDROOT
BRANCH   1  14
ATOM      9  C1  UNL     1      -5.257   0.527   1.065  0.00  0.00    +0.064 C 
ATOM     10  C2  UNL     1      -5.568   0.001  -0.303  0.00  0.00    +0.025 A 
ATOM     11  N1  UNL     1      -6.783   0.115  -0.872  0.00  0.00    -0.364 N 
ATOM     12  C3  UNL     1      -6.737  -0.544  -2.044  0.00  0.00    +0.083 A 
ATOM     13  C4  UNL     1      -5.483  -1.088  -2.235  0.00  0.00    +0.032 A 
ATOM     14  C5  UNL     1      -4.728  -0.725  -1.136  0.00  0.00    +0.057 A 
ATOM     15  H4  UNL     1      -7.617   0.598  -0.469  0.00  0.00    +0.165 HD
ENDBRANCH   1  14
BRANCH   6  16
ATOM     16  N3  UNL     1       1.114   0.544   0.091  0.00  0.00    -0.305 N 
ATOM     17  C10 UNL     1       2.093   0.372   1.129  0.00  0.00    +0.261 C 
ATOM     18  O2  UNL     1       1.735   0.370   2.338  0.00  0.00    -0.269 OA
ATOM     19  H12 UNL     1       1.388   0.358  -0.899  0.00  0.00    +0.149 HD
BRANCH  17  20
ATOM     20  C11 UNL     1       3.522   0.187   0.806  0.00  0.00    +0.103 A 
ATOM     21  C12 UNL     1       4.508  -0.136   1.738  0.00  0.00    +0.041 A 
ATOM     22  C13 UNL     1       5.679  -0.195   1.016  0.00  0.00    +0.003 A 
ATOM     23  C14 UNL     1       6.982  -0.474   1.423  0.00  0.00    +0.048 A 
ATOM     24  C15 UNL     1       7.993  -0.456   0.444  0.00  0.00    +0.124 A 
ATOM     25  F1  UNL     1       9.276  -0.721   0.794  0.00  0.00    -0.205 F 
ATOM     26  C16 UNL     1       7.679  -0.161  -0.902  0.00  0.00    +0.040 A 
ATOM     27  C17 UNL     1       6.352   0.118  -1.280  0.00  0.00    +0.029 A 
ATOM     28  C18 UNL     1       5.373   0.089  -0.288  0.00  0.00    +0.047 A 
ATOM     29  N4  UNL     1       4.059   0.327  -0.433  0.00  0.00    -0.351 N 
ATOM     30  H17 UNL     1       3.573   0.584  -1.320  0.00  0.00    +0.166 HD
ENDBRANCH  17  20
ENDBRANCH   6  16
TORSDOF 3
