REMARK  Name = /home/qwerty/github/datacon2025hack/step_04_hit_selection/docking/ligands/lig_622.pdb
REMARK  4 active torsions:
REMARK  status: ('A' for Active; 'I' for Inactive)
REMARK    1  A    between atoms: C1_2  and  C11_15
REMARK    2  A    between atoms: N1_3  and  C2_4
REMARK    3  A    between atoms: C7_9  and  C8_10
REMARK    4  A    between atoms: C15_20  and  C16_21
REMARK                            x       y       z     vdW  Elec       q    Type
REMARK                         _______ _______ _______ _____ _____    ______ ____
ROOT
ATOM      1  C11 UNL     1      -1.055   0.673   0.279  0.00  0.00    +0.073 A 
ATOM      2  C12 UNL     1      -0.972   1.641  -0.754  0.00  0.00    +0.127 A 
ATOM      3  N3  UNL     1       0.211   1.882  -1.391  0.00  0.00    -0.235 NA
ATOM      4  C13 UNL     1       1.305   1.177  -1.023  0.00  0.00    +0.156 A 
ATOM      5  C14 UNL     1       2.581   1.265  -1.525  0.00  0.00    +0.073 A 
ATOM      6  C15 UNL     1       3.272   0.310  -0.778  0.00  0.00    +0.069 A 
ATOM      7  N5  UNL     1       2.445  -0.290   0.116  0.00  0.00    -0.170 NA
ATOM      8  N6  UNL     1       1.254   0.254  -0.060  0.00  0.00    -0.221 N 
ATOM      9  C21 UNL     1       0.116  -0.037   0.613  0.00  0.00    +0.129 A 
ENDROOT
BRANCH   6  10
ATOM     10  C16 UNL     1       4.743   0.016  -0.891  0.00  0.00    +0.042 C 
ATOM     11  C17 UNL     1       4.997  -1.493  -1.013  0.00  0.00    +0.025 C 
ATOM     12  C18 UNL     1       6.504  -1.795  -1.182  0.00  0.00    +0.081 C 
ATOM     13  N4  UNL     1       7.384  -0.742  -0.637  0.00  0.00    -0.316 NA
ATOM     14  C19 UNL     1       6.834  -0.144   0.586  0.00  0.00    +0.081 C 
ATOM     15  C20 UNL     1       5.512   0.604   0.311  0.00  0.00    +0.025 C 
ATOM     16  H15 UNL     1       7.507   0.010  -1.356  0.00  0.00    +0.122 HD
ENDBRANCH   6  10
BRANCH   1  18
ATOM     17  O1  UNL     1      -2.455  -0.685   1.628  0.00  0.00    -0.270 OA
ATOM     18  C1  UNL     1      -2.332   0.386   0.973  0.00  0.00    +0.251 C 
ATOM     19  N1  UNL     1      -3.427   1.316   0.921  0.00  0.00    -0.281 N 
ATOM     20  H1  UNL     1      -3.215   2.328   0.772  0.00  0.00    +0.155 HD
BRANCH  19  21
ATOM     21  C2  UNL     1      -4.742   0.973   1.385  0.00  0.00    +0.044 A 
ATOM     22  C3  UNL     1      -5.317   1.751   2.401  0.00  0.00    +0.024 A 
ATOM     23  C4  UNL     1      -6.553   1.402   2.948  0.00  0.00    +0.002 A 
ATOM     24  C5  UNL     1      -7.229   0.274   2.484  0.00  0.00    +0.001 A 
ATOM     25  C6  UNL     1      -6.683  -0.495   1.454  0.00  0.00    +0.013 A 
ATOM     26  C7  UNL     1      -5.452  -0.144   0.873  0.00  0.00    +0.040 A 
BRANCH  26  27
ATOM     27  C8  UNL     1      -4.975  -0.936  -0.282  0.00  0.00    +0.157 A 
ATOM     28  C9  UNL     1      -4.263  -0.492  -1.378  0.00  0.00    +0.161 A 
ATOM     29  N2  UNL     1      -4.058  -1.528  -2.212  0.00  0.00    -0.224 NA
ATOM     30  C10 UNL     1      -4.660  -2.563  -1.589  0.00  0.00    +0.308 A 
ATOM     31  O2  UNL     1      -5.210  -2.214  -0.449  0.00  0.00    -0.442 OA
ENDBRANCH  26  27
ENDBRANCH  19  21
ENDBRANCH   1  18
TORSDOF 4
