MODEL 1
REMARK VINA RESULT:    -5.698      0.000      0.000
REMARK INTER + INTRA:          -7.695
REMARK INTER:                  -7.197
REMARK INTRA:                  -0.498
REMARK UNBOUND:                -0.498
REMARK  Name = /home/qwerty/github/datacon2025hack/step_04_hit_selection/docking/ligands/lig_510.pdb
REMARK  7 active torsions:
REMARK  status: ('A' for Active; 'I' for Inactive)
REMARK    1  A    between atoms: C1_1  and  O1_2
REMARK    2  A    between atoms: O1_2  and  C2_3
REMARK    3  A    between atoms: C6_7  and  N1_8
REMARK    4  A    between atoms: C7_9  and  C8_11
REMARK    5  A    between atoms: C11_14  and  C12_15
REMARK    6  A    between atoms: C12_15  and  C13_16
REMARK    7  A    between atoms: C16_20  and  O4_21
REMARK                            x       y       z     vdW  Elec       q    Type
REMARK                         _______ _______ _______ _____ _____    ______ ____
ROOT
ATOM      1  N1  UNL     1      10.873   2.450  21.444  0.00  0.00    -0.278 N 
ATOM      2  C7  UNL     1      12.181   2.678  21.999  0.00  0.00    +0.248 C 
ATOM      3  O2  UNL     1      12.363   3.636  22.800  0.00  0.00    -0.270 OA
ATOM      4  H7  UNL     1      10.728   1.663  20.774  0.00  0.00    +0.155 HD
ENDROOT
BRANCH   1   9
ATOM      5  C2  UNL     1       8.382   5.261  21.332  0.00  0.00    +0.163 A 
ATOM      6  C3  UNL     1       7.576   4.931  22.437  0.00  0.00    +0.049 A 
ATOM      7  C4  UNL     1       7.849   3.789  23.191  0.00  0.00    +0.006 A 
ATOM      8  C5  UNL     1       8.925   2.968  22.857  0.00  0.00    +0.027 A 
ATOM      9  C6  UNL     1       9.736   3.272  21.752  0.00  0.00    +0.079 A 
ATOM     10  C16 UNL     1       9.462   4.431  20.991  0.00  0.00    +0.180 A 
BRANCH   5  12
ATOM     11  C1  UNL     1       8.517   7.726  20.919  0.00  0.00    +0.277 C 
ATOM     12  O1  UNL     1       8.143   6.402  20.550  0.00  0.00    -0.491 OA
ENDBRANCH   5  12
BRANCH  10  13
ATOM     13  O4  UNL     1      10.237   4.768  19.878  0.00  0.00    -0.502 OA
ATOM     14  H15 UNL     1      10.992   4.185  19.537  0.00  0.00    +0.292 HD
ENDBRANCH  10  13
ENDBRANCH   1   9
BRANCH   2  15
ATOM     15  C8  UNL     1      13.326   1.804  21.649  0.00  0.00    +0.037 A 
ATOM     16  C9  UNL     1      13.983   1.922  20.412  0.00  0.00    +0.014 A 
ATOM     17  C10 UNL     1      15.056   1.084  20.095  0.00  0.00    +0.012 A 
ATOM     18  C11 UNL     1      15.496   0.104  21.004  0.00  0.00    +0.017 A 
ATOM     19  C14 UNL     1      14.828  -0.019  22.236  0.00  0.00    +0.012 A 
ATOM     20  C15 UNL     1      13.754   0.817  22.551  0.00  0.00    +0.014 A 
BRANCH  18  21
ATOM     21  C12 UNL     1      16.639  -0.794  20.684  0.00  0.00    +0.160 C 
ATOM     22  C13 UNL     1      16.998  -1.145  19.271  0.00  0.00    +0.091 C 
ATOM     23  O3  UNL     1      17.334  -1.281  21.617  0.00  0.00    -0.292 OA
ENDBRANCH  18  21
ENDBRANCH   2  15
TORSDOF 5
ENDMDL
MODEL 2
REMARK VINA RESULT:    -5.667     10.083     12.196
REMARK INTER + INTRA:          -7.655
REMARK INTER:                  -7.238
REMARK INTRA:                  -0.417
REMARK UNBOUND:                -0.498
REMARK  Name = /home/qwerty/github/datacon2025hack/step_04_hit_selection/docking/ligands/lig_510.pdb
REMARK  7 active torsions:
REMARK  status: ('A' for Active; 'I' for Inactive)
REMARK    1  A    between atoms: C1_1  and  O1_2
REMARK    2  A    between atoms: O1_2  and  C2_3
REMARK    3  A    between atoms: C6_7  and  N1_8
REMARK    4  A    between atoms: C7_9  and  C8_11
REMARK    5  A    between atoms: C11_14  and  C12_15
REMARK    6  A    between atoms: C12_15  and  C13_16
REMARK    7  A    between atoms: C16_20  and  O4_21
REMARK                            x       y       z     vdW  Elec       q    Type
REMARK                         _______ _______ _______ _____ _____    ______ ____
ROOT
ATOM      1  N1  UNL     1      20.928   4.071  25.467  0.00  0.00    -0.278 N 
ATOM      2  C7  UNL     1      21.888   3.239  26.145  0.00  0.00    +0.248 C 
ATOM      3  O2  UNL     1      22.935   2.874  25.544  0.00  0.00    -0.270 OA
ATOM      4  H7  UNL     1      20.058   4.363  25.964  0.00  0.00    +0.155 HD
ENDROOT
BRANCH   1   9
ATOM      5  C2  UNL     1      22.157   5.992  22.480  0.00  0.00    +0.163 A 
ATOM      6  C3  UNL     1      21.332   5.454  21.475  0.00  0.00    +0.049 A 
ATOM      7  C4  UNL     1      20.400   4.463  21.785  0.00  0.00    +0.006 A 
ATOM      8  C5  UNL     1      20.277   4.001  23.094  0.00  0.00    +0.027 A 
ATOM      9  C6  UNL     1      21.096   4.516  24.111  0.00  0.00    +0.079 A 
ATOM     10  C16 UNL     1      22.038   5.521  23.798  0.00  0.00    +0.180 A 
BRANCH   5  12
ATOM     11  C1  UNL     1      23.847   7.093  21.000  0.00  0.00    +0.277 C 
ATOM     12  O1  UNL     1      23.106   6.991  22.211  0.00  0.00    -0.491 OA
ENDBRANCH   5  12
BRANCH  10  13
ATOM     13  O4  UNL     1      22.881   6.056  24.776  0.00  0.00    -0.502 OA
ATOM     14  H15 UNL     1      23.879   6.161  24.643  0.00  0.00    +0.292 HD
ENDBRANCH  10  13
ENDBRANCH   1   9
BRANCH   2  15
ATOM     15  C8  UNL     1      21.670   2.802  27.545  0.00  0.00    +0.037 A 
ATOM     16  C9  UNL     1      21.824   1.457  27.921  0.00  0.00    +0.014 A 
ATOM     17  C10 UNL     1      21.608   1.060  29.244  0.00  0.00    +0.012 A 
ATOM     18  C11 UNL     1      21.226   1.997  30.223  0.00  0.00    +0.017 A 
ATOM     19  C14 UNL     1      21.060   3.340  29.838  0.00  0.00    +0.012 A 
ATOM     20  C15 UNL     1      21.274   3.735  28.515  0.00  0.00    +0.014 A 
BRANCH  18  21
ATOM     21  C12 UNL     1      20.994   1.592  31.635  0.00  0.00    +0.160 C 
ATOM     22  C13 UNL     1      20.206   0.367  31.989  0.00  0.00    +0.091 C 
ATOM     23  O3  UNL     1      21.468   2.291  32.573  0.00  0.00    -0.292 OA
ENDBRANCH  18  21
ENDBRANCH   2  15
TORSDOF 5
ENDMDL
MODEL 3
REMARK VINA RESULT:    -5.611     17.575     18.293
REMARK INTER + INTRA:          -7.584
REMARK INTER:                  -7.121
REMARK INTRA:                  -0.463
REMARK UNBOUND:                -0.498
REMARK  Name = /home/qwerty/github/datacon2025hack/step_04_hit_selection/docking/ligands/lig_510.pdb
REMARK  7 active torsions:
REMARK  status: ('A' for Active; 'I' for Inactive)
REMARK    1  A    between atoms: C1_1  and  O1_2
REMARK    2  A    between atoms: O1_2  and  C2_3
REMARK    3  A    between atoms: C6_7  and  N1_8
REMARK    4  A    between atoms: C7_9  and  C8_11
REMARK    5  A    between atoms: C11_14  and  C12_15
REMARK    6  A    between atoms: C12_15  and  C13_16
REMARK    7  A    between atoms: C16_20  and  O4_21
REMARK                            x       y       z     vdW  Elec       q    Type
REMARK                         _______ _______ _______ _____ _____    ______ ____
ROOT
ATOM      1  N1  UNL     1      16.838  10.543  37.254  0.00  0.00    -0.278 N 
ATOM      2  C7  UNL     1      17.675  10.020  36.206  0.00  0.00    +0.248 C 
ATOM      3  O2  UNL     1      17.382  10.245  35.000  0.00  0.00    -0.270 OA
ATOM      4  H7  UNL     1      17.077  10.346  38.251  0.00  0.00    +0.155 HD
ENDROOT
BRANCH   1   9
ATOM      5  C2  UNL     1      14.503  13.472  36.960  0.00  0.00    +0.163 A 
ATOM      6  C3  UNL     1      13.311  12.813  36.607  0.00  0.00    +0.049 A 
ATOM      7  C4  UNL     1      13.292  11.427  36.457  0.00  0.00    +0.006 A 
ATOM      8  C5  UNL     1      14.454  10.682  36.657  0.00  0.00    +0.027 A 
ATOM      9  C6  UNL     1      15.657  11.320  36.999  0.00  0.00    +0.079 A 
ATOM     10  C16 UNL     1      15.676  12.724  37.155  0.00  0.00    +0.180 A 
BRANCH   5  12
ATOM     11  C1  UNL     1      14.442  15.808  36.063  0.00  0.00    +0.277 C 
ATOM     12  O1  UNL     1      14.565  14.866  37.124  0.00  0.00    -0.491 OA
ENDBRANCH   5  12
BRANCH  10  13
ATOM     13  O4  UNL     1      16.852  13.402  37.485  0.00  0.00    -0.502 OA
ATOM     14  H15 UNL     1      16.932  14.411  37.457  0.00  0.00    +0.292 HD
ENDBRANCH  10  13
ENDBRANCH   1   9
BRANCH   2  15
ATOM     15  C8  UNL     1      18.883   9.219  36.517  0.00  0.00    +0.037 A 
ATOM     16  C9  UNL     1      18.805   8.053  37.297  0.00  0.00    +0.014 A 
ATOM     17  C10 UNL     1      19.956   7.314  37.588  0.00  0.00    +0.012 A 
ATOM     18  C11 UNL     1      21.214   7.726  37.109  0.00  0.00    +0.017 A 
ATOM     19  C14 UNL     1      21.290   8.901  36.340  0.00  0.00    +0.012 A 
ATOM     20  C15 UNL     1      20.140   9.640  36.053  0.00  0.00    +0.014 A 
BRANCH  18  21
ATOM     21  C12 UNL     1      22.448   6.950  37.407  0.00  0.00    +0.160 C 
ATOM     22  C13 UNL     1      23.340   6.431  36.318  0.00  0.00    +0.091 C 
ATOM     23  O3  UNL     1      22.766   6.713  38.605  0.00  0.00    -0.292 OA
ENDBRANCH  18  21
ENDBRANCH   2  15
TORSDOF 5
ENDMDL
MODEL 4
REMARK VINA RESULT:    -5.506     11.452     13.724
REMARK INTER + INTRA:          -7.453
REMARK INTER:                  -7.045
REMARK INTRA:                  -0.408
REMARK UNBOUND:                -0.498
REMARK  Name = /home/qwerty/github/datacon2025hack/step_04_hit_selection/docking/ligands/lig_510.pdb
REMARK  7 active torsions:
REMARK  status: ('A' for Active; 'I' for Inactive)
REMARK    1  A    between atoms: C1_1  and  O1_2
REMARK    2  A    between atoms: O1_2  and  C2_3
REMARK    3  A    between atoms: C6_7  and  N1_8
REMARK    4  A    between atoms: C7_9  and  C8_11
REMARK    5  A    between atoms: C11_14  and  C12_15
REMARK    6  A    between atoms: C12_15  and  C13_16
REMARK    7  A    between atoms: C16_20  and  O4_21
REMARK                            x       y       z     vdW  Elec       q    Type
REMARK                         _______ _______ _______ _____ _____    ______ ____
ROOT
ATOM      1  N1  UNL     1      18.835   1.785  32.534  0.00  0.00    -0.278 N 
ATOM      2  C7  UNL     1      19.811   0.959  31.873  0.00  0.00    +0.248 C 
ATOM      3  O2  UNL     1      20.327  -0.014  32.489  0.00  0.00    -0.270 OA
ATOM      4  H7  UNL     1      18.418   2.595  32.025  0.00  0.00    +0.155 HD
ENDROOT
BRANCH   1   9
ATOM      5  C2  UNL     1      17.156   0.260  35.529  0.00  0.00    +0.163 A 
ATOM      6  C3  UNL     1      17.488   1.207  36.517  0.00  0.00    +0.049 A 
ATOM      7  C4  UNL     1      18.266   2.318  36.192  0.00  0.00    +0.006 A 
ATOM      8  C5  UNL     1      18.719   2.501  34.886  0.00  0.00    +0.027 A 
ATOM      9  C6  UNL     1      18.408   1.564  33.887  0.00  0.00    +0.079 A 
ATOM     10  C16 UNL     1      17.617   0.440  34.215  0.00  0.00    +0.180 A 
BRANCH   5  12
ATOM     11  C1  UNL     1      16.410  -1.588  37.043  0.00  0.00    +0.277 C 
ATOM     12  O1  UNL     1      16.373  -0.870  35.814  0.00  0.00    -0.491 OA
ENDBRANCH   5  12
BRANCH  10  13
ATOM     13  O4  UNL     1      17.292  -0.523  33.256  0.00  0.00    -0.502 OA
ATOM     14  H15 UNL     1      17.163  -1.501  33.482  0.00  0.00    +0.292 HD
ENDBRANCH  10  13
ENDBRANCH   1   9
BRANCH   2  15
ATOM     15  C8  UNL     1      20.223   1.228  30.475  0.00  0.00    +0.037 A 
ATOM     16  C9  UNL     1      21.542   0.999  30.046  0.00  0.00    +0.014 A 
ATOM     17  C10 UNL     1      21.916   1.265  28.725  0.00  0.00    +0.012 A 
ATOM     18  C11 UNL     1      20.982   1.772  27.802  0.00  0.00    +0.017 A 
ATOM     19  C14 UNL     1      19.666   2.012  28.239  0.00  0.00    +0.012 A 
ATOM     20  C15 UNL     1      19.294   1.748  29.560  0.00  0.00    +0.014 A 
BRANCH  18  21
ATOM     21  C12 UNL     1      21.362   2.058  26.392  0.00  0.00    +0.160 C 
ATOM     22  C13 UNL     1      20.505   1.633  25.238  0.00  0.00    +0.091 C 
ATOM     23  O3  UNL     1      22.435   2.676  26.146  0.00  0.00    -0.292 OA
ENDBRANCH  18  21
ENDBRANCH   2  15
TORSDOF 5
ENDMDL
MODEL 5
REMARK VINA RESULT:    -5.367     13.847     15.631
REMARK INTER + INTRA:          -7.276
REMARK INTER:                  -6.778
REMARK INTRA:                  -0.498
REMARK UNBOUND:                -0.498
REMARK  Name = /home/qwerty/github/datacon2025hack/step_04_hit_selection/docking/ligands/lig_510.pdb
REMARK  7 active torsions:
REMARK  status: ('A' for Active; 'I' for Inactive)
REMARK    1  A    between atoms: C1_1  and  O1_2
REMARK    2  A    between atoms: O1_2  and  C2_3
REMARK    3  A    between atoms: C6_7  and  N1_8
REMARK    4  A    between atoms: C7_9  and  C8_11
REMARK    5  A    between atoms: C11_14  and  C12_15
REMARK    6  A    between atoms: C12_15  and  C13_16
REMARK    7  A    between atoms: C16_20  and  O4_21
REMARK                            x       y       z     vdW  Elec       q    Type
REMARK                         _______ _______ _______ _____ _____    ______ ____
ROOT
ATOM      1  N1  UNL     1      22.060   5.377  33.143  0.00  0.00    -0.278 N 
ATOM      2  C7  UNL     1      21.866   3.983  32.841  0.00  0.00    +0.248 C 
ATOM      3  O2  UNL     1      21.708   3.155  33.780  0.00  0.00    -0.270 OA
ATOM      4  H7  UNL     1      22.200   6.058  32.365  0.00  0.00    +0.155 HD
ENDROOT
BRANCH   1   9
ATOM      5  C2  UNL     1      20.935   6.833  36.420  0.00  0.00    +0.163 A 
ATOM      6  C3  UNL     1      22.175   7.001  37.063  0.00  0.00    +0.049 A 
ATOM      7  C4  UNL     1      23.356   6.623  36.423  0.00  0.00    +0.006 A 
ATOM      8  C5  UNL     1      23.316   6.078  35.141  0.00  0.00    +0.027 A 
ATOM      9  C6  UNL     1      22.089   5.892  34.484  0.00  0.00    +0.079 A 
ATOM     10  C16 UNL     1      20.893   6.278  35.130  0.00  0.00    +0.180 A 
BRANCH   5  12
ATOM     11  C1  UNL     1      19.411   8.522  37.463  0.00  0.00    +0.277 C 
ATOM     12  O1  UNL     1      19.724   7.203  37.027  0.00  0.00    -0.491 OA
ENDBRANCH   5  12
BRANCH  10  13
ATOM     13  O4  UNL     1      19.649   6.102  34.519  0.00  0.00    -0.502 OA
ATOM     14  H15 UNL     1      18.795   5.960  35.043  0.00  0.00    +0.292 HD
ENDBRANCH  10  13
ENDBRANCH   1   9
BRANCH   2  15
ATOM     15  C8  UNL     1      21.846   3.498  31.441  0.00  0.00    +0.037 A 
ATOM     16  C9  UNL     1      22.307   2.212  31.107  0.00  0.00    +0.014 A 
ATOM     17  C10 UNL     1      22.288   1.773  29.780  0.00  0.00    +0.012 A 
ATOM     18  C11 UNL     1      21.814   2.610  28.752  0.00  0.00    +0.017 A 
ATOM     19  C14 UNL     1      21.366   3.901  29.089  0.00  0.00    +0.012 A 
ATOM     20  C15 UNL     1      21.388   4.339  30.415  0.00  0.00    +0.014 A 
BRANCH  18  21
ATOM     21  C12 UNL     1      21.784   2.157  27.335  0.00  0.00    +0.160 C 
ATOM     22  C13 UNL     1      22.385   2.974  26.230  0.00  0.00    +0.091 C 
ATOM     23  O3  UNL     1      21.242   1.057  27.040  0.00  0.00    -0.292 OA
ENDBRANCH  18  21
ENDBRANCH   2  15
TORSDOF 5
ENDMDL
MODEL 6
REMARK VINA RESULT:    -5.363      2.960      4.451
REMARK INTER + INTRA:          -7.272
REMARK INTER:                  -6.928
REMARK INTRA:                  -0.343
REMARK UNBOUND:                -0.498
REMARK  Name = /home/qwerty/github/datacon2025hack/step_04_hit_selection/docking/ligands/lig_510.pdb
REMARK  7 active torsions:
REMARK  status: ('A' for Active; 'I' for Inactive)
REMARK    1  A    between atoms: C1_1  and  O1_2
REMARK    2  A    between atoms: O1_2  and  C2_3
REMARK    3  A    between atoms: C6_7  and  N1_8
REMARK    4  A    between atoms: C7_9  and  C8_11
REMARK    5  A    between atoms: C11_14  and  C12_15
REMARK    6  A    between atoms: C12_15  and  C13_16
REMARK    7  A    between atoms: C16_20  and  O4_21
REMARK                            x       y       z     vdW  Elec       q    Type
REMARK                         _______ _______ _______ _____ _____    ______ ____
ROOT
ATOM      1  N1  UNL     1      11.899   7.290  20.614  0.00  0.00    -0.278 N 
ATOM      2  C7  UNL     1      11.490   5.958  20.250  0.00  0.00    +0.248 C 
ATOM      3  O2  UNL     1      10.290   5.737  19.931  0.00  0.00    -0.270 OA
ATOM      4  H7  UNL     1      12.890   7.468  20.887  0.00  0.00    +0.155 HD
ENDROOT
BRANCH   1   9
ATOM      5  C2  UNL     1       8.987   9.490  21.510  0.00  0.00    +0.163 A 
ATOM      6  C3  UNL     1       9.176  10.546  20.600  0.00  0.00    +0.049 A 
ATOM      7  C4  UNL     1      10.258  10.530  19.720  0.00  0.00    +0.006 A 
ATOM      8  C5  UNL     1      11.159   9.466  19.733  0.00  0.00    +0.027 A 
ATOM      9  C6  UNL     1      10.996   8.407  20.640  0.00  0.00    +0.079 A 
ATOM     10  C16 UNL     1       9.898   8.421  21.529  0.00  0.00    +0.180 A 
BRANCH   5  12
ATOM     11  C1  UNL     1       7.672  10.454  23.409  0.00  0.00    +0.277 C 
ATOM     12  O1  UNL     1       7.910   9.466  22.411  0.00  0.00    -0.491 OA
ENDBRANCH   5  12
BRANCH  10  13
ATOM     13  O4  UNL     1       9.701   7.393  22.455  0.00  0.00    -0.502 OA
ATOM     14  H15 UNL     1       8.840   7.278  22.974  0.00  0.00    +0.292 HD
ENDBRANCH  10  13
ENDBRANCH   1   9
BRANCH   2  15
ATOM     15  C8  UNL     1      12.457   4.835  20.241  0.00  0.00    +0.037 A 
ATOM     16  C9  UNL     1      13.782   5.016  19.810  0.00  0.00    +0.014 A 
ATOM     17  C10 UNL     1      14.680   3.944  19.800  0.00  0.00    +0.012 A 
ATOM     18  C11 UNL     1      14.273   2.663  20.217  0.00  0.00    +0.017 A 
ATOM     19  C14 UNL     1      12.942   2.483  20.635  0.00  0.00    +0.012 A 
ATOM     20  C15 UNL     1      12.045   3.554  20.642  0.00  0.00    +0.014 A 
BRANCH  18  21
ATOM     21  C12 UNL     1      15.215   1.512  20.215  0.00  0.00    +0.160 C 
ATOM     22  C13 UNL     1      16.431   1.481  21.093  0.00  0.00    +0.091 C 
ATOM     23  O3  UNL     1      14.999   0.525  19.459  0.00  0.00    -0.292 OA
ENDBRANCH  18  21
ENDBRANCH   2  15
TORSDOF 5
ENDMDL
MODEL 7
REMARK VINA RESULT:    -5.321      1.555      2.169
REMARK INTER + INTRA:          -7.219
REMARK INTER:                  -6.738
REMARK INTRA:                  -0.481
REMARK UNBOUND:                -0.498
REMARK  Name = /home/qwerty/github/datacon2025hack/step_04_hit_selection/docking/ligands/lig_510.pdb
REMARK  7 active torsions:
REMARK  status: ('A' for Active; 'I' for Inactive)
REMARK    1  A    between atoms: C1_1  and  O1_2
REMARK    2  A    between atoms: O1_2  and  C2_3
REMARK    3  A    between atoms: C6_7  and  N1_8
REMARK    4  A    between atoms: C7_9  and  C8_11
REMARK    5  A    between atoms: C11_14  and  C12_15
REMARK    6  A    between atoms: C12_15  and  C13_16
REMARK    7  A    between atoms: C16_20  and  O4_21
REMARK                            x       y       z     vdW  Elec       q    Type
REMARK                         _______ _______ _______ _____ _____    ______ ____
ROOT
ATOM      1  N1  UNL     1      11.750   3.912  20.319  0.00  0.00    -0.278 N 
ATOM      2  C7  UNL     1      12.489   3.380  21.433  0.00  0.00    +0.248 C 
ATOM      3  O2  UNL     1      12.263   3.811  22.597  0.00  0.00    -0.270 OA
ATOM      4  H7  UNL     1      11.946   3.560  19.355  0.00  0.00    +0.155 HD
ENDROOT
BRANCH   1   9
ATOM      5  C2  UNL     1      10.136   7.291  20.631  0.00  0.00    +0.163 A 
ATOM      6  C3  UNL     1       8.796   6.915  20.842  0.00  0.00    +0.049 A 
ATOM      7  C4  UNL     1       8.440   5.566  20.864  0.00  0.00    +0.006 A 
ATOM      8  C5  UNL     1       9.409   4.581  20.680  0.00  0.00    +0.027 A 
ATOM      9  C6  UNL     1      10.749   4.933  20.457  0.00  0.00    +0.079 A 
ATOM     10  C16 UNL     1      11.112   6.299  20.439  0.00  0.00    +0.180 A 
BRANCH   5  12
ATOM     11  C1  UNL     1       9.644   9.742  20.519  0.00  0.00    +0.277 C 
ATOM     12  O1  UNL     1      10.537   8.636  20.605  0.00  0.00    -0.491 OA
ENDBRANCH   5  12
BRANCH  10  13
ATOM     13  O4  UNL     1      12.432   6.697  20.211  0.00  0.00    -0.502 OA
ATOM     14  H15 UNL     1      12.692   7.657  20.022  0.00  0.00    +0.292 HD
ENDBRANCH  10  13
ENDBRANCH   1   9
BRANCH   2  15
ATOM     15  C8  UNL     1      13.516   2.328  21.241  0.00  0.00    +0.037 A 
ATOM     16  C9  UNL     1      13.623   1.242  22.126  0.00  0.00    +0.014 A 
ATOM     17  C10 UNL     1      14.602   0.263  21.934  0.00  0.00    +0.012 A 
ATOM     18  C11 UNL     1      15.502   0.348  20.855  0.00  0.00    +0.017 A 
ATOM     19  C14 UNL     1      15.400   1.444  19.979  0.00  0.00    +0.012 A 
ATOM     20  C15 UNL     1      14.423   2.424  20.173  0.00  0.00    +0.014 A 
BRANCH  18  21
ATOM     21  C12 UNL     1      16.548  -0.687  20.635  0.00  0.00    +0.160 C 
ATOM     22  C13 UNL     1      16.916  -1.163  19.261  0.00  0.00    +0.091 C 
ATOM     23  O3  UNL     1      17.153  -1.187  21.623  0.00  0.00    -0.292 OA
ENDBRANCH  18  21
ENDBRANCH   2  15
TORSDOF 5
ENDMDL
MODEL 8
REMARK VINA RESULT:    -5.271     14.035     16.890
REMARK INTER + INTRA:          -7.155
REMARK INTER:                  -6.740
REMARK INTRA:                  -0.415
REMARK UNBOUND:                -0.498
REMARK  Name = /home/qwerty/github/datacon2025hack/step_04_hit_selection/docking/ligands/lig_510.pdb
REMARK  7 active torsions:
REMARK  status: ('A' for Active; 'I' for Inactive)
REMARK    1  A    between atoms: C1_1  and  O1_2
REMARK    2  A    between atoms: O1_2  and  C2_3
REMARK    3  A    between atoms: C6_7  and  N1_8
REMARK    4  A    between atoms: C7_9  and  C8_11
REMARK    5  A    between atoms: C11_14  and  C12_15
REMARK    6  A    between atoms: C12_15  and  C13_16
REMARK    7  A    between atoms: C16_20  and  O4_21
REMARK                            x       y       z     vdW  Elec       q    Type
REMARK                         _______ _______ _______ _____ _____    ______ ____
ROOT
ATOM      1  N1  UNL     1      12.920  13.310  32.729  0.00  0.00    -0.278 N 
ATOM      2  C7  UNL     1      12.871  13.960  31.447  0.00  0.00    +0.248 C 
ATOM      3  O2  UNL     1      13.799  14.744  31.106  0.00  0.00    -0.270 OA
ATOM      4  H7  UNL     1      12.146  12.670  33.012  0.00  0.00    +0.155 HD
ENDROOT
BRANCH   1   9
ATOM      5  C2  UNL     1      14.865  14.576  35.685  0.00  0.00    +0.163 A 
ATOM      6  C3  UNL     1      16.117  13.983  35.438  0.00  0.00    +0.049 A 
ATOM      7  C4  UNL     1      16.302  13.169  34.321  0.00  0.00    +0.006 A 
ATOM      8  C5  UNL     1      15.248  12.938  33.438  0.00  0.00    +0.027 A 
ATOM      9  C6  UNL     1      13.987  13.511  33.670  0.00  0.00    +0.079 A 
ATOM     10  C16 UNL     1      13.801  14.338  34.800  0.00  0.00    +0.180 A 
BRANCH   5  12
ATOM     11  C1  UNL     1      15.011  16.776  36.868  0.00  0.00    +0.277 C 
ATOM     12  O1  UNL     1      14.638  15.404  36.796  0.00  0.00    -0.491 OA
ENDBRANCH   5  12
BRANCH  10  13
ATOM     13  O4  UNL     1      12.561  14.921  35.076  0.00  0.00    -0.502 OA
ATOM     14  H15 UNL     1      11.763  14.833  34.459  0.00  0.00    +0.292 HD
ENDBRANCH  10  13
ENDBRANCH   1   9
BRANCH   2  15
ATOM     15  C8  UNL     1      11.747  13.725  30.509  0.00  0.00    +0.037 A 
ATOM     16  C9  UNL     1      10.706  12.835  30.827  0.00  0.00    +0.014 A 
ATOM     17  C10 UNL     1       9.657  12.619  29.928  0.00  0.00    +0.012 A 
ATOM     18  C11 UNL     1       9.625  13.283  28.687  0.00  0.00    +0.017 A 
ATOM     19  C14 UNL     1      10.676  14.163  28.368  0.00  0.00    +0.012 A 
ATOM     20  C15 UNL     1      11.725  14.376  29.266  0.00  0.00    +0.014 A 
BRANCH  18  21
ATOM     21  C12 UNL     1       8.515  13.067  27.721  0.00  0.00    +0.160 C 
ATOM     22  C13 UNL     1       7.589  14.174  27.317  0.00  0.00    +0.091 C 
ATOM     23  O3  UNL     1       8.336  11.923  27.218  0.00  0.00    -0.292 OA
ENDBRANCH  18  21
ENDBRANCH   2  15
TORSDOF 5
ENDMDL
MODEL 9
REMARK VINA RESULT:    -5.262      9.449     11.163
REMARK INTER + INTRA:          -7.144
REMARK INTER:                  -6.665
REMARK INTRA:                  -0.479
REMARK UNBOUND:                -0.498
REMARK  Name = /home/qwerty/github/datacon2025hack/step_04_hit_selection/docking/ligands/lig_510.pdb
REMARK  7 active torsions:
REMARK  status: ('A' for Active; 'I' for Inactive)
REMARK    1  A    between atoms: C1_1  and  O1_2
REMARK    2  A    between atoms: O1_2  and  C2_3
REMARK    3  A    between atoms: C6_7  and  N1_8
REMARK    4  A    between atoms: C7_9  and  C8_11
REMARK    5  A    between atoms: C11_14  and  C12_15
REMARK    6  A    between atoms: C12_15  and  C13_16
REMARK    7  A    between atoms: C16_20  and  O4_21
REMARK                            x       y       z     vdW  Elec       q    Type
REMARK                         _______ _______ _______ _____ _____    ______ ____
ROOT
ATOM      1  N1  UNL     1      21.413   4.084  23.545  0.00  0.00    -0.278 N 
ATOM      2  C7  UNL     1      20.778   4.113  24.836  0.00  0.00    +0.248 C 
ATOM      3  O2  UNL     1      19.908   4.991  25.087  0.00  0.00    -0.270 OA
ATOM      4  H7  UNL     1      22.140   3.362  23.345  0.00  0.00    +0.155 HD
ENDROOT
BRANCH   1   9
ATOM      5  C2  UNL     1      21.491   7.175  21.410  0.00  0.00    +0.163 A 
ATOM      6  C3  UNL     1      20.431   6.899  20.525  0.00  0.00    +0.049 A 
ATOM      7  C4  UNL     1      19.719   5.705  20.631  0.00  0.00    +0.006 A 
ATOM      8  C5  UNL     1      20.050   4.775  21.615  0.00  0.00    +0.027 A 
ATOM      9  C6  UNL     1      21.110   5.023  22.502  0.00  0.00    +0.079 A 
ATOM     10  C16 UNL     1      21.830   6.235  22.397  0.00  0.00    +0.180 A 
BRANCH   5  12
ATOM     11  C1  UNL     1      23.284   8.606  20.411  0.00  0.00    +0.277 C 
ATOM     12  O1  UNL     1      22.231   8.366  21.339  0.00  0.00    -0.491 OA
ENDBRANCH   5  12
BRANCH  10  13
ATOM     13  O4  UNL     1      22.898   6.521  23.251  0.00  0.00    -0.502 OA
ATOM     14  H15 UNL     1      22.787   7.032  24.118  0.00  0.00    +0.292 HD
ENDBRANCH  10  13
ENDBRANCH   1   9
BRANCH   2  15
ATOM     15  C8  UNL     1      21.126   3.123  25.885  0.00  0.00    +0.037 A 
ATOM     16  C9  UNL     1      20.388   1.938  26.043  0.00  0.00    +0.014 A 
ATOM     17  C10 UNL     1      20.725   1.019  27.041  0.00  0.00    +0.012 A 
ATOM     18  C11 UNL     1      21.805   1.266  27.910  0.00  0.00    +0.017 A 
ATOM     19  C14 UNL     1      22.532   2.460  27.757  0.00  0.00    +0.012 A 
ATOM     20  C15 UNL     1      22.193   3.379  26.760  0.00  0.00    +0.014 A 
BRANCH  18  21
ATOM     21  C12 UNL     1      22.178   0.298  28.977  0.00  0.00    +0.160 C 
ATOM     22  C13 UNL     1      22.753  -1.050  28.658  0.00  0.00    +0.091 C 
ATOM     23  O3  UNL     1      22.012   0.606  30.189  0.00  0.00    -0.292 OA
ENDBRANCH  18  21
ENDBRANCH   2  15
TORSDOF 5
ENDMDL
