REMARK  Name = /home/qwerty/github/datacon2025hack/step_04_hit_selection/docking/ligands/lig_794.pdb
REMARK  6 active torsions:
REMARK  status: ('A' for Active; 'I' for Inactive)
REMARK    1  A    between atoms: C1_1  and  N1_2
REMARK    2  A    between atoms: N1_2  and  C2_3
REMARK    3  A    between atoms: N1_2  and  C3_4
REMARK    4  A    between atoms: C6_7  and  C7_8
REMARK    5  A    between atoms: C9_12  and  N3_13
REMARK    6  A    between atoms: C10_14  and  C11_16
REMARK                            x       y       z     vdW  Elec       q    Type
REMARK                         _______ _______ _______ _____ _____    ______ ____
ROOT
ATOM      1  C7  UNL     1       1.388   2.040   0.590  0.00  0.00    +0.248 C 
ATOM      2  O1  UNL     1       1.525   3.281   0.420  0.00  0.00    -0.270 OA
ATOM      3  N2  UNL     1       0.078   1.518   0.833  0.00  0.00    -0.294 N 
ATOM      4  C8  UNL     1      -0.609   0.212   0.906  0.00  0.00    +0.132 C 
ATOM      5  C9  UNL     1      -1.997   0.769   0.990  0.00  0.00    +0.107 C 
ATOM      6  C16 UNL     1      -1.282   2.081   0.923  0.00  0.00    +0.132 C 
ENDROOT
BRANCH   1  10
ATOM      7  C3  UNL     1       4.842  -0.465   0.244  0.00  0.00    +0.121 A 
ATOM      8  C4  UNL     1       3.815  -0.821   1.138  0.00  0.00    +0.044 A 
ATOM      9  C5  UNL     1       2.687  -0.007   1.257  0.00  0.00    +0.018 A 
ATOM     10  C6  UNL     1       2.569   1.157   0.485  0.00  0.00    +0.055 A 
ATOM     11  C17 UNL     1       3.621   1.488  -0.382  0.00  0.00    +0.126 A 
ATOM     12  N4  UNL     1       4.709   0.681  -0.482  0.00  0.00    -0.240 NA
BRANCH   7  14
ATOM     13  C1  UNL     1       6.207  -2.527   0.834  0.00  0.00    +0.130 C 
ATOM     14  N1  UNL     1       6.030  -1.277   0.084  0.00  0.00    -0.321 N 
ATOM     15  C2  UNL     1       7.072  -0.838  -0.851  0.00  0.00    +0.130 C 
ENDBRANCH   7  14
ENDBRANCH   1  10
BRANCH   5  16
ATOM     16  N3  UNL     1      -2.809   0.508  -0.201  0.00  0.00    -0.309 N 
ATOM     17  C10 UNL     1      -4.093   1.119  -0.378  0.00  0.00    +0.217 C 
ATOM     18  O2  UNL     1      -4.501   1.985   0.444  0.00  0.00    -0.275 OA
ATOM     19  H12 UNL     1      -2.488  -0.185  -0.915  0.00  0.00    +0.149 HD
BRANCH  17  20
ATOM     20  C11 UNL     1      -4.916   0.786  -1.603  0.00  0.00    +0.082 C 
ATOM     21  C12 UNL     1      -6.382   0.806  -1.395  0.00  0.00    +0.021 C 
ATOM     22  C13 UNL     1      -5.722  -0.553  -1.762  0.00  0.00    -0.017 C 
ATOM     23  C14 UNL     1      -6.607  -1.515  -0.923  0.00  0.00    +0.008 C 
ATOM     24  C15 UNL     1      -5.154  -1.503  -0.669  0.00  0.00    +0.008 C 
ENDBRANCH  17  20
ENDBRANCH   5  16
TORSDOF 4
