MODEL 1
REMARK VINA RESULT:    -5.665      0.000      0.000
REMARK INTER + INTRA:          -8.513
REMARK INTER:                  -7.652
REMARK INTRA:                  -0.862
REMARK UNBOUND:                -0.862
REMARK  Name = /home/qwerty/github/datacon2025hack/step_04_hit_selection/docking/ligands/lig_475.pdb
REMARK  7 active torsions:
REMARK  status: ('A' for Active; 'I' for Inactive)
REMARK    1  A    between atoms: C1_1  and  C2_2
REMARK    2  A    between atoms: C4_4  and  C5_5
REMARK    3  A    between atoms: N1_7  and  C6_8
REMARK    4  A    between atoms: C6_8  and  C7_9
REMARK    5  A    between atoms: C7_9  and  N2_10
REMARK    6  A    between atoms: C7_9  and  C13_19
REMARK    7  A    between atoms: C8_11  and  C9_13
REMARK                            x       y       z     vdW  Elec       q    Type
REMARK                         _______ _______ _______ _____ _____    ______ ____
ROOT
ATOM      1  C7  UNL     1      20.617   1.173  31.648  0.00  0.00    +0.093 C 
ENDROOT
BRANCH   1   2
ATOM      2  N2  UNL     1      21.037   2.568  31.460  0.00  0.00    -0.307 N 
ATOM      3  C8  UNL     1      21.684   3.324  32.500  0.00  0.00    +0.247 C 
ATOM      4  O2  UNL     1      21.717   2.865  33.675  0.00  0.00    -0.270 OA
ATOM      5  H9  UNL     1      20.776   3.064  30.578  0.00  0.00    +0.149 HD
BRANCH   3   6
ATOM      6  C9  UNL     1      22.297   4.643  32.218  0.00  0.00    +0.073 A 
ATOM      7  C10 UNL     1      21.817   5.479  31.198  0.00  0.00    +0.127 A 
ATOM      8  N3  UNL     1      22.411   6.678  30.962  0.00  0.00    -0.243 NA
ATOM      9  C11 UNL     1      23.474   7.089  31.698  0.00  0.00    +0.221 A 
ATOM     10  N4  UNL     1      23.967   6.295  32.683  0.00  0.00    -0.243 NA
ATOM     11  C12 UNL     1      23.406   5.087  32.953  0.00  0.00    +0.127 A 
ENDBRANCH   3   6
ENDBRANCH   1   2
BRANCH   1  12
ATOM     12  C13 UNL     1      19.090   1.111  31.943  0.00  0.00    +0.011 C 
ATOM     13  C14 UNL     1      18.558  -0.250  32.384  0.00  0.00    +0.006 C 
ATOM     14  C15 UNL     1      18.562   0.909  33.364  0.00  0.00    +0.006 C 
ENDBRANCH   1  12
BRANCH   1  15
ATOM     15  C6  UNL     1      21.120   0.307  30.470  0.00  0.00    +0.127 C 
BRANCH  15  18
ATOM     16  C5  UNL     1      22.048   1.336  28.356  0.00  0.00    +0.263 C 
ATOM     17  O1  UNL     1      23.217   1.034  28.722  0.00  0.00    -0.269 OA
ATOM     18  N1  UNL     1      20.930   0.983  29.185  0.00  0.00    -0.308 N 
ATOM     19  H5  UNL     1      19.964   1.221  28.867  0.00  0.00    +0.149 HD
BRANCH  16  23
ATOM     20  C1  UNL     1      23.011   5.148  25.230  0.00  0.00    +0.066 C 
ATOM     21  C2  UNL     1      22.298   3.878  25.570  0.00  0.00    +0.042 A 
ATOM     22  C3  UNL     1      22.531   3.240  26.793  0.00  0.00    +0.056 A 
ATOM     23  C4  UNL     1      21.840   2.053  27.077  0.00  0.00    +0.129 A 
ATOM     24  N5  UNL     1      20.966   1.559  26.159  0.00  0.00    -0.231 NA
ATOM     25  C16 UNL     1      20.750   2.191  24.977  0.00  0.00    +0.222 A 
ATOM     26  N6  UNL     1      21.412   3.341  24.690  0.00  0.00    -0.241 NA
ENDBRANCH  16  23
ENDBRANCH  15  18
ENDBRANCH   1  15
TORSDOF 6
ENDMDL
MODEL 2
REMARK VINA RESULT:    -5.626     14.234     15.722
REMARK INTER + INTRA:          -8.462
REMARK INTER:                  -7.615
REMARK INTRA:                  -0.847
REMARK UNBOUND:                -0.862
REMARK  Name = /home/qwerty/github/datacon2025hack/step_04_hit_selection/docking/ligands/lig_475.pdb
REMARK  7 active torsions:
REMARK  status: ('A' for Active; 'I' for Inactive)
REMARK    1  A    between atoms: C1_1  and  C2_2
REMARK    2  A    between atoms: C4_4  and  C5_5
REMARK    3  A    between atoms: N1_7  and  C6_8
REMARK    4  A    between atoms: C6_8  and  C7_9
REMARK    5  A    between atoms: C7_9  and  N2_10
REMARK    6  A    between atoms: C7_9  and  C13_19
REMARK    7  A    between atoms: C8_11  and  C9_13
REMARK                            x       y       z     vdW  Elec       q    Type
REMARK                         _______ _______ _______ _____ _____    ______ ____
ROOT
ATOM      1  C7  UNL     1      11.846  14.406  28.677  0.00  0.00    +0.093 C 
ENDROOT
BRANCH   1   2
ATOM      2  N2  UNL     1      11.669  13.672  29.937  0.00  0.00    -0.307 N 
ATOM      3  C8  UNL     1      12.069  14.217  31.207  0.00  0.00    +0.247 C 
ATOM      4  O2  UNL     1      12.776  15.261  31.243  0.00  0.00    -0.270 OA
ATOM      5  H9  UNL     1      11.331  12.684  29.907  0.00  0.00    +0.149 HD
BRANCH   3   6
ATOM      6  C9  UNL     1      11.678  13.562  32.478  0.00  0.00    +0.073 A 
ATOM      7  C10 UNL     1      11.292  14.304  33.604  0.00  0.00    +0.127 A 
ATOM      8  N3  UNL     1      10.950  13.670  34.755  0.00  0.00    -0.243 NA
ATOM      9  C11 UNL     1      10.977  12.316  34.842  0.00  0.00    +0.221 A 
ATOM     10  N4  UNL     1      11.357  11.573  33.773  0.00  0.00    -0.243 NA
ATOM     11  C12 UNL     1      11.711  12.165  32.601  0.00  0.00    +0.127 A 
ENDBRANCH   3   6
ENDBRANCH   1   2
BRANCH   1  12
ATOM     12  C13 UNL     1      13.214  14.038  28.033  0.00  0.00    +0.011 C 
ATOM     13  C14 UNL     1      13.507  14.693  26.686  0.00  0.00    +0.006 C 
ATOM     14  C15 UNL     1      14.335  15.069  27.901  0.00  0.00    +0.006 C 
ENDBRANCH   1  12
BRANCH   1  15
ATOM     15  C6  UNL     1      10.599  14.225  27.781  0.00  0.00    +0.127 C 
BRANCH  15  18
ATOM     16  C5  UNL     1       8.663  12.599  27.780  0.00  0.00    +0.263 C 
ATOM     17  O1  UNL     1       7.859  13.557  27.609  0.00  0.00    -0.269 OA
ATOM     18  N1  UNL     1      10.072  12.860  27.861  0.00  0.00    -0.308 N 
ATOM     19  H5  UNL     1      10.733  12.061  27.986  0.00  0.00    +0.149 HD
BRANCH  16  23
ATOM     20  C1  UNL     1       6.859   8.787  30.508  0.00  0.00    +0.066 C 
ATOM     21  C2  UNL     1       7.277   9.383  29.202  0.00  0.00    +0.042 A 
ATOM     22  C3  UNL     1       7.760  10.694  29.144  0.00  0.00    +0.056 A 
ATOM     23  C4  UNL     1       8.145  11.218  27.901  0.00  0.00    +0.129 A 
ATOM     24  N5  UNL     1       8.039  10.436  26.792  0.00  0.00    -0.231 NA
ATOM     25  C16 UNL     1       7.570   9.164  26.865  0.00  0.00    +0.222 A 
ATOM     26  N6  UNL     1       7.194   8.646  28.063  0.00  0.00    -0.241 NA
ENDBRANCH  16  23
ENDBRANCH  15  18
ENDBRANCH   1  15
TORSDOF 6
ENDMDL
MODEL 3
REMARK VINA RESULT:    -5.530     10.926     13.716
REMARK INTER + INTRA:          -8.332
REMARK INTER:                  -7.307
REMARK INTRA:                  -1.025
REMARK UNBOUND:                -0.862
REMARK  Name = /home/qwerty/github/datacon2025hack/step_04_hit_selection/docking/ligands/lig_475.pdb
REMARK  7 active torsions:
REMARK  status: ('A' for Active; 'I' for Inactive)
REMARK    1  A    between atoms: C1_1  and  C2_2
REMARK    2  A    between atoms: C4_4  and  C5_5
REMARK    3  A    between atoms: N1_7  and  C6_8
REMARK    4  A    between atoms: C6_8  and  C7_9
REMARK    5  A    between atoms: C7_9  and  N2_10
REMARK    6  A    between atoms: C7_9  and  C13_19
REMARK    7  A    between atoms: C8_11  and  C9_13
REMARK                            x       y       z     vdW  Elec       q    Type
REMARK                         _______ _______ _______ _____ _____    ______ ____
ROOT
ATOM      1  C7  UNL     1      23.107   9.786  20.538  0.00  0.00    +0.093 C 
ENDROOT
BRANCH   1   2
ATOM      2  N2  UNL     1      21.770   9.992  19.964  0.00  0.00    -0.307 N 
ATOM      3  C8  UNL     1      20.575   9.943  20.763  0.00  0.00    +0.247 C 
ATOM      4  O2  UNL     1      20.634   9.513  21.948  0.00  0.00    -0.270 OA
ATOM      5  H9  UNL     1      21.669  10.082  18.928  0.00  0.00    +0.149 HD
BRANCH   3   6
ATOM      6  C9  UNL     1      19.268  10.373  20.212  0.00  0.00    +0.073 A 
ATOM      7  C10 UNL     1      19.048  11.687  19.770  0.00  0.00    +0.127 A 
ATOM      8  N3  UNL     1      17.834  12.048  19.280  0.00  0.00    -0.243 NA
ATOM      9  C11 UNL     1      16.815  11.155  19.209  0.00  0.00    +0.221 A 
ATOM     10  N4  UNL     1      16.995   9.881  19.639  0.00  0.00    -0.243 NA
ATOM     11  C12 UNL     1      18.192   9.475  20.140  0.00  0.00    +0.127 A 
ENDBRANCH   3   6
ENDBRANCH   1   2
BRANCH   1  12
ATOM     12  C13 UNL     1      23.559   8.312  20.322  0.00  0.00    +0.011 C 
ATOM     13  C14 UNL     1      24.869   7.919  20.998  0.00  0.00    +0.006 C 
ATOM     14  C15 UNL     1      23.565   7.306  21.472  0.00  0.00    +0.006 C 
ENDBRANCH   1  12
BRANCH   1  15
ATOM     15  C6  UNL     1      24.074  10.879  20.026  0.00  0.00    +0.127 C 
BRANCH  15  18
ATOM     16  C5  UNL     1      23.520  12.925  21.403  0.00  0.00    +0.263 C 
ATOM     17  O1  UNL     1      22.422  13.039  20.792  0.00  0.00    -0.269 OA
ATOM     18  N1  UNL     1      24.405  11.842  21.079  0.00  0.00    -0.308 N 
ATOM     19  H5  UNL     1      25.305  11.744  21.600  0.00  0.00    +0.149 HD
BRANCH  16  23
ATOM     20  C1  UNL     1      23.531  14.510  26.169  0.00  0.00    +0.066 C 
ATOM     21  C2  UNL     1      23.899  14.679  24.730  0.00  0.00    +0.042 A 
ATOM     22  C3  UNL     1      23.527  13.716  23.786  0.00  0.00    +0.056 A 
ATOM     23  C4  UNL     1      23.888  13.911  22.444  0.00  0.00    +0.129 A 
ATOM     24  N5  UNL     1      24.585  15.028  22.102  0.00  0.00    -0.231 NA
ATOM     25  C16 UNL     1      24.937  15.954  23.030  0.00  0.00    +0.222 A 
ATOM     26  N6  UNL     1      24.594  15.777  24.332  0.00  0.00    -0.241 NA
ENDBRANCH  16  23
ENDBRANCH  15  18
ENDBRANCH   1  15
TORSDOF 6
ENDMDL
MODEL 4
REMARK VINA RESULT:    -5.409      3.130      6.745
REMARK INTER + INTRA:          -8.168
REMARK INTER:                  -7.262
REMARK INTRA:                  -0.906
REMARK UNBOUND:                -0.862
REMARK  Name = /home/qwerty/github/datacon2025hack/step_04_hit_selection/docking/ligands/lig_475.pdb
REMARK  7 active torsions:
REMARK  status: ('A' for Active; 'I' for Inactive)
REMARK    1  A    between atoms: C1_1  and  C2_2
REMARK    2  A    between atoms: C4_4  and  C5_5
REMARK    3  A    between atoms: N1_7  and  C6_8
REMARK    4  A    between atoms: C6_8  and  C7_9
REMARK    5  A    between atoms: C7_9  and  N2_10
REMARK    6  A    between atoms: C7_9  and  C13_19
REMARK    7  A    between atoms: C8_11  and  C9_13
REMARK                            x       y       z     vdW  Elec       q    Type
REMARK                         _______ _______ _______ _____ _____    ______ ____
ROOT
ATOM      1  C7  UNL     1      21.522   1.772  31.146  0.00  0.00    +0.093 C 
ENDROOT
BRANCH   1   2
ATOM      2  N2  UNL     1      22.218   2.628  32.116  0.00  0.00    -0.307 N 
ATOM      3  C8  UNL     1      22.218   4.063  32.014  0.00  0.00    +0.247 C 
ATOM      4  O2  UNL     1      21.789   4.613  30.962  0.00  0.00    -0.270 OA
ATOM      5  H9  UNL     1      22.814   2.185  32.851  0.00  0.00    +0.149 HD
BRANCH   3   6
ATOM      6  C9  UNL     1      22.729   4.909  33.118  0.00  0.00    +0.073 A 
ATOM      7  C10 UNL     1      21.977   5.144  34.279  0.00  0.00    +0.127 A 
ATOM      8  N3  UNL     1      22.474   5.932  35.267  0.00  0.00    -0.243 NA
ATOM      9  C11 UNL     1      23.697   6.508  35.153  0.00  0.00    +0.221 A 
ATOM     10  N4  UNL     1      24.442   6.307  34.037  0.00  0.00    -0.243 NA
ATOM     11  C12 UNL     1      23.984   5.528  33.022  0.00  0.00    +0.127 A 
ENDBRANCH   3   6
ENDBRANCH   1   2
BRANCH   1  12
ATOM     12  C13 UNL     1      22.510   1.317  30.032  0.00  0.00    +0.011 C 
ATOM     13  C14 UNL     1      21.997   0.221  29.102  0.00  0.00    +0.006 C 
ATOM     14  C15 UNL     1      22.240   1.617  28.557  0.00  0.00    +0.006 C 
ENDBRANCH   1  12
BRANCH   1  15
ATOM     15  C6  UNL     1      20.762   0.646  31.885  0.00  0.00    +0.127 C 
BRANCH  15  18
ATOM     16  C5  UNL     1      18.826   1.317  33.364  0.00  0.00    +0.263 C 
ATOM     17  O1  UNL     1      18.022   1.072  32.423  0.00  0.00    -0.269 OA
ATOM     18  N1  UNL     1      20.233   1.108  33.170  0.00  0.00    -0.308 N 
ATOM     19  H5  UNL     1      20.891   1.297  33.959  0.00  0.00    +0.149 HD
BRANCH  16  23
ATOM     20  C1  UNL     1      18.226   4.981  36.748  0.00  0.00    +0.066 C 
ATOM     21  C2  UNL     1      18.017   3.573  36.287  0.00  0.00    +0.042 A 
ATOM     22  C3  UNL     1      18.525   3.149  35.055  0.00  0.00    +0.056 A 
ATOM     23  C4  UNL     1      18.311   1.820  34.658  0.00  0.00    +0.129 A 
ATOM     24  N5  UNL     1      17.620   0.986  35.481  0.00  0.00    -0.231 NA
ATOM     25  C16 UNL     1      17.135   1.414  36.675  0.00  0.00    +0.222 A 
ATOM     26  N6  UNL     1      17.335   2.697  37.071  0.00  0.00    -0.241 NA
ENDBRANCH  16  23
ENDBRANCH  15  18
ENDBRANCH   1  15
TORSDOF 6
ENDMDL
MODEL 5
REMARK VINA RESULT:    -5.387      4.138      7.587
REMARK INTER + INTRA:          -8.139
REMARK INTER:                  -7.126
REMARK INTRA:                  -1.013
REMARK UNBOUND:                -0.862
REMARK  Name = /home/qwerty/github/datacon2025hack/step_04_hit_selection/docking/ligands/lig_475.pdb
REMARK  7 active torsions:
REMARK  status: ('A' for Active; 'I' for Inactive)
REMARK    1  A    between atoms: C1_1  and  C2_2
REMARK    2  A    between atoms: C4_4  and  C5_5
REMARK    3  A    between atoms: N1_7  and  C6_8
REMARK    4  A    between atoms: C6_8  and  C7_9
REMARK    5  A    between atoms: C7_9  and  N2_10
REMARK    6  A    between atoms: C7_9  and  C13_19
REMARK    7  A    between atoms: C8_11  and  C9_13
REMARK                            x       y       z     vdW  Elec       q    Type
REMARK                         _______ _______ _______ _____ _____    ______ ____
ROOT
ATOM      1  C7  UNL     1      23.203   8.305  33.239  0.00  0.00    +0.093 C 
ENDROOT
BRANCH   1   2
ATOM      2  N2  UNL     1      22.417   8.676  34.423  0.00  0.00    -0.307 N 
ATOM      3  C8  UNL     1      21.003   8.932  34.358  0.00  0.00    +0.247 C 
ATOM      4  O2  UNL     1      20.441   9.047  33.235  0.00  0.00    -0.270 OA
ATOM      5  H9  UNL     1      22.911   8.855  35.327  0.00  0.00    +0.149 HD
BRANCH   3   6
ATOM      6  C9  UNL     1      20.195   9.082  35.592  0.00  0.00    +0.073 A 
ATOM      7  C10 UNL     1      19.617  10.308  35.953  0.00  0.00    +0.127 A 
ATOM      8  N3  UNL     1      18.891  10.410  37.096  0.00  0.00    -0.243 NA
ATOM      9  C11 UNL     1      18.712   9.339  37.909  0.00  0.00    +0.221 A 
ATOM     10  N4  UNL     1      19.270   8.143  37.591  0.00  0.00    -0.243 NA
ATOM     11  C12 UNL     1      20.006   7.995  36.459  0.00  0.00    +0.127 A 
ENDBRANCH   3   6
ENDBRANCH   1   2
BRANCH   1  12
ATOM     12  C13 UNL     1      23.940   9.556  32.675  0.00  0.00    +0.011 C 
ATOM     13  C14 UNL     1      25.304   9.289  32.045  0.00  0.00    +0.006 C 
ATOM     14  C15 UNL     1      24.149   9.745  31.173  0.00  0.00    +0.006 C 
ENDBRANCH   1  12
BRANCH   1  15
ATOM     15  C6  UNL     1      24.088   7.077  33.556  0.00  0.00    +0.127 C 
BRANCH  15  18
ATOM     16  C5  UNL     1      22.501   5.119  33.752  0.00  0.00    +0.263 C 
ATOM     17  O1  UNL     1      22.086   5.566  34.857  0.00  0.00    -0.269 OA
ATOM     18  N1  UNL     1      23.506   5.843  33.025  0.00  0.00    -0.308 N 
ATOM     19  H5  UNL     1      23.833   5.476  32.103  0.00  0.00    +0.149 HD
BRANCH  16  23
ATOM     20  C1  UNL     1      22.233   1.577  30.202  0.00  0.00    +0.066 C 
ATOM     21  C2  UNL     1      21.817   2.148  31.520  0.00  0.00    +0.042 A 
ATOM     22  C3  UNL     1      22.368   3.348  31.978  0.00  0.00    +0.056 A 
ATOM     23  C4  UNL     1      21.951   3.853  33.219  0.00  0.00    +0.129 A 
ATOM     24  N5  UNL     1      21.024   3.163  33.936  0.00  0.00    -0.231 NA
ATOM     25  C16 UNL     1      20.497   1.999  33.477  0.00  0.00    +0.222 A 
ATOM     26  N6  UNL     1      20.892   1.500  32.278  0.00  0.00    -0.241 NA
ENDBRANCH  16  23
ENDBRANCH  15  18
ENDBRANCH   1  15
TORSDOF 6
ENDMDL
MODEL 6
REMARK VINA RESULT:    -5.360      9.821     12.766
REMARK INTER + INTRA:          -8.101
REMARK INTER:                  -7.619
REMARK INTRA:                  -0.483
REMARK UNBOUND:                -0.862
REMARK  Name = /home/qwerty/github/datacon2025hack/step_04_hit_selection/docking/ligands/lig_475.pdb
REMARK  7 active torsions:
REMARK  status: ('A' for Active; 'I' for Inactive)
REMARK    1  A    between atoms: C1_1  and  C2_2
REMARK    2  A    between atoms: C4_4  and  C5_5
REMARK    3  A    between atoms: N1_7  and  C6_8
REMARK    4  A    between atoms: C6_8  and  C7_9
REMARK    5  A    between atoms: C7_9  and  N2_10
REMARK    6  A    between atoms: C7_9  and  C13_19
REMARK    7  A    between atoms: C8_11  and  C9_13
REMARK                            x       y       z     vdW  Elec       q    Type
REMARK                         _______ _______ _______ _____ _____    ______ ____
ROOT
ATOM      1  C7  UNL     1      15.010   2.521  20.078  0.00  0.00    +0.093 C 
ENDROOT
BRANCH   1   2
ATOM      2  N2  UNL     1      13.685   3.138  19.930  0.00  0.00    -0.307 N 
ATOM      3  C8  UNL     1      12.639   2.956  20.901  0.00  0.00    +0.247 C 
ATOM      4  O2  UNL     1      12.772   2.085  21.805  0.00  0.00    -0.270 OA
ATOM      5  H9  UNL     1      13.457   3.648  19.048  0.00  0.00    +0.149 HD
BRANCH   3   6
ATOM      6  C9  UNL     1      11.397   3.763  20.849  0.00  0.00    +0.073 A 
ATOM      7  C10 UNL     1      11.355   5.014  20.215  0.00  0.00    +0.127 A 
ATOM      8  N3  UNL     1      10.201   5.730  20.195  0.00  0.00    -0.243 NA
ATOM      9  C11 UNL     1       9.074   5.258  20.784  0.00  0.00    +0.221 A 
ATOM     10  N4  UNL     1       9.089   4.056  21.414  0.00  0.00    -0.243 NA
ATOM     11  C12 UNL     1      10.221   3.306  21.462  0.00  0.00    +0.127 A 
ENDBRANCH   3   6
ENDBRANCH   1   2
BRANCH   1  12
ATOM     12  C13 UNL     1      15.678   3.004  21.399  0.00  0.00    +0.011 C 
ATOM     13  C14 UNL     1      17.203   3.081  21.377  0.00  0.00    +0.006 C 
ATOM     14  C15 UNL     1      16.387   4.356  21.483  0.00  0.00    +0.006 C 
ENDBRANCH   1  12
BRANCH   1  15
ATOM     15  C6  UNL     1      14.903   0.991  19.887  0.00  0.00    +0.127 C 
BRANCH  15  18
ATOM     16  C5  UNL     1      16.047  -0.682  21.398  0.00  0.00    +0.263 C 
ATOM     17  O1  UNL     1      16.908  -0.903  20.502  0.00  0.00    -0.269 OA
ATOM     18  N1  UNL     1      15.008   0.280  21.164  0.00  0.00    -0.308 N 
ATOM     19  H5  UNL     1      14.308   0.470  21.916  0.00  0.00    +0.149 HD
BRANCH  16  23
ATOM     20  C1  UNL     1      14.024  -2.152  25.754  0.00  0.00    +0.066 C 
ATOM     21  C2  UNL     1      15.152  -2.130  24.772  0.00  0.00    +0.042 A 
ATOM     22  C3  UNL     1      15.035  -1.418  23.575  0.00  0.00    +0.056 A 
ATOM     23  C4  UNL     1      16.116  -1.419  22.680  0.00  0.00    +0.129 A 
ATOM     24  N5  UNL     1      17.243  -2.110  23.004  0.00  0.00    -0.231 NA
ATOM     25  C16 UNL     1      17.340  -2.795  24.172  0.00  0.00    +0.222 A 
ATOM     26  N6  UNL     1      16.302  -2.802  25.046  0.00  0.00    -0.241 NA
ENDBRANCH  16  23
ENDBRANCH  15  18
ENDBRANCH   1  15
TORSDOF 6
ENDMDL
MODEL 7
REMARK VINA RESULT:    -5.316      4.353      9.303
REMARK INTER + INTRA:          -8.042
REMARK INTER:                  -7.073
REMARK INTRA:                  -0.969
REMARK UNBOUND:                -0.862
REMARK  Name = /home/qwerty/github/datacon2025hack/step_04_hit_selection/docking/ligands/lig_475.pdb
REMARK  7 active torsions:
REMARK  status: ('A' for Active; 'I' for Inactive)
REMARK    1  A    between atoms: C1_1  and  C2_2
REMARK    2  A    between atoms: C4_4  and  C5_5
REMARK    3  A    between atoms: N1_7  and  C6_8
REMARK    4  A    between atoms: C6_8  and  C7_9
REMARK    5  A    between atoms: C7_9  and  N2_10
REMARK    6  A    between atoms: C7_9  and  C13_19
REMARK    7  A    between atoms: C8_11  and  C9_13
REMARK                            x       y       z     vdW  Elec       q    Type
REMARK                         _______ _______ _______ _____ _____    ______ ____
ROOT
ATOM      1  C7  UNL     1      23.592   7.178  33.257  0.00  0.00    +0.093 C 
ENDROOT
BRANCH   1   2
ATOM      2  N2  UNL     1      22.703   6.048  32.954  0.00  0.00    -0.307 N 
ATOM      3  C8  UNL     1      23.194   4.706  32.787  0.00  0.00    +0.247 C 
ATOM      4  O2  UNL     1      24.436   4.504  32.692  0.00  0.00    -0.270 OA
ATOM      5  H9  UNL     1      21.693   6.233  32.757  0.00  0.00    +0.149 HD
BRANCH   3   6
ATOM      6  C9  UNL     1      22.263   3.555  32.707  0.00  0.00    +0.073 A 
ATOM      7  C10 UNL     1      21.437   3.196  33.783  0.00  0.00    +0.127 A 
ATOM      8  N3  UNL     1      20.604   2.129  33.678  0.00  0.00    -0.243 NA
ATOM      9  C11 UNL     1      20.553   1.391  32.540  0.00  0.00    +0.221 A 
ATOM     10  N4  UNL     1      21.349   1.708  31.488  0.00  0.00    -0.243 NA
ATOM     11  C12 UNL     1      22.201   2.766  31.550  0.00  0.00    +0.127 A 
ENDBRANCH   3   6
ENDBRANCH   1   2
BRANCH   1  12
ATOM     12  C13 UNL     1      23.101   8.456  32.517  0.00  0.00    +0.011 C 
ATOM     13  C14 UNL     1      24.164   9.522  32.265  0.00  0.00    +0.006 C 
ATOM     14  C15 UNL     1      23.556   8.774  31.092  0.00  0.00    +0.006 C 
ENDBRANCH   1  12
BRANCH   1  15
ATOM     15  C6  UNL     1      23.780   7.305  34.787  0.00  0.00    +0.127 C 
BRANCH  15  18
ATOM     16  C5  UNL     1      21.514   7.774  35.804  0.00  0.00    +0.263 C 
ATOM     17  O1  UNL     1      21.215   6.552  35.702  0.00  0.00    -0.269 OA
ATOM     18  N1  UNL     1      22.807   8.228  35.374  0.00  0.00    -0.308 N 
ATOM     19  H5  UNL     1      23.053   9.238  35.477  0.00  0.00    +0.149 HD
BRANCH  16  23
ATOM     20  C1  UNL     1      19.393  12.323  35.985  0.00  0.00    +0.066 C 
ATOM     21  C2  UNL     1      19.504  10.907  36.454  0.00  0.00    +0.042 A 
ATOM     22  C3  UNL     1      20.453  10.047  35.893  0.00  0.00    +0.056 A 
ATOM     23  C4  UNL     1      20.528   8.727  36.361  0.00  0.00    +0.129 A 
ATOM     24  N5  UNL     1      19.679   8.324  37.345  0.00  0.00    -0.231 NA
ATOM     25  C16 UNL     1      18.763   9.172  37.880  0.00  0.00    +0.222 A 
ATOM     26  N6  UNL     1      18.681  10.452  37.436  0.00  0.00    -0.241 NA
ENDBRANCH  16  23
ENDBRANCH  15  18
ENDBRANCH   1  15
TORSDOF 6
ENDMDL
MODEL 8
REMARK VINA RESULT:    -5.235     11.900     14.552
REMARK INTER + INTRA:          -7.933
REMARK INTER:                  -7.003
REMARK INTRA:                  -0.930
REMARK UNBOUND:                -0.862
REMARK  Name = /home/qwerty/github/datacon2025hack/step_04_hit_selection/docking/ligands/lig_475.pdb
REMARK  7 active torsions:
REMARK  status: ('A' for Active; 'I' for Inactive)
REMARK    1  A    between atoms: C1_1  and  C2_2
REMARK    2  A    between atoms: C4_4  and  C5_5
REMARK    3  A    between atoms: N1_7  and  C6_8
REMARK    4  A    between atoms: C6_8  and  C7_9
REMARK    5  A    between atoms: C7_9  and  N2_10
REMARK    6  A    between atoms: C7_9  and  C13_19
REMARK    7  A    between atoms: C8_11  and  C9_13
REMARK                            x       y       z     vdW  Elec       q    Type
REMARK                         _______ _______ _______ _____ _____    ______ ____
ROOT
ATOM      1  C7  UNL     1      12.177  12.765  35.759  0.00  0.00    +0.093 C 
ENDROOT
BRANCH   1   2
ATOM      2  N2  UNL     1      12.236  12.884  34.296  0.00  0.00    -0.307 N 
ATOM      3  C8  UNL     1      11.443  13.839  33.569  0.00  0.00    +0.247 C 
ATOM      4  O2  UNL     1      10.517  14.460  34.161  0.00  0.00    -0.270 OA
ATOM      5  H9  UNL     1      12.799  12.192  33.752  0.00  0.00    +0.149 HD
BRANCH   3   6
ATOM      6  C9  UNL     1      11.683  14.095  32.129  0.00  0.00    +0.073 A 
ATOM      7  C10 UNL     1      10.840  13.575  31.135  0.00  0.00    +0.127 A 
ATOM      8  N3  UNL     1      11.097  13.822  29.825  0.00  0.00    -0.243 NA
ATOM      9  C11 UNL     1      12.167  14.568  29.450  0.00  0.00    +0.221 A 
ATOM     10  N4  UNL     1      13.005  15.074  30.389  0.00  0.00    -0.243 NA
ATOM     11  C12 UNL     1      12.789  14.851  31.712  0.00  0.00    +0.127 A 
ENDBRANCH   3   6
ENDBRANCH   1   2
BRANCH   1  12
ATOM     12  C13 UNL     1      12.342  11.276  36.180  0.00  0.00    +0.011 C 
ATOM     13  C14 UNL     1      11.702  10.892  37.512  0.00  0.00    +0.006 C 
ATOM     14  C15 UNL     1      11.147  10.323  36.219  0.00  0.00    +0.006 C 
ENDBRANCH   1  12
BRANCH   1  15
ATOM     15  C6  UNL     1      13.154  13.771  36.410  0.00  0.00    +0.127 C 
BRANCH  15  18
ATOM     16  C5  UNL     1      15.514  13.138  35.762  0.00  0.00    +0.263 C 
ATOM     17  O1  UNL     1      15.358  13.701  34.644  0.00  0.00    -0.269 OA
ATOM     18  N1  UNL     1      14.443  13.147  36.718  0.00  0.00    -0.308 N 
ATOM     19  H5  UNL     1      14.585  12.694  37.649  0.00  0.00    +0.149 HD
BRANCH  16  23
ATOM     20  C1  UNL     1      18.179   9.584  38.107  0.00  0.00    +0.066 C 
ATOM     21  C2  UNL     1      18.084  10.767  37.196  0.00  0.00    +0.042 A 
ATOM     22  C3  UNL     1      16.846  11.360  36.933  0.00  0.00    +0.056 A 
ATOM     23  C4  UNL     1      16.797  12.470  36.076  0.00  0.00    +0.129 A 
ATOM     24  N5  UNL     1      17.953  12.935  35.529  0.00  0.00    -0.231 NA
ATOM     25  C16 UNL     1      19.148  12.348  35.796  0.00  0.00    +0.222 A 
ATOM     26  N6  UNL     1      19.208  11.274  36.625  0.00  0.00    -0.241 NA
ENDBRANCH  16  23
ENDBRANCH  15  18
ENDBRANCH   1  15
TORSDOF 6
ENDMDL
MODEL 9
REMARK VINA RESULT:    -5.163     14.310     16.171
REMARK INTER + INTRA:          -7.835
REMARK INTER:                  -7.002
REMARK INTRA:                  -0.833
REMARK UNBOUND:                -0.862
REMARK  Name = /home/qwerty/github/datacon2025hack/step_04_hit_selection/docking/ligands/lig_475.pdb
REMARK  7 active torsions:
REMARK  status: ('A' for Active; 'I' for Inactive)
REMARK    1  A    between atoms: C1_1  and  C2_2
REMARK    2  A    between atoms: C4_4  and  C5_5
REMARK    3  A    between atoms: N1_7  and  C6_8
REMARK    4  A    between atoms: C6_8  and  C7_9
REMARK    5  A    between atoms: C7_9  and  N2_10
REMARK    6  A    between atoms: C7_9  and  C13_19
REMARK    7  A    between atoms: C8_11  and  C9_13
REMARK                            x       y       z     vdW  Elec       q    Type
REMARK                         _______ _______ _______ _____ _____    ______ ____
ROOT
ATOM      1  C7  UNL     1       8.239  10.710  27.142  0.00  0.00    +0.093 C 
ENDROOT
BRANCH   1   2
ATOM      2  N2  UNL     1       9.054  10.484  25.941  0.00  0.00    -0.307 N 
ATOM      3  C8  UNL     1       8.484  10.049  24.694  0.00  0.00    +0.247 C 
ATOM      4  O2  UNL     1       7.288   9.649  24.662  0.00  0.00    -0.270 OA
ATOM      5  H9  UNL     1      10.095  10.548  26.014  0.00  0.00    +0.149 HD
BRANCH   3   6
ATOM      6  C9  UNL     1       9.284  10.046  23.446  0.00  0.00    +0.073 A 
ATOM      7  C10 UNL     1      10.686  10.083  23.467  0.00  0.00    +0.127 A 
ATOM      8  N3  UNL     1      11.387  10.089  22.304  0.00  0.00    -0.243 NA
ATOM      9  C11 UNL     1      10.751  10.062  21.105  0.00  0.00    +0.221 A 
ATOM     10  N4  UNL     1       9.396  10.038  21.055  0.00  0.00    -0.243 NA
ATOM     11  C12 UNL     1       8.654  10.034  22.193  0.00  0.00    +0.127 A 
ENDBRANCH   3   6
ENDBRANCH   1   2
BRANCH   1  12
ATOM     12  C13 UNL     1       8.685   9.745  28.279  0.00  0.00    +0.011 C 
ATOM     13  C14 UNL     1       8.082  10.021  29.653  0.00  0.00    +0.006 C 
ATOM     14  C15 UNL     1       7.708   8.752  28.909  0.00  0.00    +0.006 C 
ENDBRANCH   1  12
BRANCH   1  15
ATOM     15  C6  UNL     1       8.221  12.216  27.492  0.00  0.00    +0.127 C 
BRANCH  15  18
ATOM     16  C5  UNL     1       9.903  13.461  28.910  0.00  0.00    +0.263 C 
ATOM     17  O1  UNL     1       9.024  13.638  29.798  0.00  0.00    -0.269 OA
ATOM     18  N1  UNL     1       9.573  12.732  27.717  0.00  0.00    -0.308 N 
ATOM     19  H5  UNL     1      10.310  12.575  26.994  0.00  0.00    +0.149 HD
BRANCH  16  23
ATOM     20  C1  UNL     1      14.302  15.085  27.110  0.00  0.00    +0.066 C 
ATOM     21  C2  UNL     1      13.378  14.791  28.249  0.00  0.00    +0.042 A 
ATOM     22  C3  UNL     1      12.101  14.274  28.010  0.00  0.00    +0.056 A 
ATOM     23  C4  UNL     1      11.265  14.009  29.104  0.00  0.00    +0.129 A 
ATOM     24  N5  UNL     1      11.719  14.260  30.361  0.00  0.00    -0.231 NA
ATOM     25  C16 UNL     1      12.963  14.761  30.577  0.00  0.00    +0.222 A 
ATOM     26  N6  UNL     1      13.783  15.021  29.526  0.00  0.00    -0.241 NA
ENDBRANCH  16  23
ENDBRANCH  15  18
ENDBRANCH   1  15
TORSDOF 6
ENDMDL
