MODEL 1
REMARK VINA RESULT:    -6.511      0.000      0.000
REMARK INTER + INTRA:          -9.552
REMARK INTER:                  -8.605
REMARK INTRA:                  -0.947
REMARK UNBOUND:                -0.947
REMARK  Name = /home/qwerty/github/datacon2025hack/step_04_hit_selection/docking/ligands/lig_588.pdb
REMARK  8 active torsions:
REMARK  status: ('A' for Active; 'I' for Inactive)
REMARK    1  A    between atoms: C1_1  and  O1_2
REMARK    2  A    between atoms: O1_2  and  C2_3
REMARK    3  A    between atoms: C5_6  and  C6_7
REMARK    4  A    between atoms: C6_7  and  C7_8
REMARK    5  A    between atoms: C7_8  and  C8_9
REMARK    6  A    between atoms: C7_8  and  N1_10
REMARK    7  A    between atoms: C10_12  and  S1_13
REMARK    8  A    between atoms: S1_13  and  N2_16
REMARK                            x       y       z     vdW  Elec       q    Type
REMARK                         _______ _______ _______ _____ _____    ______ ____
ROOT
ATOM      1  S1  UNL     1      11.714  10.062  30.845  0.00  0.00    +0.077 S 
ATOM      2  O2  UNL     1      11.768   8.638  30.365  0.00  0.00    -0.150 OA
ATOM      3  O3  UNL     1      13.071  10.677  30.653  0.00  0.00    -0.150 OA
ENDROOT
BRANCH   1   4
ATOM      4  N2  UNL     1      11.311  10.084  32.530  0.00  0.00    -0.199 N 
ATOM      5  C11 UNL     1      11.418  11.284  33.315  0.00  0.00    +0.146 A 
ATOM      6  N3  UNL     1      11.613  12.473  32.684  0.00  0.00    -0.201 NA
ATOM      7  C12 UNL     1      11.691  13.639  33.369  0.00  0.00    +0.225 A 
ATOM      8 CL1  UNL     1      11.953  15.140  32.510  0.00  0.00    -0.041 Cl
ATOM      9  N4  UNL     1      11.559  13.644  34.717  0.00  0.00    -0.222 NA
ATOM     10  C13 UNL     1      11.352  12.494  35.411  0.00  0.00    +0.051 A 
ATOM     11  C14 UNL     1      11.310  11.258  34.725  0.00  0.00    +0.015 A 
ATOM     12  C15 UNL     1      11.071   9.958  35.469  0.00  0.00    +0.040 C 
ATOM     13  C16 UNL     1      11.284  10.075  36.983  0.00  0.00    +0.005 C 
ATOM     14  C17 UNL     1      10.616  11.336  37.526  0.00  0.00    +0.006 C 
ATOM     15  C18 UNL     1      11.265  12.577  36.912  0.00  0.00    +0.056 C 
ATOM     16  H15 UNL     1      10.978   9.190  32.951  0.00  0.00    +0.175 HD
ENDBRANCH   1   4
BRANCH   1  22
ATOM     17  C2  UNL     1       9.149  10.721  29.975  0.00  0.00    +0.147 A 
ATOM     18  C3  UNL     1       8.258  11.535  29.248  0.00  0.00    +0.048 A 
ATOM     19  C4  UNL     1       8.729  12.627  28.516  0.00  0.00    +0.007 A 
ATOM     20  C5  UNL     1      10.096  12.932  28.499  0.00  0.00    -0.044 A 
ATOM     21  C9  UNL     1      10.988  12.124  29.220  0.00  0.00    +0.036 A 
ATOM     22  C10 UNL     1      10.528  11.020  29.949  0.00  0.00    +0.150 A 
BRANCH  17  24
ATOM     23  C1  UNL     1       8.190   8.416  30.175  0.00  0.00    +0.277 C 
ATOM     24  O1  UNL     1       8.693   9.627  30.728  0.00  0.00    -0.493 OA
ENDBRANCH  17  24
BRANCH  20  25
ATOM     25  C6  UNL     1      10.607  14.105  27.696  0.00  0.00    +0.053 C 
BRANCH  25  26
ATOM     26  C7  UNL     1      12.105  14.395  27.930  0.00  0.00    +0.052 C 
ATOM     27  C8  UNL     1      12.836  14.720  26.620  0.00  0.00    +0.024 C 
BRANCH  26  28
ATOM     28  N1  UNL     1      12.280  15.489  28.889  0.00  0.00    -0.327 NA
ATOM     29  H12 UNL     1      11.922  15.172  29.819  0.00  0.00    +0.118 HD
ATOM     30  H13 UNL     1      13.305  15.655  29.018  0.00  0.00    +0.118 HD
ENDBRANCH  26  28
ENDBRANCH  25  26
ENDBRANCH  20  25
ENDBRANCH   1  22
TORSDOF 6
ENDMDL
MODEL 2
REMARK VINA RESULT:    -6.484      2.568      4.138
REMARK INTER + INTRA:          -9.516
REMARK INTER:                  -9.381
REMARK INTRA:                  -0.134
REMARK UNBOUND:                -0.947
REMARK  Name = /home/qwerty/github/datacon2025hack/step_04_hit_selection/docking/ligands/lig_588.pdb
REMARK  8 active torsions:
REMARK  status: ('A' for Active; 'I' for Inactive)
REMARK    1  A    between atoms: C1_1  and  O1_2
REMARK    2  A    between atoms: O1_2  and  C2_3
REMARK    3  A    between atoms: C5_6  and  C6_7
REMARK    4  A    between atoms: C6_7  and  C7_8
REMARK    5  A    between atoms: C7_8  and  C8_9
REMARK    6  A    between atoms: C7_8  and  N1_10
REMARK    7  A    between atoms: C10_12  and  S1_13
REMARK    8  A    between atoms: S1_13  and  N2_16
REMARK                            x       y       z     vdW  Elec       q    Type
REMARK                         _______ _______ _______ _____ _____    ______ ____
ROOT
ATOM      1  S1  UNL     1      12.410  14.002  31.521  0.00  0.00    +0.077 S 
ATOM      2  O2  UNL     1      13.833  13.640  31.200  0.00  0.00    -0.150 OA
ATOM      3  O3  UNL     1      12.379  15.428  31.993  0.00  0.00    -0.150 OA
ENDROOT
BRANCH   1   4
ATOM      4  N2  UNL     1      11.826  12.970  32.785  0.00  0.00    -0.199 N 
ATOM      5  C11 UNL     1      12.314  13.079  34.133  0.00  0.00    +0.146 A 
ATOM      6  N3  UNL     1      13.072  14.155  34.478  0.00  0.00    -0.201 NA
ATOM      7  C12 UNL     1      13.534  14.326  35.740  0.00  0.00    +0.225 A 
ATOM      8 CL1  UNL     1      14.513  15.722  36.129  0.00  0.00    -0.041 Cl
ATOM      9  N4  UNL     1      13.233  13.421  36.701  0.00  0.00    -0.222 NA
ATOM     10  C13 UNL     1      12.473  12.328  36.429  0.00  0.00    +0.051 A 
ATOM     11  C14 UNL     1      12.013  12.102  35.110  0.00  0.00    +0.015 A 
ATOM     12  C15 UNL     1      11.155  10.897  34.775  0.00  0.00    +0.040 C 
ATOM     13  C16 UNL     1      11.188   9.808  35.854  0.00  0.00    +0.005 C 
ATOM     14  C17 UNL     1      11.039  10.421  37.245  0.00  0.00    +0.006 C 
ATOM     15  C18 UNL     1      12.223  11.341  37.540  0.00  0.00    +0.056 C 
ATOM     16  H15 UNL     1      11.096  12.271  32.528  0.00  0.00    +0.175 HD
ENDBRANCH   1   4
BRANCH   1  22
ATOM     17  C2  UNL     1      11.722  14.341  28.841  0.00  0.00    +0.147 A 
ATOM     18  C3  UNL     1      10.836  14.175  27.758  0.00  0.00    +0.048 A 
ATOM     19  C4  UNL     1       9.612  13.528  27.935  0.00  0.00    +0.007 A 
ATOM     20  C5  UNL     1       9.248  13.030  29.193  0.00  0.00    -0.044 A 
ATOM     21  C9  UNL     1      10.126  13.195  30.274  0.00  0.00    +0.036 A 
ATOM     22  C10 UNL     1      11.352  13.851  30.111  0.00  0.00    +0.150 A 
BRANCH  17  24
ATOM     23  C1  UNL     1      13.879  14.711  27.622  0.00  0.00    +0.277 C 
ATOM     24  O1  UNL     1      12.964  14.976  28.680  0.00  0.00    -0.493 OA
ENDBRANCH  17  24
BRANCH  20  25
ATOM     25  C6  UNL     1       7.917  12.343  29.387  0.00  0.00    +0.053 C 
BRANCH  25  26
ATOM     26  C7  UNL     1       7.919  10.872  28.920  0.00  0.00    +0.052 C 
ATOM     27  C8  UNL     1       9.298  10.219  29.092  0.00  0.00    +0.024 C 
BRANCH  26  28
ATOM     28  N1  UNL     1       6.903  10.097  29.636  0.00  0.00    -0.327 NA
ATOM     29  H12 UNL     1       6.273  10.765  30.137  0.00  0.00    +0.118 HD
ATOM     30  H13 UNL     1       6.301   9.610  28.932  0.00  0.00    +0.118 HD
ENDBRANCH  26  28
ENDBRANCH  25  26
ENDBRANCH  20  25
ENDBRANCH   1  22
TORSDOF 6
ENDMDL
MODEL 3
REMARK VINA RESULT:    -6.429     12.922     14.294
REMARK INTER + INTRA:          -9.443
REMARK INTER:                  -8.915
REMARK INTRA:                  -0.527
REMARK UNBOUND:                -0.947
REMARK  Name = /home/qwerty/github/datacon2025hack/step_04_hit_selection/docking/ligands/lig_588.pdb
REMARK  8 active torsions:
REMARK  status: ('A' for Active; 'I' for Inactive)
REMARK    1  A    between atoms: C1_1  and  O1_2
REMARK    2  A    between atoms: O1_2  and  C2_3
REMARK    3  A    between atoms: C5_6  and  C6_7
REMARK    4  A    between atoms: C6_7  and  C7_8
REMARK    5  A    between atoms: C7_8  and  C8_9
REMARK    6  A    between atoms: C7_8  and  N1_10
REMARK    7  A    between atoms: C10_12  and  S1_13
REMARK    8  A    between atoms: S1_13  and  N2_16
REMARK                            x       y       z     vdW  Elec       q    Type
REMARK                         _______ _______ _______ _____ _____    ______ ____
ROOT
ATOM      1  S1  UNL     1      20.317   5.331  29.122  0.00  0.00    +0.077 S 
ATOM      2  O2  UNL     1      19.685   5.929  27.895  0.00  0.00    -0.150 OA
ATOM      3  O3  UNL     1      19.259   5.188  30.178  0.00  0.00    -0.150 OA
ENDROOT
BRANCH   1   4
ATOM      4  N2  UNL     1      21.561   6.390  29.700  0.00  0.00    -0.199 N 
ATOM      5  C11 UNL     1      22.156   6.217  30.997  0.00  0.00    +0.146 A 
ATOM      6  N3  UNL     1      21.912   5.072  31.690  0.00  0.00    -0.201 NA
ATOM      7  C12 UNL     1      22.469   4.840  32.903  0.00  0.00    +0.225 A 
ATOM      8 CL1  UNL     1      22.115   3.356  33.757  0.00  0.00    -0.041 Cl
ATOM      9  N4  UNL     1      23.306   5.754  33.450  0.00  0.00    -0.222 NA
ATOM     10  C13 UNL     1      23.602   6.914  32.810  0.00  0.00    +0.051 A 
ATOM     11  C14 UNL     1      22.999   7.201  31.562  0.00  0.00    +0.015 A 
ATOM     12  C15 UNL     1      23.316   8.484  30.816  0.00  0.00    +0.040 C 
ATOM     13  C16 UNL     1      23.986   9.548  31.694  0.00  0.00    +0.005 C 
ATOM     14  C17 UNL     1      25.094   8.929  32.542  0.00  0.00    +0.006 C 
ATOM     15  C18 UNL     1      24.502   7.901  33.507  0.00  0.00    +0.056 C 
ATOM     16  H15 UNL     1      21.866   7.157  29.063  0.00  0.00    +0.175 HD
ENDBRANCH   1   4
BRANCH   1  22
ATOM     17  C2  UNL     1      21.900   3.509  27.726  0.00  0.00    +0.147 A 
ATOM     18  C3  UNL     1      22.427   2.216  27.536  0.00  0.00    +0.048 A 
ATOM     19  C4  UNL     1      22.083   1.175  28.401  0.00  0.00    +0.007 A 
ATOM     20  C5  UNL     1      21.213   1.402  29.474  0.00  0.00    -0.044 A 
ATOM     21  C9  UNL     1      20.684   2.687  29.667  0.00  0.00    +0.036 A 
ATOM     22  C10 UNL     1      21.013   3.737  28.800  0.00  0.00    +0.150 A 
BRANCH  17  24
ATOM     23  C1  UNL     1      22.643   4.427  25.517  0.00  0.00    +0.277 C 
ATOM     24  O1  UNL     1      22.244   4.573  26.876  0.00  0.00    -0.493 OA
ENDBRANCH  17  24
BRANCH  20  25
ATOM     25  C6  UNL     1      20.831   0.273  30.401  0.00  0.00    +0.053 C 
BRANCH  25  26
ATOM     26  C7  UNL     1      20.028   0.742  31.632  0.00  0.00    +0.052 C 
ATOM     27  C8  UNL     1      18.514   0.696  31.380  0.00  0.00    +0.024 C 
BRANCH  26  28
ATOM     28  N1  UNL     1      20.366  -0.059  32.811  0.00  0.00    -0.327 NA
ATOM     29  H12 UNL     1      20.137   0.500  33.665  0.00  0.00    +0.118 HD
ATOM     30  H13 UNL     1      19.735  -0.893  32.837  0.00  0.00    +0.118 HD
ENDBRANCH  26  28
ENDBRANCH  25  26
ENDBRANCH  20  25
ENDBRANCH   1  22
TORSDOF 6
ENDMDL
MODEL 4
REMARK VINA RESULT:    -6.410      6.121      9.336
REMARK INTER + INTRA:          -9.418
REMARK INTER:                  -8.968
REMARK INTRA:                  -0.451
REMARK UNBOUND:                -0.947
REMARK  Name = /home/qwerty/github/datacon2025hack/step_04_hit_selection/docking/ligands/lig_588.pdb
REMARK  8 active torsions:
REMARK  status: ('A' for Active; 'I' for Inactive)
REMARK    1  A    between atoms: C1_1  and  O1_2
REMARK    2  A    between atoms: O1_2  and  C2_3
REMARK    3  A    between atoms: C5_6  and  C6_7
REMARK    4  A    between atoms: C6_7  and  C7_8
REMARK    5  A    between atoms: C7_8  and  C8_9
REMARK    6  A    between atoms: C7_8  and  N1_10
REMARK    7  A    between atoms: C10_12  and  S1_13
REMARK    8  A    between atoms: S1_13  and  N2_16
REMARK                            x       y       z     vdW  Elec       q    Type
REMARK                         _______ _______ _______ _____ _____    ______ ____
ROOT
ATOM      1  S1  UNL     1       8.575   9.252  26.480  0.00  0.00    +0.077 S 
ATOM      2  O2  UNL     1       9.324   8.094  27.079  0.00  0.00    -0.150 OA
ATOM      3  O3  UNL     1       7.156   8.824  26.239  0.00  0.00    -0.150 OA
ENDROOT
BRANCH   1   4
ATOM      4  N2  UNL     1       9.304   9.688  24.969  0.00  0.00    -0.199 N 
ATOM      5  C11 UNL     1       9.413   8.749  23.887  0.00  0.00    +0.146 A 
ATOM      6  N3  UNL     1       8.732   7.574  23.957  0.00  0.00    -0.201 NA
ATOM      7  C12 UNL     1       8.773   6.665  22.954  0.00  0.00    +0.225 A 
ATOM      8 CL1  UNL     1       7.886   5.164  23.098  0.00  0.00    -0.041 Cl
ATOM      9  N4  UNL     1       9.495   6.920  21.837  0.00  0.00    -0.222 NA
ATOM     10  C13 UNL     1      10.192   8.077  21.695  0.00  0.00    +0.051 A 
ATOM     11  C14 UNL     1      10.201   9.025  22.745  0.00  0.00    +0.015 A 
ATOM     12  C15 UNL     1      10.962  10.331  22.614  0.00  0.00    +0.040 C 
ATOM     13  C16 UNL     1      11.986  10.327  21.474  0.00  0.00    +0.005 C 
ATOM     14  C17 UNL     1      11.380   9.729  20.206  0.00  0.00    +0.006 C 
ATOM     15  C18 UNL     1      11.011   8.265  20.444  0.00  0.00    +0.056 C 
ATOM     16  H15 UNL     1       9.652  10.666  24.876  0.00  0.00    +0.175 HD
ENDBRANCH   1   4
BRANCH   1  22
ATOM     17  C2  UNL     1       7.824  10.685  28.751  0.00  0.00    +0.147 A 
ATOM     18  C3  UNL     1       7.872  11.835  29.562  0.00  0.00    +0.048 A 
ATOM     19  C4  UNL     1       8.648  12.934  29.190  0.00  0.00    +0.007 A 
ATOM     20  C5  UNL     1       9.395  12.907  28.006  0.00  0.00    -0.044 A 
ATOM     21  C9  UNL     1       9.349  11.765  27.193  0.00  0.00    +0.036 A 
ATOM     22  C10 UNL     1       8.566  10.660  27.551  0.00  0.00    +0.150 A 
BRANCH  17  24
ATOM     23  C1  UNL     1       7.223   8.830  30.324  0.00  0.00    +0.277 C 
ATOM     24  O1  UNL     1       7.060   9.564  29.114  0.00  0.00    -0.493 OA
ENDBRANCH  17  24
BRANCH  20  25
ATOM     25  C6  UNL     1      10.223  14.102  27.597  0.00  0.00    +0.053 C 
BRANCH  25  26
ATOM     26  C7  UNL     1      11.393  14.389  28.562  0.00  0.00    +0.052 C 
ATOM     27  C8  UNL     1      12.397  13.229  28.605  0.00  0.00    +0.024 C 
BRANCH  26  28
ATOM     28  N1  UNL     1      12.077  15.633  28.197  0.00  0.00    -0.327 NA
ATOM     29  H12 UNL     1      12.229  15.632  27.162  0.00  0.00    +0.118 HD
ATOM     30  H13 UNL     1      11.433  16.433  28.392  0.00  0.00    +0.118 HD
ENDBRANCH  26  28
ENDBRANCH  25  26
ENDBRANCH  20  25
ENDBRANCH   1  22
TORSDOF 6
ENDMDL
MODEL 5
REMARK VINA RESULT:    -6.268     11.821     14.124
REMARK INTER + INTRA:          -9.231
REMARK INTER:                  -8.247
REMARK INTRA:                  -0.984
REMARK UNBOUND:                -0.947
REMARK  Name = /home/qwerty/github/datacon2025hack/step_04_hit_selection/docking/ligands/lig_588.pdb
REMARK  8 active torsions:
REMARK  status: ('A' for Active; 'I' for Inactive)
REMARK    1  A    between atoms: C1_1  and  O1_2
REMARK    2  A    between atoms: O1_2  and  C2_3
REMARK    3  A    between atoms: C5_6  and  C6_7
REMARK    4  A    between atoms: C6_7  and  C7_8
REMARK    5  A    between atoms: C7_8  and  C8_9
REMARK    6  A    between atoms: C7_8  and  N1_10
REMARK    7  A    between atoms: C10_12  and  S1_13
REMARK    8  A    between atoms: S1_13  and  N2_16
REMARK                            x       y       z     vdW  Elec       q    Type
REMARK                         _______ _______ _______ _____ _____    ______ ____
ROOT
ATOM      1  S1  UNL     1      21.296   6.967  32.457  0.00  0.00    +0.077 S 
ATOM      2  O2  UNL     1      19.889   7.484  32.584  0.00  0.00    -0.150 OA
ATOM      3  O3  UNL     1      22.084   7.939  31.627  0.00  0.00    -0.150 OA
ENDROOT
BRANCH   1   4
ATOM      4  N2  UNL     1      21.272   5.427  31.664  0.00  0.00    -0.199 N 
ATOM      5  C11 UNL     1      20.727   4.259  32.300  0.00  0.00    +0.146 A 
ATOM      6  N3  UNL     1      20.008   4.404  33.445  0.00  0.00    -0.201 NA
ATOM      7  C12 UNL     1      19.445   3.343  34.072  0.00  0.00    +0.225 A 
ATOM      8 CL1  UNL     1      18.538   3.581  35.549  0.00  0.00    -0.041 Cl
ATOM      9  N4  UNL     1      19.578   2.099  33.553  0.00  0.00    -0.222 NA
ATOM     10  C13 UNL     1      20.275   1.883  32.407  0.00  0.00    +0.051 A 
ATOM     11  C14 UNL     1      20.909   2.967  31.755  0.00  0.00    +0.015 A 
ATOM     12  C15 UNL     1      21.685   2.760  30.468  0.00  0.00    +0.040 C 
ATOM     13  C16 UNL     1      22.036   1.292  30.198  0.00  0.00    +0.005 C 
ATOM     14  C17 UNL     1      20.826   0.394  30.448  0.00  0.00    +0.006 C 
ATOM     15  C18 UNL     1      20.419   0.465  31.919  0.00  0.00    +0.056 C 
ATOM     16  H15 UNL     1      21.664   5.385  30.698  0.00  0.00    +0.175 HD
ENDBRANCH   1   4
BRANCH   1  22
ATOM     17  C2  UNL     1      23.406   6.321  34.161  0.00  0.00    +0.147 A 
ATOM     18  C3  UNL     1      23.977   6.225  35.445  0.00  0.00    +0.048 A 
ATOM     19  C4  UNL     1      23.251   6.605  36.575  0.00  0.00    +0.007 A 
ATOM     20  C5  UNL     1      21.944   7.092  36.448  0.00  0.00    -0.044 A 
ATOM     21  C9  UNL     1      21.370   7.187  35.172  0.00  0.00    +0.036 A 
ATOM     22  C10 UNL     1      22.085   6.800  34.032  0.00  0.00    +0.150 A 
BRANCH  17  24
ATOM     23  C1  UNL     1      25.507   5.620  32.992  0.00  0.00    +0.277 C 
ATOM     24  O1  UNL     1      24.124   5.958  33.010  0.00  0.00    -0.493 OA
ENDBRANCH  17  24
BRANCH  20  25
ATOM     25  C6  UNL     1      21.154   7.489  37.672  0.00  0.00    +0.053 C 
BRANCH  25  26
ATOM     26  C7  UNL     1      19.731   7.988  37.342  0.00  0.00    +0.052 C 
ATOM     27  C8  UNL     1      18.656   6.986  37.787  0.00  0.00    +0.024 C 
BRANCH  26  28
ATOM     28  N1  UNL     1      19.483   9.296  37.952  0.00  0.00    -0.327 NA
ATOM     29  H12 UNL     1      19.133   9.944  37.209  0.00  0.00    +0.118 HD
ATOM     30  H13 UNL     1      18.700   9.198  38.639  0.00  0.00    +0.118 HD
ENDBRANCH  26  28
ENDBRANCH  25  26
ENDBRANCH  20  25
ENDBRANCH   1  22
TORSDOF 6
ENDMDL
MODEL 6
REMARK VINA RESULT:    -6.231      6.907      9.904
REMARK INTER + INTRA:          -9.182
REMARK INTER:                  -8.720
REMARK INTRA:                  -0.462
REMARK UNBOUND:                -0.947
REMARK  Name = /home/qwerty/github/datacon2025hack/step_04_hit_selection/docking/ligands/lig_588.pdb
REMARK  8 active torsions:
REMARK  status: ('A' for Active; 'I' for Inactive)
REMARK    1  A    between atoms: C1_1  and  O1_2
REMARK    2  A    between atoms: O1_2  and  C2_3
REMARK    3  A    between atoms: C5_6  and  C6_7
REMARK    4  A    between atoms: C6_7  and  C7_8
REMARK    5  A    between atoms: C7_8  and  C8_9
REMARK    6  A    between atoms: C7_8  and  N1_10
REMARK    7  A    between atoms: C10_12  and  S1_13
REMARK    8  A    between atoms: S1_13  and  N2_16
REMARK                            x       y       z     vdW  Elec       q    Type
REMARK                         _______ _______ _______ _____ _____    ______ ____
ROOT
ATOM      1  S1  UNL     1       8.505   9.784  24.858  0.00  0.00    +0.077 S 
ATOM      2  O2  UNL     1       7.514  10.417  23.922  0.00  0.00    -0.150 OA
ATOM      3  O3  UNL     1       9.860  10.369  24.579  0.00  0.00    -0.150 OA
ENDROOT
BRANCH   1   4
ATOM      4  N2  UNL     1       8.553   8.075  24.574  0.00  0.00    -0.199 N 
ATOM      5  C11 UNL     1       8.918   7.533  23.294  0.00  0.00    +0.146 A 
ATOM      6  N3  UNL     1       9.459   8.357  22.356  0.00  0.00    -0.201 NA
ATOM      7  C12 UNL     1       9.849   7.896  21.143  0.00  0.00    +0.225 A 
ATOM      8 CL1  UNL     1      10.531   8.999  19.969  0.00  0.00    -0.041 Cl
ATOM      9  N4  UNL     1       9.719   6.582  20.843  0.00  0.00    -0.222 NA
ATOM     10  C13 UNL     1       9.196   5.702  21.735  0.00  0.00    +0.051 A 
ATOM     11  C14 UNL     1       8.740   6.163  22.993  0.00  0.00    +0.015 A 
ATOM     12  C15 UNL     1       8.160   5.204  24.015  0.00  0.00    +0.040 C 
ATOM     13  C16 UNL     1       7.763   3.848  23.420  0.00  0.00    +0.005 C 
ATOM     14  C17 UNL     1       8.859   3.322  22.497  0.00  0.00    +0.006 C 
ATOM     15  C18 UNL     1       9.038   4.266  21.308  0.00  0.00    +0.056 C 
ATOM     16  H15 UNL     1       8.313   7.454  25.377  0.00  0.00    +0.175 HD
ENDBRANCH   1   4
BRANCH   1  22
ATOM     17  C2  UNL     1       7.492   9.100  27.363  0.00  0.00    +0.147 A 
ATOM     18  C3  UNL     1       7.209   9.401  28.710  0.00  0.00    +0.048 A 
ATOM     19  C4  UNL     1       7.532  10.651  29.241  0.00  0.00    +0.007 A 
ATOM     20  C5  UNL     1       8.148  11.624  28.443  0.00  0.00    -0.044 A 
ATOM     21  C9  UNL     1       8.429  11.329  27.101  0.00  0.00    +0.036 A 
ATOM     22  C10 UNL     1       8.101  10.082  26.554  0.00  0.00    +0.150 A 
BRANCH  17  24
ATOM     23  C1  UNL     1       7.103   6.633  27.558  0.00  0.00    +0.277 C 
ATOM     24  O1  UNL     1       7.187   7.844  26.814  0.00  0.00    -0.493 OA
ENDBRANCH  17  24
BRANCH  20  25
ATOM     25  C6  UNL     1       8.484  12.980  29.014  0.00  0.00    +0.053 C 
BRANCH  25  26
ATOM     26  C7  UNL     1       9.996  13.183  29.249  0.00  0.00    +0.052 C 
ATOM     27  C8  UNL     1      10.648  13.987  28.115  0.00  0.00    +0.024 C 
BRANCH  26  28
ATOM     28  N1  UNL     1      10.240  13.839  30.536  0.00  0.00    -0.327 NA
ATOM     29  H12 UNL     1      11.224  14.195  30.542  0.00  0.00    +0.118 HD
ATOM     30  H13 UNL     1       9.629  14.686  30.596  0.00  0.00    +0.118 HD
ENDBRANCH  26  28
ENDBRANCH  25  26
ENDBRANCH  20  25
ENDBRANCH   1  22
TORSDOF 6
ENDMDL
MODEL 7
REMARK VINA RESULT:    -6.132     13.861     15.941
REMARK INTER + INTRA:          -9.051
REMARK INTER:                  -8.562
REMARK INTRA:                  -0.489
REMARK UNBOUND:                -0.947
REMARK  Name = /home/qwerty/github/datacon2025hack/step_04_hit_selection/docking/ligands/lig_588.pdb
REMARK  8 active torsions:
REMARK  status: ('A' for Active; 'I' for Inactive)
REMARK    1  A    between atoms: C1_1  and  O1_2
REMARK    2  A    between atoms: O1_2  and  C2_3
REMARK    3  A    between atoms: C5_6  and  C6_7
REMARK    4  A    between atoms: C6_7  and  C7_8
REMARK    5  A    between atoms: C7_8  and  C8_9
REMARK    6  A    between atoms: C7_8  and  N1_10
REMARK    7  A    between atoms: C10_12  and  S1_13
REMARK    8  A    between atoms: S1_13  and  N2_16
REMARK                            x       y       z     vdW  Elec       q    Type
REMARK                         _______ _______ _______ _____ _____    ______ ____
ROOT
ATOM      1  S1  UNL     1      19.681   1.786  25.589  0.00  0.00    +0.077 S 
ATOM      2  O2  UNL     1      19.134   3.174  25.402  0.00  0.00    -0.150 OA
ATOM      3  O3  UNL     1      20.385   1.381  24.325  0.00  0.00    -0.150 OA
ENDROOT
BRANCH   1   4
ATOM      4  N2  UNL     1      18.373   0.689  25.889  0.00  0.00    -0.199 N 
ATOM      5  C11 UNL     1      17.265   0.571  24.981  0.00  0.00    +0.146 A 
ATOM      6  N3  UNL     1      17.349   1.153  23.754  0.00  0.00    -0.201 NA
ATOM      7  C12 UNL     1      16.348   1.049  22.847  0.00  0.00    +0.225 A 
ATOM      8 CL1  UNL     1      16.501   1.824  21.286  0.00  0.00    -0.041 Cl
ATOM      9  N4  UNL     1      15.233   0.340  23.144  0.00  0.00    -0.222 NA
ATOM     10  C13 UNL     1      15.087  -0.275  24.346  0.00  0.00    +0.051 A 
ATOM     11  C14 UNL     1      16.097  -0.147  25.329  0.00  0.00    +0.015 A 
ATOM     12  C15 UNL     1      15.968  -0.829  26.677  0.00  0.00    +0.040 C 
ATOM     13  C16 UNL     1      14.540  -1.291  26.992  0.00  0.00    +0.005 C 
ATOM     14  C17 UNL     1      13.920  -1.987  25.783  0.00  0.00    +0.006 C 
ATOM     15  C18 UNL     1      13.796  -1.003  24.620  0.00  0.00    +0.056 C 
ATOM     16  H15 UNL     1      18.429   0.110  26.754  0.00  0.00    +0.175 HD
ENDBRANCH   1   4
BRANCH   1  22
ATOM     17  C2  UNL     1      22.117   2.278  26.851  0.00  0.00    +0.147 A 
ATOM     18  C3  UNL     1      22.979   2.184  27.962  0.00  0.00    +0.048 A 
ATOM     19  C4  UNL     1      22.566   1.535  29.127  0.00  0.00    +0.007 A 
ATOM     20  C5  UNL     1      21.286   0.972  29.211  0.00  0.00    -0.044 A 
ATOM     21  C9  UNL     1      20.426   1.061  28.107  0.00  0.00    +0.036 A 
ATOM     22  C10 UNL     1      20.832   1.701  26.929  0.00  0.00    +0.150 A 
BRANCH  17  24
ATOM     23  C1  UNL     1      22.693   4.346  25.559  0.00  0.00    +0.277 C 
ATOM     24  O1  UNL     1      22.508   2.939  25.675  0.00  0.00    -0.493 OA
ENDBRANCH  17  24
BRANCH  20  25
ATOM     25  C6  UNL     1      20.846   0.258  30.467  0.00  0.00    +0.053 C 
BRANCH  25  26
ATOM     26  C7  UNL     1      20.750   1.190  31.694  0.00  0.00    +0.052 C 
ATOM     27  C8  UNL     1      19.683   2.277  31.504  0.00  0.00    +0.024 C 
BRANCH  26  28
ATOM     28  N1  UNL     1      20.476   0.423  32.911  0.00  0.00    -0.327 NA
ATOM     29  H12 UNL     1      20.961  -0.501  32.833  0.00  0.00    +0.118 HD
ATOM     30  H13 UNL     1      20.923   0.914  33.719  0.00  0.00    +0.118 HD
ENDBRANCH  26  28
ENDBRANCH  25  26
ENDBRANCH  20  25
ENDBRANCH   1  22
TORSDOF 6
ENDMDL
MODEL 8
REMARK VINA RESULT:    -6.062     14.232     15.233
REMARK INTER + INTRA:          -8.958
REMARK INTER:                  -7.874
REMARK INTRA:                  -1.084
REMARK UNBOUND:                -0.947
REMARK  Name = /home/qwerty/github/datacon2025hack/step_04_hit_selection/docking/ligands/lig_588.pdb
REMARK  8 active torsions:
REMARK  status: ('A' for Active; 'I' for Inactive)
REMARK    1  A    between atoms: C1_1  and  O1_2
REMARK    2  A    between atoms: O1_2  and  C2_3
REMARK    3  A    between atoms: C5_6  and  C6_7
REMARK    4  A    between atoms: C6_7  and  C7_8
REMARK    5  A    between atoms: C7_8  and  C8_9
REMARK    6  A    between atoms: C7_8  and  N1_10
REMARK    7  A    between atoms: C10_12  and  S1_13
REMARK    8  A    between atoms: S1_13  and  N2_16
REMARK                            x       y       z     vdW  Elec       q    Type
REMARK                         _______ _______ _______ _____ _____    ______ ____
ROOT
ATOM      1  S1  UNL     1      15.950   1.036  25.179  0.00  0.00    +0.077 S 
ATOM      2  O2  UNL     1      15.175   2.324  25.126  0.00  0.00    -0.150 OA
ATOM      3  O3  UNL     1      15.155   0.038  25.973  0.00  0.00    -0.150 OA
ENDROOT
BRANCH   1   4
ATOM      4  N2  UNL     1      17.469   1.312  25.967  0.00  0.00    -0.199 N 
ATOM      5  C11 UNL     1      18.544   2.004  25.310  0.00  0.00    +0.146 A 
ATOM      6  N3  UNL     1      18.295   2.659  24.144  0.00  0.00    -0.201 NA
ATOM      7  C12 UNL     1      19.262   3.353  23.497  0.00  0.00    +0.225 A 
ATOM      8 CL1  UNL     1      18.893   4.170  21.994  0.00  0.00    -0.041 Cl
ATOM      9  N4  UNL     1      20.511   3.422  24.016  0.00  0.00    -0.222 NA
ATOM     10  C13 UNL     1      20.826   2.800  25.182  0.00  0.00    +0.051 A 
ATOM     11  C14 UNL     1      19.848   2.032  25.856  0.00  0.00    +0.015 A 
ATOM     12  C15 UNL     1      20.166   1.334  27.165  0.00  0.00    +0.040 C 
ATOM     13  C16 UNL     1      21.669   1.214  27.441  0.00  0.00    +0.005 C 
ATOM     14  C17 UNL     1      22.378   2.535  27.152  0.00  0.00    +0.006 C 
ATOM     15  C18 UNL     1      22.250   2.883  25.668  0.00  0.00    +0.056 C 
ATOM     16  H15 UNL     1      17.567   0.960  26.943  0.00  0.00    +0.175 HD
ENDBRANCH   1   4
BRANCH   1  22
ATOM     17  C2  UNL     1      17.058  -0.761  23.359  0.00  0.00    +0.147 A 
ATOM     18  C3  UNL     1      17.237  -1.246  22.048  0.00  0.00    +0.048 A 
ATOM     19  C4  UNL     1      16.610  -0.620  20.968  0.00  0.00    +0.007 A 
ATOM     20  C5  UNL     1      15.790   0.496  21.173  0.00  0.00    -0.044 A 
ATOM     21  C9  UNL     1      15.610   0.984  22.476  0.00  0.00    +0.036 A 
ATOM     22  C10 UNL     1      16.241   0.371  23.566  0.00  0.00    +0.150 A 
BRANCH  17  24
ATOM     23  C1  UNL     1      17.554  -2.769  24.772  0.00  0.00    +0.277 C 
ATOM     24  O1  UNL     1      17.667  -1.384  24.460  0.00  0.00    -0.493 OA
ENDBRANCH  17  24
BRANCH  20  25
ATOM     25  C6  UNL     1      15.124   1.181  20.003  0.00  0.00    +0.053 C 
BRANCH  25  26
ATOM     26  C7  UNL     1      15.027   2.712  20.170  0.00  0.00    +0.052 C 
ATOM     27  C8  UNL     1      16.264   3.428  19.611  0.00  0.00    +0.024 C 
BRANCH  26  28
ATOM     28  N1  UNL     1      13.814   3.230  19.532  0.00  0.00    -0.327 NA
ATOM     29  H12 UNL     1      14.004   3.343  18.509  0.00  0.00    +0.118 HD
ATOM     30  H13 UNL     1      13.065   2.504  19.607  0.00  0.00    +0.118 HD
ENDBRANCH  26  28
ENDBRANCH  25  26
ENDBRANCH  20  25
ENDBRANCH   1  22
TORSDOF 6
ENDMDL
MODEL 9
REMARK VINA RESULT:    -5.907     12.247     14.450
REMARK INTER + INTRA:          -8.754
REMARK INTER:                  -8.071
REMARK INTRA:                  -0.683
REMARK UNBOUND:                -0.947
REMARK  Name = /home/qwerty/github/datacon2025hack/step_04_hit_selection/docking/ligands/lig_588.pdb
REMARK  8 active torsions:
REMARK  status: ('A' for Active; 'I' for Inactive)
REMARK    1  A    between atoms: C1_1  and  O1_2
REMARK    2  A    between atoms: O1_2  and  C2_3
REMARK    3  A    between atoms: C5_6  and  C6_7
REMARK    4  A    between atoms: C6_7  and  C7_8
REMARK    5  A    between atoms: C7_8  and  C8_9
REMARK    6  A    between atoms: C7_8  and  N1_10
REMARK    7  A    between atoms: C10_12  and  S1_13
REMARK    8  A    between atoms: S1_13  and  N2_16
REMARK                            x       y       z     vdW  Elec       q    Type
REMARK                         _______ _______ _______ _____ _____    ______ ____
ROOT
ATOM      1  S1  UNL     1      21.364   6.121  31.944  0.00  0.00    +0.077 S 
ATOM      2  O2  UNL     1      19.885   6.358  31.807  0.00  0.00    -0.150 OA
ATOM      3  O3  UNL     1      22.086   7.148  31.121  0.00  0.00    -0.150 OA
ENDROOT
BRANCH   1   4
ATOM      4  N2  UNL     1      21.749   4.539  31.348  0.00  0.00    -0.199 N 
ATOM      5  C11 UNL     1      21.414   4.136  30.010  0.00  0.00    +0.146 A 
ATOM      6  N3  UNL     1      20.998   5.076  29.119  0.00  0.00    -0.201 NA
ATOM      7  C12 UNL     1      20.698   4.759  27.837  0.00  0.00    +0.225 A 
ATOM      8 CL1  UNL     1      20.159   6.005  26.733  0.00  0.00    -0.041 Cl
ATOM      9  N4  UNL     1      20.822   3.481  27.407  0.00  0.00    -0.222 NA
ATOM     10  C13 UNL     1      21.240   2.493  28.240  0.00  0.00    +0.051 A 
ATOM     11  C14 UNL     1      21.519   2.788  29.595  0.00  0.00    +0.015 A 
ATOM     12  C15 UNL     1      21.998   1.710  30.549  0.00  0.00    +0.040 C 
ATOM     13  C16 UNL     1      21.760   0.287  30.027  0.00  0.00    +0.005 C 
ATOM     14  C17 UNL     1      22.175   0.174  28.562  0.00  0.00    +0.006 C 
ATOM     15  C18 UNL     1      21.305   1.088  27.700  0.00  0.00    +0.056 C 
ATOM     16  H15 UNL     1      22.244   3.894  32.001  0.00  0.00    +0.175 HD
ENDBRANCH   1   4
BRANCH   1  22
ATOM     17  C2  UNL     1      23.232   5.972  34.008  0.00  0.00    +0.147 A 
ATOM     18  C3  UNL     1      23.599   6.115  35.361  0.00  0.00    +0.048 A 
ATOM     19  C4  UNL     1      22.666   6.543  36.307  0.00  0.00    +0.007 A 
ATOM     20  C5  UNL     1      21.351   6.840  35.925  0.00  0.00    -0.044 A 
ATOM     21  C9  UNL     1      20.981   6.696  34.580  0.00  0.00    +0.036 A 
ATOM     22  C10 UNL     1      21.906   6.259  33.622  0.00  0.00    +0.150 A 
BRANCH  17  24
ATOM     23  C1  UNL     1      25.539   5.907  33.033  0.00  0.00    +0.277 C 
ATOM     24  O1  UNL     1      24.159   5.557  33.038  0.00  0.00    -0.493 OA
ENDBRANCH  17  24
BRANCH  20  25
ATOM     25  C6  UNL     1      20.339   7.288  36.952  0.00  0.00    +0.053 C 
BRANCH  25  26
ATOM     26  C7  UNL     1      19.875   8.746  36.751  0.00  0.00    +0.052 C 
ATOM     27  C8  UNL     1      18.832   9.163  37.797  0.00  0.00    +0.024 C 
BRANCH  26  28
ATOM     28  N1  UNL     1      21.016   9.666  36.783  0.00  0.00    -0.327 NA
ATOM     29  H12 UNL     1      21.851   9.141  37.131  0.00  0.00    +0.118 HD
ATOM     30  H13 UNL     1      21.242   9.946  35.801  0.00  0.00    +0.118 HD
ENDBRANCH  26  28
ENDBRANCH  25  26
ENDBRANCH  20  25
ENDBRANCH   1  22
TORSDOF 6
ENDMDL
