MODEL 1
REMARK VINA RESULT:    -7.393      0.000      0.000
REMARK INTER + INTRA:          -9.020
REMARK INTER:                  -8.689
REMARK INTRA:                  -0.331
REMARK UNBOUND:                -0.331
REMARK  Name = /home/qwerty/github/datacon2025hack/step_04_hit_selection/docking/ligands/lig_439.pdb
REMARK  5 active torsions:
REMARK  status: ('A' for Active; 'I' for Inactive)
REMARK    1  A    between atoms: C1_1  and  N1_2
REMARK    2  A    between atoms: N1_2  and  C2_3
REMARK    3  A    between atoms: C3_4  and  C4_6
REMARK    4  A    between atoms: C7_9  and  N2_10
REMARK    5  A    between atoms: C10_15  and  C11_16
REMARK                            x       y       z     vdW  Elec       q    Type
REMARK                         _______ _______ _______ _____ _____    ______ ____
ROOT
ATOM      1  N2  UNL     1      21.529   3.779  23.959  0.00  0.00    -0.269 N 
ATOM      2  C8  UNL     1      20.547   4.785  23.660  0.00  0.00    +0.307 C 
ATOM      3  O2  UNL     1      19.453   4.800  24.287  0.00  0.00    -0.252 OA
ATOM      4  N3  UNL     1      20.788   5.761  22.629  0.00  0.00    -0.281 N 
ATOM      5  C9  UNL     1      22.071   5.921  21.959  0.00  0.00    +0.118 C 
ATOM      6  C10 UNL     1      21.887   7.095  20.991  0.00  0.00    +0.043 C 
ATOM      7  C17 UNL     1      20.643   7.851  21.495  0.00  0.00    +0.044 C 
ATOM      8  C18 UNL     1      19.808   8.484  20.361  0.00  0.00    +0.165 C 
ATOM      9  O3  UNL     1      18.474   8.648  20.795  0.00  0.00    -0.379 OA
ATOM     10  C19 UNL     1      17.813   7.391  20.862  0.00  0.00    +0.161 C 
ATOM     11  C20 UNL     1      18.672   6.253  21.467  0.00  0.00    +0.051 C 
ATOM     12  C21 UNL     1      19.838   6.816  22.295  0.00  0.00    +0.086 C 
ATOM     13  H9  UNL     1      22.234   3.539  23.227  0.00  0.00    +0.156 HD
ENDROOT
BRANCH   1  17
ATOM     14  C4  UNL     1      21.505   1.517  27.569  0.00  0.00    +0.037 A 
ATOM     15  C5  UNL     1      22.355   2.625  27.419  0.00  0.00    +0.015 A 
ATOM     16  C6  UNL     1      22.356   3.361  26.231  0.00  0.00    +0.024 A 
ATOM     17  C7  UNL     1      21.527   2.991  25.162  0.00  0.00    +0.035 A 
ATOM     18  C22 UNL     1      20.671   1.886  25.312  0.00  0.00    +0.024 A 
ATOM     19  C23 UNL     1      20.670   1.149  26.501  0.00  0.00    +0.015 A 
BRANCH  14  23
ATOM     20  C1  UNL     1      19.230   1.448  29.668  0.00  0.00    +0.132 C 
ATOM     21  N1  UNL     1      20.611   1.020  29.908  0.00  0.00    -0.304 N 
ATOM     22  C2  UNL     1      21.073   0.837  31.285  0.00  0.00    +0.132 C 
ATOM     23  C3  UNL     1      21.506   0.722  28.820  0.00  0.00    +0.246 C 
ATOM     24  O1  UNL     1      22.324  -0.230  28.938  0.00  0.00    -0.270 OA
ENDBRANCH  14  23
ENDBRANCH   1  17
BRANCH   6  25
ATOM     25  C11 UNL     1      23.114   7.982  20.879  0.00  0.00    -0.042 A 
ATOM     26  C12 UNL     1      24.392   7.442  21.119  0.00  0.00    +0.004 A 
ATOM     27  C13 UNL     1      25.532   8.244  21.007  0.00  0.00    +0.000 A 
ATOM     28  C14 UNL     1      25.412   9.589  20.652  0.00  0.00    +0.000 A 
ATOM     29  C15 UNL     1      24.151  10.136  20.407  0.00  0.00    +0.000 A 
ATOM     30  C16 UNL     1      23.007   9.340  20.517  0.00  0.00    +0.004 A 
ENDBRANCH   6  25
TORSDOF 3
ENDMDL
MODEL 2
REMARK VINA RESULT:    -7.079      6.094     10.082
REMARK INTER + INTRA:          -8.651
REMARK INTER:                  -8.017
REMARK INTRA:                  -0.634
REMARK UNBOUND:                -0.331
REMARK  Name = /home/qwerty/github/datacon2025hack/step_04_hit_selection/docking/ligands/lig_439.pdb
REMARK  5 active torsions:
REMARK  status: ('A' for Active; 'I' for Inactive)
REMARK    1  A    between atoms: C1_1  and  N1_2
REMARK    2  A    between atoms: N1_2  and  C2_3
REMARK    3  A    between atoms: C3_4  and  C4_6
REMARK    4  A    between atoms: C7_9  and  N2_10
REMARK    5  A    between atoms: C10_15  and  C11_16
REMARK                            x       y       z     vdW  Elec       q    Type
REMARK                         _______ _______ _______ _____ _____    ______ ____
ROOT
ATOM      1  N2  UNL     1      18.361   2.205  26.150  0.00  0.00    -0.269 N 
ATOM      2  C8  UNL     1      18.036   1.760  27.478  0.00  0.00    +0.307 C 
ATOM      3  O2  UNL     1      16.833   1.553  27.793  0.00  0.00    -0.252 OA
ATOM      4  N3  UNL     1      19.070   1.575  28.463  0.00  0.00    -0.281 N 
ATOM      5  C9  UNL     1      20.492   1.639  28.156  0.00  0.00    +0.118 C 
ATOM      6  C10 UNL     1      21.213   1.332  29.474  0.00  0.00    +0.043 C 
ATOM      7  C17 UNL     1      20.161   0.644  30.366  0.00  0.00    +0.044 C 
ATOM      8  C18 UNL     1      20.323   0.968  31.866  0.00  0.00    +0.165 C 
ATOM      9  O3  UNL     1      19.082   0.800  32.519  0.00  0.00    -0.379 OA
ATOM     10  C19 UNL     1      18.190   1.852  32.175  0.00  0.00    +0.161 C 
ATOM     11  C20 UNL     1      18.211   2.238  30.675  0.00  0.00    +0.051 C 
ATOM     12  C21 UNL     1      18.803   1.108  29.819  0.00  0.00    +0.086 C 
ATOM     13  H9  UNL     1      19.261   2.715  26.004  0.00  0.00    +0.156 HD
ENDROOT
BRANCH   1  17
ATOM     14  C4  UNL     1      15.730   1.978  22.808  0.00  0.00    +0.037 A 
ATOM     15  C5  UNL     1      15.557   2.962  23.796  0.00  0.00    +0.015 A 
ATOM     16  C6  UNL     1      16.426   3.028  24.889  0.00  0.00    +0.024 A 
ATOM     17  C7  UNL     1      17.467   2.100  25.029  0.00  0.00    +0.035 A 
ATOM     18  C22 UNL     1      17.645   1.118  24.039  0.00  0.00    +0.024 A 
ATOM     19  C23 UNL     1      16.777   1.052  22.945  0.00  0.00    +0.015 A 
BRANCH  14  23
ATOM     20  C1  UNL     1      16.098   3.415  20.091  0.00  0.00    +0.132 C 
ATOM     21  N1  UNL     1      14.835   2.858  20.585  0.00  0.00    -0.304 N 
ATOM     22  C2  UNL     1      13.581   3.251  19.942  0.00  0.00    +0.132 C 
ATOM     23  C3  UNL     1      14.806   1.893  21.653  0.00  0.00    +0.246 C 
ATOM     24  O1  UNL     1      13.963   0.955  21.613  0.00  0.00    -0.270 OA
ENDBRANCH  14  23
ENDBRANCH   1  17
BRANCH   6  25
ATOM     25  C11 UNL     1      22.471   0.501  29.293  0.00  0.00    -0.042 A 
ATOM     26  C12 UNL     1      22.368  -0.856  28.937  0.00  0.00    +0.004 A 
ATOM     27  C13 UNL     1      23.518  -1.630  28.755  0.00  0.00    +0.000 A 
ATOM     28  C14 UNL     1      24.782  -1.059  28.923  0.00  0.00    +0.000 A 
ATOM     29  C15 UNL     1      24.898   0.288  29.272  0.00  0.00    +0.000 A 
ATOM     30  C16 UNL     1      23.752   1.067  29.455  0.00  0.00    +0.004 A 
ENDBRANCH   6  25
TORSDOF 3
ENDMDL
MODEL 3
REMARK VINA RESULT:    -6.993     13.062     14.921
REMARK INTER + INTRA:          -8.551
REMARK INTER:                  -7.845
REMARK INTRA:                  -0.706
REMARK UNBOUND:                -0.331
REMARK  Name = /home/qwerty/github/datacon2025hack/step_04_hit_selection/docking/ligands/lig_439.pdb
REMARK  5 active torsions:
REMARK  status: ('A' for Active; 'I' for Inactive)
REMARK    1  A    between atoms: C1_1  and  N1_2
REMARK    2  A    between atoms: N1_2  and  C2_3
REMARK    3  A    between atoms: C3_4  and  C4_6
REMARK    4  A    between atoms: C7_9  and  N2_10
REMARK    5  A    between atoms: C10_15  and  C11_16
REMARK                            x       y       z     vdW  Elec       q    Type
REMARK                         _______ _______ _______ _____ _____    ______ ____
ROOT
ATOM      1  N2  UNL     1       6.789   6.615  28.715  0.00  0.00    -0.269 N 
ATOM      2  C8  UNL     1       7.470   7.799  29.164  0.00  0.00    +0.307 C 
ATOM      3  O2  UNL     1       7.845   7.891  30.364  0.00  0.00    -0.252 OA
ATOM      4  N3  UNL     1       7.704   8.895  28.261  0.00  0.00    -0.281 N 
ATOM      5  C9  UNL     1       7.449   8.825  26.829  0.00  0.00    +0.118 C 
ATOM      6  C10 UNL     1       7.889  10.181  26.264  0.00  0.00    +0.043 C 
ATOM      7  C17 UNL     1       8.812  10.792  27.336  0.00  0.00    +0.044 C 
ATOM      8  C18 UNL     1       8.717  12.330  27.424  0.00  0.00    +0.165 C 
ATOM      9  O3  UNL     1       9.110  12.752  28.713  0.00  0.00    -0.379 OA
ATOM     10  C19 UNL     1       8.112  12.427  29.671  0.00  0.00    +0.161 C 
ATOM     11  C20 UNL     1       7.492  11.019  29.492  0.00  0.00    +0.051 C 
ATOM     12  C21 UNL     1       8.406  10.113  28.653  0.00  0.00    +0.086 C 
ATOM     13  H9  UNL     1       6.174   6.684  27.874  0.00  0.00    +0.156 HD
ENDROOT
BRANCH   1  17
ATOM     14  C4  UNL     1       6.760   2.888  30.777  0.00  0.00    +0.037 A 
ATOM     15  C5  UNL     1       5.633   3.727  30.791  0.00  0.00    +0.015 A 
ATOM     16  C6  UNL     1       5.653   4.948  30.111  0.00  0.00    +0.024 A 
ATOM     17  C7  UNL     1       6.803   5.365  29.427  0.00  0.00    +0.035 A 
ATOM     18  C22 UNL     1       7.929   4.524  29.408  0.00  0.00    +0.024 A 
ATOM     19  C23 UNL     1       7.911   3.302  30.087  0.00  0.00    +0.015 A 
BRANCH  14  23
ATOM     20  C1  UNL     1       5.681   0.201  29.682  0.00  0.00    +0.132 C 
ATOM     21  N1  UNL     1       5.914   0.500  31.098  0.00  0.00    -0.304 N 
ATOM     22  C2  UNL     1       5.326  -0.369  32.118  0.00  0.00    +0.132 C 
ATOM     23  C3  UNL     1       6.753   1.597  31.506  0.00  0.00    +0.246 C 
ATOM     24  O1  UNL     1       7.493   1.463  32.519  0.00  0.00    -0.270 OA
ENDBRANCH  14  23
ENDBRANCH   1  17
BRANCH   6  25
ATOM     25  C11 UNL     1       8.548  10.082  24.900  0.00  0.00    -0.042 A 
ATOM     26  C12 UNL     1       7.753  10.056  23.739  0.00  0.00    +0.004 A 
ATOM     27  C13 UNL     1       8.347   9.978  22.476  0.00  0.00    +0.000 A 
ATOM     28  C14 UNL     1       9.738   9.927  22.356  0.00  0.00    +0.000 A 
ATOM     29  C15 UNL     1      10.538   9.958  23.500  0.00  0.00    +0.000 A 
ATOM     30  C16 UNL     1       9.950  10.036  24.766  0.00  0.00    +0.004 A 
ENDBRANCH   6  25
TORSDOF 3
ENDMDL
MODEL 4
REMARK VINA RESULT:    -6.871      6.427     11.062
REMARK INTER + INTRA:          -8.407
REMARK INTER:                  -7.932
REMARK INTRA:                  -0.475
REMARK UNBOUND:                -0.331
REMARK  Name = /home/qwerty/github/datacon2025hack/step_04_hit_selection/docking/ligands/lig_439.pdb
REMARK  5 active torsions:
REMARK  status: ('A' for Active; 'I' for Inactive)
REMARK    1  A    between atoms: C1_1  and  N1_2
REMARK    2  A    between atoms: N1_2  and  C2_3
REMARK    3  A    between atoms: C3_4  and  C4_6
REMARK    4  A    between atoms: C7_9  and  N2_10
REMARK    5  A    between atoms: C10_15  and  C11_16
REMARK                            x       y       z     vdW  Elec       q    Type
REMARK                         _______ _______ _______ _____ _____    ______ ____
ROOT
ATOM      1  N2  UNL     1      16.564   6.608  19.108  0.00  0.00    -0.269 N 
ATOM      2  C8  UNL     1      16.666   5.399  19.880  0.00  0.00    +0.307 C 
ATOM      3  O2  UNL     1      17.756   5.103  20.441  0.00  0.00    -0.252 OA
ATOM      4  N3  UNL     1      15.542   4.507  19.995  0.00  0.00    -0.281 N 
ATOM      5  C9  UNL     1      14.206   4.831  19.516  0.00  0.00    +0.118 C 
ATOM      6  C10 UNL     1      13.329   3.632  19.894  0.00  0.00    +0.043 C 
ATOM      7  C17 UNL     1      14.111   2.881  20.989  0.00  0.00    +0.044 C 
ATOM      8  C18 UNL     1      13.912   1.351  20.946  0.00  0.00    +0.165 C 
ATOM      9  O3  UNL     1      15.019   0.715  21.547  0.00  0.00    -0.379 OA
ATOM     10  C19 UNL     1      16.162   0.799  20.704  0.00  0.00    +0.161 C 
ATOM     11  C20 UNL     1      16.354   2.180  20.030  0.00  0.00    +0.051 C 
ATOM     12  C21 UNL     1      15.580   3.277  20.779  0.00  0.00    +0.086 C 
ATOM     13  H9  UNL     1      15.827   6.665  18.370  0.00  0.00    +0.156 HD
ENDROOT
BRANCH   1  17
ATOM     14  C4  UNL     1      19.331   9.825  19.478  0.00  0.00    +0.037 A 
ATOM     15  C5  UNL     1      18.175   9.774  20.275  0.00  0.00    +0.015 A 
ATOM     16  C6  UNL     1      17.273   8.714  20.146  0.00  0.00    +0.024 A 
ATOM     17  C7  UNL     1      17.495   7.700  19.204  0.00  0.00    +0.035 A 
ATOM     18  C22 UNL     1      18.654   7.746  18.410  0.00  0.00    +0.024 A 
ATOM     19  C23 UNL     1      19.557   8.806  18.538  0.00  0.00    +0.015 A 
BRANCH  14  23
ATOM     20  C1  UNL     1      21.940   9.811  21.144  0.00  0.00    +0.132 C 
ATOM     21  N1  UNL     1      21.255  11.014  20.662  0.00  0.00    -0.304 N 
ATOM     22  C2  UNL     1      21.606  12.314  21.235  0.00  0.00    +0.132 C 
ATOM     23  C3  UNL     1      20.286  10.952  19.599  0.00  0.00    +0.246 C 
ATOM     24  O1  UNL     1      20.238  11.887  18.754  0.00  0.00    -0.270 OA
ENDBRANCH  14  23
ENDBRANCH   1  17
BRANCH   6  25
ATOM     25  C11 UNL     1      11.928   4.022  20.328  0.00  0.00    -0.042 A 
ATOM     26  C12 UNL     1      11.406   5.277  19.960  0.00  0.00    +0.004 A 
ATOM     27  C13 UNL     1      10.112   5.644  20.342  0.00  0.00    +0.000 A 
ATOM     28  C14 UNL     1       9.325   4.767  21.091  0.00  0.00    +0.000 A 
ATOM     29  C15 UNL     1       9.829   3.517  21.457  0.00  0.00    +0.000 A 
ATOM     30  C16 UNL     1      11.122   3.143  21.078  0.00  0.00    +0.004 A 
ENDBRANCH   6  25
TORSDOF 3
ENDMDL
MODEL 5
REMARK VINA RESULT:    -6.725      5.104      6.960
REMARK INTER + INTRA:          -8.235
REMARK INTER:                  -7.694
REMARK INTRA:                  -0.541
REMARK UNBOUND:                -0.331
REMARK  Name = /home/qwerty/github/datacon2025hack/step_04_hit_selection/docking/ligands/lig_439.pdb
REMARK  5 active torsions:
REMARK  status: ('A' for Active; 'I' for Inactive)
REMARK    1  A    between atoms: C1_1  and  N1_2
REMARK    2  A    between atoms: N1_2  and  C2_3
REMARK    3  A    between atoms: C3_4  and  C4_6
REMARK    4  A    between atoms: C7_9  and  N2_10
REMARK    5  A    between atoms: C10_15  and  C11_16
REMARK                            x       y       z     vdW  Elec       q    Type
REMARK                         _______ _______ _______ _____ _____    ______ ____
ROOT
ATOM      1  N2  UNL     1      19.171   6.539  21.415  0.00  0.00    -0.269 N 
ATOM      2  C8  UNL     1      20.512   6.602  20.904  0.00  0.00    +0.307 C 
ATOM      3  O2  UNL     1      21.079   5.553  20.496  0.00  0.00    -0.252 OA
ATOM      4  N3  UNL     1      21.228   7.851  20.879  0.00  0.00    -0.281 N 
ATOM      5  C9  UNL     1      20.613   9.136  21.182  0.00  0.00    +0.118 C 
ATOM      6  C10 UNL     1      21.717  10.181  20.980  0.00  0.00    +0.043 C 
ATOM      7  C17 UNL     1      22.786   9.485  20.115  0.00  0.00    +0.044 C 
ATOM      8  C18 UNL     1      24.226   9.935  20.439  0.00  0.00    +0.165 C 
ATOM      9  O3  UNL     1      25.132   8.921  20.059  0.00  0.00    -0.379 OA
ATOM     10  C19 UNL     1      25.052   7.819  20.954  0.00  0.00    +0.161 C 
ATOM     11  C20 UNL     1      23.608   7.432  21.359  0.00  0.00    +0.051 C 
ATOM     12  C21 UNL     1      22.584   7.981  20.355  0.00  0.00    +0.086 C 
ATOM     13  H9  UNL     1      18.852   7.288  22.070  0.00  0.00    +0.156 HD
ENDROOT
BRANCH   1  17
ATOM     14  C4  UNL     1      16.561   3.262  20.641  0.00  0.00    +0.037 A 
ATOM     15  C5  UNL     1      16.678   4.322  19.726  0.00  0.00    +0.015 A 
ATOM     16  C6  UNL     1      17.537   5.392  19.989  0.00  0.00    +0.024 A 
ATOM     17  C7  UNL     1      18.275   5.438  21.180  0.00  0.00    +0.035 A 
ATOM     18  C22 UNL     1      18.164   4.376  22.094  0.00  0.00    +0.024 A 
ATOM     19  C23 UNL     1      17.305   3.305  21.832  0.00  0.00    +0.015 A 
BRANCH  14  23
ATOM     20  C1  UNL     1      13.483   3.455  20.372  0.00  0.00    +0.132 C 
ATOM     21  N1  UNL     1      14.229   2.221  20.636  0.00  0.00    -0.304 N 
ATOM     22  C2  UNL     1      13.512   1.041  21.119  0.00  0.00    +0.132 C 
ATOM     23  C3  UNL     1      15.643   2.129  20.377  0.00  0.00    +0.246 C 
ATOM     24  O1  UNL     1      16.118   1.050  19.927  0.00  0.00    -0.270 OA
ENDBRANCH  14  23
ENDBRANCH   1  17
BRANCH   6  25
ATOM     25  C11 UNL     1      21.215  11.478  20.372  0.00  0.00    -0.042 A 
ATOM     26  C12 UNL     1      21.319  11.686  18.984  0.00  0.00    +0.004 A 
ATOM     27  C13 UNL     1      20.849  12.871  18.409  0.00  0.00    +0.000 A 
ATOM     28  C14 UNL     1      20.270  13.859  19.209  0.00  0.00    +0.000 A 
ATOM     29  C15 UNL     1      20.157  13.662  20.587  0.00  0.00    +0.000 A 
ATOM     30  C16 UNL     1      20.624  12.480  21.168  0.00  0.00    +0.004 A 
ENDBRANCH   6  25
TORSDOF 3
ENDMDL
MODEL 6
REMARK VINA RESULT:    -6.670      2.399      9.325
REMARK INTER + INTRA:          -8.171
REMARK INTER:                  -7.635
REMARK INTRA:                  -0.536
REMARK UNBOUND:                -0.331
REMARK  Name = /home/qwerty/github/datacon2025hack/step_04_hit_selection/docking/ligands/lig_439.pdb
REMARK  5 active torsions:
REMARK  status: ('A' for Active; 'I' for Inactive)
REMARK    1  A    between atoms: C1_1  and  N1_2
REMARK    2  A    between atoms: N1_2  and  C2_3
REMARK    3  A    between atoms: C3_4  and  C4_6
REMARK    4  A    between atoms: C7_9  and  N2_10
REMARK    5  A    between atoms: C10_15  and  C11_16
REMARK                            x       y       z     vdW  Elec       q    Type
REMARK                         _______ _______ _______ _____ _____    ______ ____
ROOT
ATOM      1  N2  UNL     1      20.938   5.696  23.571  0.00  0.00    -0.269 N 
ATOM      2  C8  UNL     1      20.434   4.390  23.243  0.00  0.00    +0.307 C 
ATOM      3  O2  UNL     1      20.197   4.093  22.041  0.00  0.00    -0.252 OA
ATOM      4  N3  UNL     1      20.169   3.426  24.278  0.00  0.00    -0.281 N 
ATOM      5  C9  UNL     1      20.549   3.617  25.670  0.00  0.00    +0.118 C 
ATOM      6  C10 UNL     1      20.126   2.333  26.394  0.00  0.00    +0.043 C 
ATOM      7  C17 UNL     1      19.947   1.278  25.286  0.00  0.00    +0.044 C 
ATOM      8  C18 UNL     1      18.823   0.262  25.582  0.00  0.00    +0.165 C 
ATOM      9  O3  UNL     1      18.347  -0.280  24.368  0.00  0.00    -0.379 OA
ATOM     10  C19 UNL     1      17.575   0.683  23.661  0.00  0.00    +0.161 C 
ATOM     11  C20 UNL     1      18.176   2.110  23.670  0.00  0.00    +0.051 C 
ATOM     12  C21 UNL     1      19.675   2.080  24.005  0.00  0.00    +0.086 C 
ATOM     13  H9  UNL     1      20.784   6.059  24.538  0.00  0.00    +0.156 HD
ENDROOT
BRANCH   1  17
ATOM     14  C4  UNL     1      22.676   8.405  20.781  0.00  0.00    +0.037 A 
ATOM     15  C5  UNL     1      21.298   8.435  21.051  0.00  0.00    +0.015 A 
ATOM     16  C6  UNL     1      20.737   7.542  21.969  0.00  0.00    +0.024 A 
ATOM     17  C7  UNL     1      21.536   6.587  22.614  0.00  0.00    +0.035 A 
ATOM     18  C22 UNL     1      22.916   6.559  22.348  0.00  0.00    +0.024 A 
ATOM     19  C23 UNL     1      23.478   7.453  21.431  0.00  0.00    +0.015 A 
BRANCH  14  23
ATOM     20  C1  UNL     1      22.813  11.484  21.069  0.00  0.00    +0.132 C 
ATOM     21  N1  UNL     1      22.978  10.747  19.812  0.00  0.00    -0.304 N 
ATOM     22  C2  UNL     1      22.892  11.471  18.543  0.00  0.00    +0.132 C 
ATOM     23  C3  UNL     1      23.278   9.339  19.800  0.00  0.00    +0.246 C 
ATOM     24  O1  UNL     1      24.063   8.883  18.924  0.00  0.00    -0.270 OA
ENDBRANCH  14  23
ENDBRANCH   1  17
BRANCH   6  25
ATOM     25  C11 UNL     1      21.102   1.899  27.473  0.00  0.00    -0.042 A 
ATOM     26  C12 UNL     1      20.646   1.132  28.561  0.00  0.00    +0.004 A 
ATOM     27  C13 UNL     1      21.535   0.714  29.556  0.00  0.00    +0.000 A 
ATOM     28  C14 UNL     1      22.887   1.054  29.476  0.00  0.00    +0.000 A 
ATOM     29  C15 UNL     1      23.354   1.810  28.399  0.00  0.00    +0.000 A 
ATOM     30  C16 UNL     1      22.470   2.231  27.401  0.00  0.00    +0.004 A 
ENDBRANCH   6  25
TORSDOF 3
ENDMDL
MODEL 7
REMARK VINA RESULT:    -6.557      7.473     11.866
REMARK INTER + INTRA:          -8.038
REMARK INTER:                  -7.327
REMARK INTRA:                  -0.711
REMARK UNBOUND:                -0.331
REMARK  Name = /home/qwerty/github/datacon2025hack/step_04_hit_selection/docking/ligands/lig_439.pdb
REMARK  5 active torsions:
REMARK  status: ('A' for Active; 'I' for Inactive)
REMARK    1  A    between atoms: C1_1  and  N1_2
REMARK    2  A    between atoms: N1_2  and  C2_3
REMARK    3  A    between atoms: C3_4  and  C4_6
REMARK    4  A    between atoms: C7_9  and  N2_10
REMARK    5  A    between atoms: C10_15  and  C11_16
REMARK                            x       y       z     vdW  Elec       q    Type
REMARK                         _______ _______ _______ _____ _____    ______ ____
ROOT
ATOM      1  N2  UNL     1      20.534   5.832  34.304  0.00  0.00    -0.269 N 
ATOM      2  C8  UNL     1      19.561   4.804  34.052  0.00  0.00    +0.307 C 
ATOM      3  O2  UNL     1      18.418   4.879  34.578  0.00  0.00    -0.252 OA
ATOM      4  N3  UNL     1      19.890   3.671  33.227  0.00  0.00    -0.281 N 
ATOM      5  C9  UNL     1      21.121   3.569  32.456  0.00  0.00    +0.118 C 
ATOM      6  C10 UNL     1      21.024   2.242  31.695  0.00  0.00    +0.043 C 
ATOM      7  C17 UNL     1      19.528   1.872  31.707  0.00  0.00    +0.044 C 
ATOM      8  C18 UNL     1      19.272   0.351  31.772  0.00  0.00    +0.165 C 
ATOM      9  O3  UNL     1      17.997   0.112  32.329  0.00  0.00    -0.379 OA
ATOM     10  C19 UNL     1      18.003   0.381  33.725  0.00  0.00    +0.161 C 
ATOM     11  C20 UNL     1      18.775   1.664  34.122  0.00  0.00    +0.051 C 
ATOM     12  C21 UNL     1      18.939   2.608  32.920  0.00  0.00    +0.086 C 
ATOM     13  H9  UNL     1      21.546   5.597  34.191  0.00  0.00    +0.156 HD
ENDROOT
BRANCH   1  17
ATOM     14  C4  UNL     1      19.484   9.671  35.821  0.00  0.00    +0.037 A 
ATOM     15  C5  UNL     1      19.215   9.326  34.486  0.00  0.00    +0.015 A 
ATOM     16  C6  UNL     1      19.564   8.063  33.998  0.00  0.00    +0.024 A 
ATOM     17  C7  UNL     1      20.208   7.132  34.824  0.00  0.00    +0.035 A 
ATOM     18  C22 UNL     1      20.472   7.474  36.162  0.00  0.00    +0.024 A 
ATOM     19  C23 UNL     1      20.124   8.736  36.651  0.00  0.00    +0.015 A 
BRANCH  14  23
ATOM     20  C1  UNL     1      16.935  10.365  37.434  0.00  0.00    +0.132 C 
ATOM     21  N1  UNL     1      17.786  11.339  36.745  0.00  0.00    -0.304 N 
ATOM     22  C2  UNL     1      17.278  12.691  36.508  0.00  0.00    +0.132 C 
ATOM     23  C3  UNL     1      19.130  11.012  36.344  0.00  0.00    +0.246 C 
ATOM     24  O1  UNL     1      20.029  11.893  36.426  0.00  0.00    -0.270 OA
ENDBRANCH  14  23
ENDBRANCH   1  17
BRANCH   6  25
ATOM     25  C11 UNL     1      21.608   2.304  30.295  0.00  0.00    -0.042 A 
ATOM     26  C12 UNL     1      22.523   1.321  29.875  0.00  0.00    +0.004 A 
ATOM     27  C13 UNL     1      23.060   1.359  28.584  0.00  0.00    +0.000 A 
ATOM     28  C14 UNL     1      22.688   2.373  27.699  0.00  0.00    +0.000 A 
ATOM     29  C15 UNL     1      21.776   3.351  28.102  0.00  0.00    +0.000 A 
ATOM     30  C16 UNL     1      21.236   3.319  29.391  0.00  0.00    +0.004 A 
ENDBRANCH   6  25
TORSDOF 3
ENDMDL
MODEL 8
REMARK VINA RESULT:    -6.552      2.553      9.873
REMARK INTER + INTRA:          -8.033
REMARK INTER:                  -7.507
REMARK INTRA:                  -0.526
REMARK UNBOUND:                -0.331
REMARK  Name = /home/qwerty/github/datacon2025hack/step_04_hit_selection/docking/ligands/lig_439.pdb
REMARK  5 active torsions:
REMARK  status: ('A' for Active; 'I' for Inactive)
REMARK    1  A    between atoms: C1_1  and  N1_2
REMARK    2  A    between atoms: N1_2  and  C2_3
REMARK    3  A    between atoms: C3_4  and  C4_6
REMARK    4  A    between atoms: C7_9  and  N2_10
REMARK    5  A    between atoms: C10_15  and  C11_16
REMARK                            x       y       z     vdW  Elec       q    Type
REMARK                         _______ _______ _______ _____ _____    ______ ____
ROOT
ATOM      1  N2  UNL     1      21.011   3.984  22.894  0.00  0.00    -0.269 N 
ATOM      2  C8  UNL     1      21.151   4.003  24.324  0.00  0.00    +0.307 C 
ATOM      3  O2  UNL     1      21.612   5.028  24.896  0.00  0.00    -0.252 OA
ATOM      4  N3  UNL     1      20.797   2.851  25.110  0.00  0.00    -0.281 N 
ATOM      5  C9  UNL     1      20.119   1.684  24.565  0.00  0.00    +0.118 C 
ATOM      6  C10 UNL     1      19.896   0.742  25.754  0.00  0.00    +0.043 C 
ATOM      7  C17 UNL     1      20.040   1.624  27.009  0.00  0.00    +0.044 C 
ATOM      8  C18 UNL     1      20.657   0.883  28.213  0.00  0.00    +0.165 C 
ATOM      9  O3  UNL     1      21.262   1.817  29.082  0.00  0.00    -0.379 OA
ATOM     10  C19 UNL     1      22.463   2.323  28.513  0.00  0.00    +0.161 C 
ATOM     11  C20 UNL     1      22.363   2.647  27.002  0.00  0.00    +0.051 C 
ATOM     12  C21 UNL     1      20.900   2.818  26.566  0.00  0.00    +0.086 C 
ATOM     13  H9  UNL     1      20.992   3.059  22.409  0.00  0.00    +0.156 HD
ENDROOT
BRANCH   1  17
ATOM     14  C4  UNL     1      21.099   7.445  20.412  0.00  0.00    +0.037 A 
ATOM     15  C5  UNL     1      22.257   7.005  21.077  0.00  0.00    +0.015 A 
ATOM     16  C6  UNL     1      22.217   5.868  21.888  0.00  0.00    +0.024 A 
ATOM     17  C7  UNL     1      21.019   5.165  22.072  0.00  0.00    +0.035 A 
ATOM     18  C22 UNL     1      19.861   5.600  21.404  0.00  0.00    +0.024 A 
ATOM     19  C23 UNL     1      19.900   6.737  20.591  0.00  0.00    +0.015 A 
BRANCH  14  23
ATOM     20  C1  UNL     1      20.655  10.350  21.385  0.00  0.00    +0.132 C 
ATOM     21  N1  UNL     1      20.552   9.903  19.993  0.00  0.00    -0.304 N 
ATOM     22  C2  UNL     1      19.899  10.770  19.011  0.00  0.00    +0.132 C 
ATOM     23  C3  UNL     1      21.128   8.657  19.559  0.00  0.00    +0.246 C 
ATOM     24  O1  UNL     1      21.659   8.587  18.417  0.00  0.00    -0.270 OA
ENDBRANCH  14  23
ENDBRANCH   1  17
BRANCH   6  25
ATOM     25  C11 UNL     1      18.570   0.003  25.699  0.00  0.00    -0.042 A 
ATOM     26  C12 UNL     1      18.428  -1.116  24.857  0.00  0.00    +0.004 A 
ATOM     27  C13 UNL     1      17.218  -1.813  24.805  0.00  0.00    +0.000 A 
ATOM     28  C14 UNL     1      16.138  -1.406  25.592  0.00  0.00    +0.000 A 
ATOM     29  C15 UNL     1      16.268  -0.300  26.435  0.00  0.00    +0.000 A 
ATOM     30  C16 UNL     1      17.476   0.402  26.492  0.00  0.00    +0.004 A 
ENDBRANCH   6  25
TORSDOF 3
ENDMDL
MODEL 9
REMARK VINA RESULT:    -6.510     12.525     14.111
REMARK INTER + INTRA:          -7.982
REMARK INTER:                  -7.341
REMARK INTRA:                  -0.642
REMARK UNBOUND:                -0.331
REMARK  Name = /home/qwerty/github/datacon2025hack/step_04_hit_selection/docking/ligands/lig_439.pdb
REMARK  5 active torsions:
REMARK  status: ('A' for Active; 'I' for Inactive)
REMARK    1  A    between atoms: C1_1  and  N1_2
REMARK    2  A    between atoms: N1_2  and  C2_3
REMARK    3  A    between atoms: C3_4  and  C4_6
REMARK    4  A    between atoms: C7_9  and  N2_10
REMARK    5  A    between atoms: C10_15  and  C11_16
REMARK                            x       y       z     vdW  Elec       q    Type
REMARK                         _______ _______ _______ _____ _____    ______ ____
ROOT
ATOM      1  N2  UNL     1      14.328  13.198  33.012  0.00  0.00    -0.269 N 
ATOM      2  C8  UNL     1      14.784  13.369  31.659  0.00  0.00    +0.307 C 
ATOM      3  O2  UNL     1      16.008  13.237  31.387  0.00  0.00    -0.252 OA
ATOM      4  N3  UNL     1      13.858  13.719  30.613  0.00  0.00    -0.281 N 
ATOM      5  C9  UNL     1      12.414  13.744  30.794  0.00  0.00    +0.118 C 
ATOM      6  C10 UNL     1      11.832  14.110  29.424  0.00  0.00    +0.043 C 
ATOM      7  C17 UNL     1      12.955  13.817  28.410  0.00  0.00    +0.044 C 
ATOM      8  C18 UNL     1      12.966  14.787  27.210  0.00  0.00    +0.165 C 
ATOM      9  O3  UNL     1      14.265  14.838  26.659  0.00  0.00    -0.379 OA
ATOM     10  C19 UNL     1      15.143  15.558  27.515  0.00  0.00    +0.161 C 
ATOM     11  C20 UNL     1      14.970  15.234  29.020  0.00  0.00    +0.051 C 
ATOM     12  C21 UNL     1      14.258  13.888  29.220  0.00  0.00    +0.086 C 
ATOM     13  H9  UNL     1      13.432  13.654  33.296  0.00  0.00    +0.156 HD
ENDROOT
BRANCH   1  17
ATOM     14  C4  UNL     1      16.540  11.284  36.108  0.00  0.00    +0.037 A 
ATOM     15  C5  UNL     1      16.397  12.681  36.083  0.00  0.00    +0.015 A 
ATOM     16  C6  UNL     1      15.669  13.300  35.063  0.00  0.00    +0.024 A 
ATOM     17  C7  UNL     1      15.092  12.539  34.036  0.00  0.00    +0.035 A 
ATOM     18  C22 UNL     1      15.230  11.140  34.063  0.00  0.00    +0.024 A 
ATOM     19  C23 UNL     1      15.958  10.521  35.083  0.00  0.00    +0.015 A 
BRANCH  14  23
ATOM     20  C1  UNL     1      19.607  10.859  36.110  0.00  0.00    +0.132 C 
ATOM     21  N1  UNL     1      18.655  10.128  36.951  0.00  0.00    -0.304 N 
ATOM     22  C2  UNL     1      19.088   8.900  37.619  0.00  0.00    +0.132 C 
ATOM     23  C3  UNL     1      17.321  10.620  37.179  0.00  0.00    +0.246 C 
ATOM     24  O1  UNL     1      16.795  10.470  38.315  0.00  0.00    -0.270 OA
ENDBRANCH  14  23
ENDBRANCH   1  17
BRANCH   6  25
ATOM     25  C11 UNL     1      10.539  13.382  29.103  0.00  0.00    -0.042 A 
ATOM     26  C12 UNL     1      10.157  12.265  29.870  0.00  0.00    +0.004 A 
ATOM     27  C13 UNL     1       8.963  11.591  29.594  0.00  0.00    +0.000 A 
ATOM     28  C14 UNL     1       8.136  12.025  28.555  0.00  0.00    +0.000 A 
ATOM     29  C15 UNL     1       8.501  13.136  27.791  0.00  0.00    +0.000 A 
ATOM     30  C16 UNL     1       9.694  13.813  28.061  0.00  0.00    +0.004 A 
ENDBRANCH   6  25
TORSDOF 3
ENDMDL
