MODEL 1
REMARK VINA RESULT:    -6.198      0.000      0.000
REMARK INTER + INTRA:          -6.716
REMARK INTER:                  -6.561
REMARK INTRA:                  -0.156
REMARK UNBOUND:                -0.156
REMARK  Name = /home/qwerty/github/datacon2025hack/step_04_hit_selection/docking/ligands/lig_695.pdb
REMARK  2 active torsions:
REMARK  status: ('A' for Active; 'I' for Inactive)
REMARK    1  A    between atoms: C1_1  and  C2_2
REMARK    2  A    between atoms: C9_11  and  C10_12
REMARK                            x       y       z     vdW  Elec       q    Type
REMARK                         _______ _______ _______ _____ _____    ______ ____
ROOT
ATOM      1  C1  UNL     1      17.163  -1.150  19.348  0.00  0.00    +0.066 C 
ATOM      2  C2  UNL     1      16.239  -0.510  20.334  0.00  0.00    +0.044 A 
ATOM      3  C3  UNL     1      16.026  -1.092  21.587  0.00  0.00    +0.066 A 
ATOM      4  C4  UNL     1      15.146  -0.465  22.481  0.00  0.00    +0.125 A 
ATOM      5  N1  UNL     1      14.883  -1.013  23.787  0.00  0.00    -0.315 N 
ATOM      6  C5  UNL     1      15.539  -2.187  24.339  0.00  0.00    +0.106 C 
ATOM      7  C6  UNL     1      15.062  -2.285  25.783  0.00  0.00    +0.020 C 
ATOM      8  C7  UNL     1      13.829  -1.391  25.878  0.00  0.00    +0.020 C 
ATOM      9  C8  UNL     1      13.920  -0.426  24.704  0.00  0.00    +0.106 C 
ATOM     10  N2  UNL     1      14.527   0.685  22.100  0.00  0.00    -0.212 NA
ATOM     11  C9  UNL     1      14.738   1.244  20.878  0.00  0.00    +0.166 A 
ATOM     12  N3  UNL     1      15.591   0.640  20.008  0.00  0.00    -0.232 NA
ENDROOT
BRANCH  11  13
ATOM     13  C10 UNL     1      14.044   2.497  20.499  0.00  0.00    +0.065 A 
ATOM     14  C11 UNL     1      14.708   3.516  19.773  0.00  0.00    +0.015 A 
ATOM     15  C12 UNL     1      14.033   4.704  19.418  0.00  0.00    +0.004 A 
ATOM     16  C13 UNL     1      12.689   4.893  19.781  0.00  0.00    +0.049 A 
ATOM     17  C14 UNL     1      12.060   3.878  20.494  0.00  0.00    +0.167 A 
ATOM     18  C15 UNL     1      12.704   2.731  20.839  0.00  0.00    +0.177 A 
ATOM     19  O1  UNL     1      11.828   1.917  21.536  0.00  0.00    -0.452 OA
ATOM     20  C16 UNL     1      10.567   2.590  21.633  0.00  0.00    +0.466 C 
ATOM     21  O2  UNL     1      10.758   3.838  20.956  0.00  0.00    -0.453 OA
ENDBRANCH  11  13
TORSDOF 1
ENDMDL
MODEL 2
REMARK VINA RESULT:    -6.088     13.817     15.698
REMARK INTER + INTRA:          -6.600
REMARK INTER:                  -6.247
REMARK INTRA:                  -0.353
REMARK UNBOUND:                -0.156
REMARK  Name = /home/qwerty/github/datacon2025hack/step_04_hit_selection/docking/ligands/lig_695.pdb
REMARK  2 active torsions:
REMARK  status: ('A' for Active; 'I' for Inactive)
REMARK    1  A    between atoms: C1_1  and  C2_2
REMARK    2  A    between atoms: C9_11  and  C10_12
REMARK                            x       y       z     vdW  Elec       q    Type
REMARK                         _______ _______ _______ _____ _____    ______ ____
ROOT
ATOM      1  C1  UNL     1      22.921   7.356  30.772  0.00  0.00    +0.066 C 
ATOM      2  C2  UNL     1      22.496   6.358  31.801  0.00  0.00    +0.044 A 
ATOM      3  C3  UNL     1      22.091   5.075  31.418  0.00  0.00    +0.066 A 
ATOM      4  C4  UNL     1      21.693   4.170  32.412  0.00  0.00    +0.125 A 
ATOM      5  N1  UNL     1      21.265   2.833  32.086  0.00  0.00    -0.315 N 
ATOM      6  C5  UNL     1      21.278   2.265  30.749  0.00  0.00    +0.106 C 
ATOM      7  C6  UNL     1      20.897   0.800  30.920  0.00  0.00    +0.020 C 
ATOM      8  C7  UNL     1      20.282   0.687  32.312  0.00  0.00    +0.020 C 
ATOM      9  C8  UNL     1      20.775   1.900  33.087  0.00  0.00    +0.106 C 
ATOM     10  N2  UNL     1      21.709   4.569  33.713  0.00  0.00    -0.212 NA
ATOM     11  C9  UNL     1      22.102   5.819  34.076  0.00  0.00    +0.166 A 
ATOM     12  N3  UNL     1      22.490   6.701  33.116  0.00  0.00    -0.232 NA
ENDROOT
BRANCH  11  13
ATOM     13  C10 UNL     1      22.106   6.218  35.503  0.00  0.00    +0.065 A 
ATOM     14  C11 UNL     1      23.300   6.222  36.264  0.00  0.00    +0.015 A 
ATOM     15  C12 UNL     1      23.287   6.605  37.623  0.00  0.00    +0.004 A 
ATOM     16  C13 UNL     1      22.086   6.989  38.242  0.00  0.00    +0.049 A 
ATOM     17  C14 UNL     1      20.927   6.975  37.474  0.00  0.00    +0.167 A 
ATOM     18  C15 UNL     1      20.932   6.608  36.165  0.00  0.00    +0.177 A 
ATOM     19  O1  UNL     1      19.642   6.694  35.669  0.00  0.00    -0.452 OA
ATOM     20  C16 UNL     1      18.782   7.140  36.725  0.00  0.00    +0.466 C 
ATOM     21  O2  UNL     1      19.642   7.308  37.859  0.00  0.00    -0.453 OA
ENDBRANCH  11  13
TORSDOF 1
ENDMDL
MODEL 3
REMARK VINA RESULT:    -6.073      8.540      9.971
REMARK INTER + INTRA:          -6.584
REMARK INTER:                  -6.293
REMARK INTRA:                  -0.291
REMARK UNBOUND:                -0.156
REMARK  Name = /home/qwerty/github/datacon2025hack/step_04_hit_selection/docking/ligands/lig_695.pdb
REMARK  2 active torsions:
REMARK  status: ('A' for Active; 'I' for Inactive)
REMARK    1  A    between atoms: C1_1  and  C2_2
REMARK    2  A    between atoms: C9_11  and  C10_12
REMARK                            x       y       z     vdW  Elec       q    Type
REMARK                         _______ _______ _______ _____ _____    ______ ____
ROOT
ATOM      1  C1  UNL     1      24.687   0.611  29.296  0.00  0.00    +0.066 C 
ATOM      2  C2  UNL     1      23.247   0.950  29.083  0.00  0.00    +0.044 A 
ATOM      3  C3  UNL     1      22.331   0.845  30.134  0.00  0.00    +0.066 A 
ATOM      4  C4  UNL     1      20.988   1.166  29.892  0.00  0.00    +0.125 A 
ATOM      5  N1  UNL     1      19.994   1.079  30.931  0.00  0.00    -0.315 N 
ATOM      6  C5  UNL     1      20.274   0.744  32.317  0.00  0.00    +0.106 C 
ATOM      7  C6  UNL     1      18.958   0.932  33.061  0.00  0.00    +0.020 C 
ATOM      8  C7  UNL     1      17.873   0.975  31.989  0.00  0.00    +0.020 C 
ATOM      9  C8  UNL     1      18.583   1.332  30.691  0.00  0.00    +0.106 C 
ATOM     10  N2  UNL     1      20.619   1.564  28.645  0.00  0.00    -0.212 NA
ATOM     11  C9  UNL     1      21.515   1.661  27.627  0.00  0.00    +0.166 A 
ATOM     12  N3  UNL     1      22.820   1.353  27.857  0.00  0.00    -0.232 NA
ENDROOT
BRANCH  11  13
ATOM     13  C10 UNL     1      21.076   2.098  26.281  0.00  0.00    +0.065 A 
ATOM     14  C11 UNL     1      20.135   1.350  25.533  0.00  0.00    +0.015 A 
ATOM     15  C12 UNL     1      19.725   1.780  24.253  0.00  0.00    +0.004 A 
ATOM     16  C13 UNL     1      20.248   2.961  23.700  0.00  0.00    +0.049 A 
ATOM     17  C14 UNL     1      21.170   3.678  24.453  0.00  0.00    +0.167 A 
ATOM     18  C15 UNL     1      21.569   3.270  25.687  0.00  0.00    +0.177 A 
ATOM     19  O1  UNL     1      22.485   4.179  26.187  0.00  0.00    -0.452 OA
ATOM     20  C16 UNL     1      22.671   5.214  25.213  0.00  0.00    +0.466 C 
ATOM     21  O2  UNL     1      21.814   4.856  24.122  0.00  0.00    -0.453 OA
ENDBRANCH  11  13
TORSDOF 1
ENDMDL
MODEL 4
REMARK VINA RESULT:    -6.002     12.996     15.100
REMARK INTER + INTRA:          -6.508
REMARK INTER:                  -6.194
REMARK INTRA:                  -0.314
REMARK UNBOUND:                -0.156
REMARK  Name = /home/qwerty/github/datacon2025hack/step_04_hit_selection/docking/ligands/lig_695.pdb
REMARK  2 active torsions:
REMARK  status: ('A' for Active; 'I' for Inactive)
REMARK    1  A    between atoms: C1_1  and  C2_2
REMARK    2  A    between atoms: C9_11  and  C10_12
REMARK                            x       y       z     vdW  Elec       q    Type
REMARK                         _______ _______ _______ _____ _____    ______ ____
ROOT
ATOM      1  C1  UNL     1      25.126  10.028  19.927  0.00  0.00    +0.066 C 
ATOM      2  C2  UNL     1      24.042  10.937  20.411  0.00  0.00    +0.044 A 
ATOM      3  C3  UNL     1      22.722  10.753  19.989  0.00  0.00    +0.066 A 
ATOM      4  C4  UNL     1      21.735  11.631  20.460  0.00  0.00    +0.125 A 
ATOM      5  N1  UNL     1      20.356  11.496  20.065  0.00  0.00    -0.315 N 
ATOM      6  C5  UNL     1      19.836  10.425  19.231  0.00  0.00    +0.106 C 
ATOM      7  C6  UNL     1      18.324  10.610  19.219  0.00  0.00    +0.020 C 
ATOM      8  C7  UNL     1      18.071  12.030  19.717  0.00  0.00    +0.020 C 
ATOM      9  C8  UNL     1      19.326  12.436  20.476  0.00  0.00    +0.106 C 
ATOM     10  N2  UNL     1      22.094  12.633  21.307  0.00  0.00    -0.212 NA
ATOM     11  C9  UNL     1      23.381  12.808  21.710  0.00  0.00    +0.166 A 
ATOM     12  N3  UNL     1      24.341  11.958  21.257  0.00  0.00    -0.232 NA
ENDROOT
BRANCH  11  13
ATOM     13  C10 UNL     1      23.733  13.912  22.633  0.00  0.00    +0.065 A 
ATOM     14  C11 UNL     1      24.602  14.957  22.235  0.00  0.00    +0.015 A 
ATOM     15  C12 UNL     1      24.927  16.002  23.126  0.00  0.00    +0.004 A 
ATOM     16  C13 UNL     1      24.392  16.021  24.425  0.00  0.00    +0.049 A 
ATOM     17  C14 UNL     1      23.542  14.983  24.792  0.00  0.00    +0.167 A 
ATOM     18  C15 UNL     1      23.224  13.974  23.939  0.00  0.00    +0.177 A 
ATOM     19  O1  UNL     1      22.366  13.097  24.580  0.00  0.00    -0.452 OA
ATOM     20  C16 UNL     1      22.134  13.584  25.908  0.00  0.00    +0.466 C 
ATOM     21  O2  UNL     1      22.903  14.790  26.002  0.00  0.00    -0.453 OA
ENDBRANCH  11  13
TORSDOF 1
ENDMDL
MODEL 5
REMARK VINA RESULT:    -5.970      9.831     12.264
REMARK INTER + INTRA:          -6.474
REMARK INTER:                  -6.182
REMARK INTRA:                  -0.293
REMARK UNBOUND:                -0.156
REMARK  Name = /home/qwerty/github/datacon2025hack/step_04_hit_selection/docking/ligands/lig_695.pdb
REMARK  2 active torsions:
REMARK  status: ('A' for Active; 'I' for Inactive)
REMARK    1  A    between atoms: C1_1  and  C2_2
REMARK    2  A    between atoms: C9_11  and  C10_12
REMARK                            x       y       z     vdW  Elec       q    Type
REMARK                         _______ _______ _______ _____ _____    ______ ____
ROOT
ATOM      1  C1  UNL     1      22.895  -1.373  28.666  0.00  0.00    +0.066 C 
ATOM      2  C2  UNL     1      22.423   0.029  28.885  0.00  0.00    +0.044 A 
ATOM      3  C3  UNL     1      22.405   0.943  27.827  0.00  0.00    +0.066 A 
ATOM      4  C4  UNL     1      21.962   2.250  28.074  0.00  0.00    +0.125 A 
ATOM      5  N1  UNL     1      21.919   3.241  27.028  0.00  0.00    -0.315 N 
ATOM      6  C5  UNL     1      22.237   2.985  25.634  0.00  0.00    +0.106 C 
ATOM      7  C6  UNL     1      21.898   4.271  24.891  0.00  0.00    +0.020 C 
ATOM      8  C7  UNL     1      21.782   5.354  25.960  0.00  0.00    +0.020 C 
ATOM      9  C8  UNL     1      21.537   4.622  27.271  0.00  0.00    +0.106 C 
ATOM     10  N2  UNL     1      21.568   2.587  29.332  0.00  0.00    -0.212 NA
ATOM     11  C9  UNL     1      21.591   1.692  30.356  0.00  0.00    +0.166 A 
ATOM     12  N3  UNL     1      22.019   0.423  30.121  0.00  0.00    -0.232 NA
ENDROOT
BRANCH  11  13
ATOM     13  C10 UNL     1      21.155   2.096  31.713  0.00  0.00    +0.065 A 
ATOM     14  C11 UNL     1      21.843   3.097  32.441  0.00  0.00    +0.015 A 
ATOM     15  C12 UNL     1      21.415   3.471  33.733  0.00  0.00    +0.004 A 
ATOM     16  C13 UNL     1      20.295   2.855  34.316  0.00  0.00    +0.049 A 
ATOM     17  C14 UNL     1      19.636   1.875  33.581  0.00  0.00    +0.167 A 
ATOM     18  C15 UNL     1      20.044   1.510  32.337  0.00  0.00    +0.177 A 
ATOM     19  O1  UNL     1      19.200   0.522  31.860  0.00  0.00    -0.452 OA
ATOM     20  C16 UNL     1      18.210   0.254  32.860  0.00  0.00    +0.466 C 
ATOM     21  O2  UNL     1      18.525   1.138  33.942  0.00  0.00    -0.453 OA
ENDBRANCH  11  13
TORSDOF 1
ENDMDL
MODEL 6
REMARK VINA RESULT:    -5.926      8.587      9.844
REMARK INTER + INTRA:          -6.428
REMARK INTER:                  -6.082
REMARK INTRA:                  -0.346
REMARK UNBOUND:                -0.156
REMARK  Name = /home/qwerty/github/datacon2025hack/step_04_hit_selection/docking/ligands/lig_695.pdb
REMARK  2 active torsions:
REMARK  status: ('A' for Active; 'I' for Inactive)
REMARK    1  A    between atoms: C1_1  and  C2_2
REMARK    2  A    between atoms: C9_11  and  C10_12
REMARK                            x       y       z     vdW  Elec       q    Type
REMARK                         _______ _______ _______ _____ _____    ______ ____
ROOT
ATOM      1  C1  UNL     1      24.783   0.239  29.283  0.00  0.00    +0.066 C 
ATOM      2  C2  UNL     1      23.467   0.924  29.102  0.00  0.00    +0.044 A 
ATOM      3  C3  UNL     1      22.461   0.792  30.065  0.00  0.00    +0.066 A 
ATOM      4  C4  UNL     1      21.238   1.444  29.855  0.00  0.00    +0.125 A 
ATOM      5  N1  UNL     1      20.161   1.350  30.807  0.00  0.00    -0.315 N 
ATOM      6  C5  UNL     1      20.246   0.664  32.086  0.00  0.00    +0.106 C 
ATOM      7  C6  UNL     1      18.936   0.966  32.804  0.00  0.00    +0.020 C 
ATOM      8  C7  UNL     1      17.980   1.482  31.731  0.00  0.00    +0.020 C 
ATOM      9  C8  UNL     1      18.857   1.952  30.580  0.00  0.00    +0.106 C 
ATOM     10  N2  UNL     1      21.068   2.179  28.723  0.00  0.00    -0.212 NA
ATOM     11  C9  UNL     1      22.050   2.300  27.790  0.00  0.00    +0.166 A 
ATOM     12  N3  UNL     1      23.238   1.670  27.990  0.00  0.00    -0.232 NA
ENDROOT
BRANCH  11  13
ATOM     13  C10 UNL     1      21.827   3.108  26.569  0.00  0.00    +0.065 A 
ATOM     14  C11 UNL     1      22.466   4.359  26.385  0.00  0.00    +0.015 A 
ATOM     15  C12 UNL     1      22.244   5.117  25.215  0.00  0.00    +0.004 A 
ATOM     16  C13 UNL     1      21.383   4.640  24.213  0.00  0.00    +0.049 A 
ATOM     17  C14 UNL     1      20.767   3.410  24.416  0.00  0.00    +0.167 A 
ATOM     18  C15 UNL     1      20.977   2.675  25.541  0.00  0.00    +0.177 A 
ATOM     19  O1  UNL     1      20.235   1.508  25.459  0.00  0.00    -0.452 OA
ATOM     20  C16 UNL     1      19.522   1.514  24.216  0.00  0.00    +0.466 C 
ATOM     21  O2  UNL     1      19.890   2.745  23.581  0.00  0.00    -0.453 OA
ENDBRANCH  11  13
TORSDOF 1
ENDMDL
MODEL 7
REMARK VINA RESULT:    -5.883      9.706     11.653
REMARK INTER + INTRA:          -6.383
REMARK INTER:                  -6.032
REMARK INTRA:                  -0.351
REMARK UNBOUND:                -0.156
REMARK  Name = /home/qwerty/github/datacon2025hack/step_04_hit_selection/docking/ligands/lig_695.pdb
REMARK  2 active torsions:
REMARK  status: ('A' for Active; 'I' for Inactive)
REMARK    1  A    between atoms: C1_1  and  C2_2
REMARK    2  A    between atoms: C9_11  and  C10_12
REMARK                            x       y       z     vdW  Elec       q    Type
REMARK                         _______ _______ _______ _____ _____    ______ ____
ROOT
ATOM      1  C1  UNL     1       8.120  12.203  29.216  0.00  0.00    +0.066 C 
ATOM      2  C2  UNL     1       8.006  10.972  28.375  0.00  0.00    +0.044 A 
ATOM      3  C3  UNL     1       7.656   9.748  28.954  0.00  0.00    +0.066 A 
ATOM      4  C4  UNL     1       7.566   8.615  28.132  0.00  0.00    +0.125 A 
ATOM      5  N1  UNL     1       7.209   7.325  28.665  0.00  0.00    -0.315 N 
ATOM      6  C5  UNL     1       6.835   7.076  30.048  0.00  0.00    +0.106 C 
ATOM      7  C6  UNL     1       6.395   5.619  30.100  0.00  0.00    +0.020 C 
ATOM      8  C7  UNL     1       6.926   4.975  28.821  0.00  0.00    +0.020 C 
ATOM      9  C8  UNL     1       7.183   6.120  27.853  0.00  0.00    +0.106 C 
ATOM     10  N2  UNL     1       7.825   8.742  26.803  0.00  0.00    -0.212 NA
ATOM     11  C9  UNL     1       8.167   9.935  26.248  0.00  0.00    +0.166 A 
ATOM     12  N3  UNL     1       8.254  11.037  27.040  0.00  0.00    -0.232 NA
ENDROOT
BRANCH  11  13
ATOM     13  C10 UNL     1       8.443  10.034  24.796  0.00  0.00    +0.065 A 
ATOM     14  C11 UNL     1       7.425  10.378  23.873  0.00  0.00    +0.015 A 
ATOM     15  C12 UNL     1       7.703  10.469  22.492  0.00  0.00    +0.004 A 
ATOM     16  C13 UNL     1       8.999  10.218  22.012  0.00  0.00    +0.049 A 
ATOM     17  C14 UNL     1       9.981   9.881  22.937  0.00  0.00    +0.167 A 
ATOM     18  C15 UNL     1       9.720   9.792  24.268  0.00  0.00    +0.177 A 
ATOM     19  O1  UNL     1      10.883   9.442  24.932  0.00  0.00    -0.452 OA
ATOM     20  C16 UNL     1      11.930   9.304  23.963  0.00  0.00    +0.466 C 
ATOM     21  O2  UNL     1      11.312   9.592  22.703  0.00  0.00    -0.453 OA
ENDBRANCH  11  13
TORSDOF 1
ENDMDL
MODEL 8
REMARK VINA RESULT:    -5.876     17.789     19.465
REMARK INTER + INTRA:          -6.375
REMARK INTER:                  -6.037
REMARK INTRA:                  -0.338
REMARK UNBOUND:                -0.156
REMARK  Name = /home/qwerty/github/datacon2025hack/step_04_hit_selection/docking/ligands/lig_695.pdb
REMARK  2 active torsions:
REMARK  status: ('A' for Active; 'I' for Inactive)
REMARK    1  A    between atoms: C1_1  and  C2_2
REMARK    2  A    between atoms: C9_11  and  C10_12
REMARK                            x       y       z     vdW  Elec       q    Type
REMARK                         _______ _______ _______ _____ _____    ______ ____
ROOT
ATOM      1  C1  UNL     1      15.046  16.792  37.041  0.00  0.00    +0.066 C 
ATOM      2  C2  UNL     1      14.936  15.436  36.419  0.00  0.00    +0.044 A 
ATOM      3  C3  UNL     1      13.979  15.186  35.431  0.00  0.00    +0.066 A 
ATOM      4  C4  UNL     1      13.902  13.900  34.877  0.00  0.00    +0.125 A 
ATOM      5  N1  UNL     1      12.939  13.576  33.856  0.00  0.00    -0.315 N 
ATOM      6  C5  UNL     1      12.028  14.531  33.246  0.00  0.00    +0.106 C 
ATOM      7  C6  UNL     1      11.327  13.773  32.125  0.00  0.00    +0.020 C 
ATOM      8  C7  UNL     1      11.571  12.292  32.404  0.00  0.00    +0.020 C 
ATOM      9  C8  UNL     1      12.786  12.234  33.319  0.00  0.00    +0.106 C 
ATOM     10  N2  UNL     1      14.757  12.939  35.320  0.00  0.00    -0.212 NA
ATOM     11  C9  UNL     1      15.683  13.190  36.284  0.00  0.00    +0.166 A 
ATOM     12  N3  UNL     1      15.762  14.436  36.823  0.00  0.00    -0.232 NA
ENDROOT
BRANCH  11  13
ATOM     13  C10 UNL     1      16.597  12.117  36.741  0.00  0.00    +0.065 A 
ATOM     14  C11 UNL     1      16.153  11.092  37.612  0.00  0.00    +0.015 A 
ATOM     15  C12 UNL     1      17.036  10.076  38.038  0.00  0.00    +0.004 A 
ATOM     16  C13 UNL     1      18.371  10.067  37.603  0.00  0.00    +0.049 A 
ATOM     17  C14 UNL     1      18.783  11.084  36.749  0.00  0.00    +0.167 A 
ATOM     18  C15 UNL     1      17.938  12.066  36.334  0.00  0.00    +0.177 A 
ATOM     19  O1  UNL     1      18.626  12.927  35.498  0.00  0.00    -0.452 OA
ATOM     20  C16 UNL     1      19.976  12.460  35.382  0.00  0.00    +0.466 C 
ATOM     21  O2  UNL     1      20.034  11.282  36.196  0.00  0.00    -0.453 OA
ENDBRANCH  11  13
TORSDOF 1
ENDMDL
MODEL 9
REMARK VINA RESULT:    -5.853     10.061     12.653
REMARK INTER + INTRA:          -6.351
REMARK INTER:                  -6.048
REMARK INTRA:                  -0.302
REMARK UNBOUND:                -0.156
REMARK  Name = /home/qwerty/github/datacon2025hack/step_04_hit_selection/docking/ligands/lig_695.pdb
REMARK  2 active torsions:
REMARK  status: ('A' for Active; 'I' for Inactive)
REMARK    1  A    between atoms: C1_1  and  C2_2
REMARK    2  A    between atoms: C9_11  and  C10_12
REMARK                            x       y       z     vdW  Elec       q    Type
REMARK                         _______ _______ _______ _____ _____    ______ ____
ROOT
ATOM      1  C1  UNL     1       6.635   9.156  29.704  0.00  0.00    +0.066 C 
ATOM      2  C2  UNL     1       7.512   9.826  28.695  0.00  0.00    +0.044 A 
ATOM      3  C3  UNL     1       8.336  10.891  29.069  0.00  0.00    +0.066 A 
ATOM      4  C4  UNL     1       9.138  11.498  28.092  0.00  0.00    +0.125 A 
ATOM      5  N1  UNL     1      10.010  12.600  28.411  0.00  0.00    -0.315 N 
ATOM      6  C5  UNL     1      10.213  13.133  29.748  0.00  0.00    +0.106 C 
ATOM      7  C6  UNL     1      11.325  14.166  29.615  0.00  0.00    +0.020 C 
ATOM      8  C7  UNL     1      11.433  14.476  28.125  0.00  0.00    +0.020 C 
ATOM      9  C8  UNL     1      10.795  13.297  27.406  0.00  0.00    +0.106 C 
ATOM     10  N2  UNL     1       9.085  11.034  26.814  0.00  0.00    -0.212 NA
ATOM     11  C9  UNL     1       8.279   9.999  26.458  0.00  0.00    +0.166 A 
ATOM     12  N3  UNL     1       7.500   9.407  27.402  0.00  0.00    -0.232 NA
ENDROOT
BRANCH  11  13
ATOM     13  C10 UNL     1       8.249   9.523  25.056  0.00  0.00    +0.065 A 
ATOM     14  C11 UNL     1       7.767  10.344  24.007  0.00  0.00    +0.015 A 
ATOM     15  C12 UNL     1       7.745   9.875  22.676  0.00  0.00    +0.004 A 
ATOM     16  C13 UNL     1       8.203   8.582  22.371  0.00  0.00    +0.049 A 
ATOM     17  C14 UNL     1       8.671   7.795  23.417  0.00  0.00    +0.167 A 
ATOM     18  C15 UNL     1       8.694   8.241  24.701  0.00  0.00    +0.177 A 
ATOM     19  O1  UNL     1       9.209   7.244  25.513  0.00  0.00    -0.452 OA
ATOM     20  C16 UNL     1       9.524   6.113  24.692  0.00  0.00    +0.466 C 
ATOM     21  O2  UNL     1       9.165   6.506  23.362  0.00  0.00    -0.453 OA
ENDBRANCH  11  13
TORSDOF 1
ENDMDL
