MODEL 1
REMARK VINA RESULT:    -5.967      0.000      0.000
REMARK INTER + INTRA:          -8.241
REMARK INTER:                  -7.362
REMARK INTRA:                  -0.879
REMARK UNBOUND:                -0.879
REMARK  Name = /home/qwerty/github/datacon2025hack/step_04_hit_selection/docking/ligands/lig_274.pdb
REMARK  5 active torsions:
REMARK  status: ('A' for Active; 'I' for Inactive)
REMARK    1  A    between atoms: C1_1  and  C2_2
REMARK    2  A    between atoms: C4_4  and  N1_5
REMARK    3  A    between atoms: C10_12  and  C11_14
REMARK    4  A    between atoms: C14_17  and  N3_18
REMARK    5  A    between atoms: C19_23  and  N4_24
REMARK                            x       y       z     vdW  Elec       q    Type
REMARK                         _______ _______ _______ _____ _____    ______ ____
ROOT
ATOM      1  C11 UNL     1      20.490   2.388  26.671  0.00  0.00    +0.039 A 
ATOM      2  C12 UNL     1      19.914   3.353  27.507  0.00  0.00    +0.015 A 
ATOM      3  C13 UNL     1      20.249   3.406  28.860  0.00  0.00    +0.026 A 
ATOM      4  C14 UNL     1      21.162   2.492  29.403  0.00  0.00    +0.060 A 
ATOM      5  C19 UNL     1      21.754   1.514  28.572  0.00  0.00    +0.148 A 
ATOM      6  C20 UNL     1      21.394   1.462  27.214  0.00  0.00    +0.047 A 
ENDROOT
BRANCH   1  13
ATOM      7  C1  UNL     1      18.307   3.902  23.178  0.00  0.00    +0.028 C 
ATOM      8  C2  UNL     1      18.294   2.399  23.471  0.00  0.00    +0.075 C 
ATOM      9  C3  UNL     1      16.881   1.819  23.407  0.00  0.00    +0.042 C 
ATOM     10  C4  UNL     1      16.810   0.767  24.530  0.00  0.00    +0.076 C 
ATOM     11  C9  UNL     1      17.822   1.296  25.565  0.00  0.00    +0.127 C 
ATOM     12  N2  UNL     1      18.758   2.127  24.823  0.00  0.00    -0.293 N 
ATOM     13  C10 UNL     1      20.122   2.334  25.240  0.00  0.00    +0.247 C 
ATOM     14  O1  UNL     1      21.026   2.460  24.369  0.00  0.00    -0.270 OA
BRANCH  10  15
ATOM     15  N1  UNL     1      17.182  -0.584  24.025  0.00  0.00    -0.298 NA
ATOM     16  C5  UNL     1      18.088  -1.301  24.937  0.00  0.00    +0.085 C 
ATOM     17  C6  UNL     1      17.809  -2.778  24.772  0.00  0.00    +0.017 C 
ATOM     18  C7  UNL     1      16.344  -2.840  24.423  0.00  0.00    +0.017 C 
ATOM     19  C8  UNL     1      16.007  -1.464  23.862  0.00  0.00    +0.085 C 
ENDBRANCH  10  15
ENDBRANCH   1  13
BRANCH   4  20
ATOM     20  N3  UNL     1      21.422   2.524  30.813  0.00  0.00    -0.328 N 
ATOM     21  C15 UNL     1      22.138   3.605  31.463  0.00  0.00    +0.105 C 
ATOM     22  C16 UNL     1      22.155   3.242  32.942  0.00  0.00    +0.020 C 
ATOM     23  C17 UNL     1      21.052   2.202  33.131  0.00  0.00    +0.020 C 
ATOM     24  C18 UNL     1      20.789   1.612  31.750  0.00  0.00    +0.105 C 
ENDBRANCH   4  20
BRANCH   5  25
ATOM     25  N4  UNL     1      22.732   0.587  29.078  0.00  0.00    +0.058 N 
ATOM     26  O2  UNL     1      23.922   0.934  29.226  0.00  0.00    -0.126 OA
ATOM     27  O3  UNL     1      22.400  -0.737  29.261  0.00  0.00    -0.126 OA
ENDBRANCH   5  25
TORSDOF 4
ENDMDL
MODEL 2
REMARK VINA RESULT:    -5.936     12.532     14.192
REMARK INTER + INTRA:          -8.203
REMARK INTER:                  -7.365
REMARK INTRA:                  -0.838
REMARK UNBOUND:                -0.879
REMARK  Name = /home/qwerty/github/datacon2025hack/step_04_hit_selection/docking/ligands/lig_274.pdb
REMARK  5 active torsions:
REMARK  status: ('A' for Active; 'I' for Inactive)
REMARK    1  A    between atoms: C1_1  and  C2_2
REMARK    2  A    between atoms: C4_4  and  N1_5
REMARK    3  A    between atoms: C10_12  and  C11_14
REMARK    4  A    between atoms: C14_17  and  N3_18
REMARK    5  A    between atoms: C19_23  and  N4_24
REMARK                            x       y       z     vdW  Elec       q    Type
REMARK                         _______ _______ _______ _____ _____    ______ ____
ROOT
ATOM      1  C11 UNL     1      22.924  15.245  25.277  0.00  0.00    +0.039 A 
ATOM      2  C12 UNL     1      22.495  16.554  25.531  0.00  0.00    +0.015 A 
ATOM      3  C13 UNL     1      21.922  16.883  26.761  0.00  0.00    +0.026 A 
ATOM      4  C14 UNL     1      21.763  15.909  27.755  0.00  0.00    +0.060 A 
ATOM      5  C19 UNL     1      22.193  14.583  27.514  0.00  0.00    +0.148 A 
ATOM      6  C20 UNL     1      22.753  14.263  26.264  0.00  0.00    +0.047 A 
ENDROOT
BRANCH   1  13
ATOM      7  C1  UNL     1      24.699  16.367  21.423  0.00  0.00    +0.028 C 
ATOM      8  C2  UNL     1      23.602  15.299  21.456  0.00  0.00    +0.075 C 
ATOM      9  C3  UNL     1      22.523  15.559  20.404  0.00  0.00    +0.042 C 
ATOM     10  C4  UNL     1      21.190  15.158  21.065  0.00  0.00    +0.076 C 
ATOM     11  C9  UNL     1      21.459  15.400  22.563  0.00  0.00    +0.127 C 
ATOM     12  N2  UNL     1      22.901  15.308  22.731  0.00  0.00    -0.293 N 
ATOM     13  C10 UNL     1      23.521  14.904  23.968  0.00  0.00    +0.247 C 
ATOM     14  O1  UNL     1      24.589  14.233  23.938  0.00  0.00    -0.270 OA
BRANCH  10  15
ATOM     15  N1  UNL     1      20.856  13.734  20.781  0.00  0.00    -0.298 NA
ATOM     16  C5  UNL     1      19.901  13.171  21.748  0.00  0.00    +0.085 C 
ATOM     17  C6  UNL     1      19.098  12.118  21.020  0.00  0.00    +0.017 C 
ATOM     18  C7  UNL     1      19.039  12.615  19.598  0.00  0.00    +0.017 C 
ATOM     19  C8  UNL     1      20.226  13.561  19.455  0.00  0.00    +0.085 C 
ENDBRANCH  10  15
ENDBRANCH   1  13
BRANCH   4  20
ATOM     20  N3  UNL     1      21.097  16.263  28.974  0.00  0.00    -0.328 N 
ATOM     21  C15 UNL     1      21.780  16.864  30.104  0.00  0.00    +0.105 C 
ATOM     22  C16 UNL     1      20.698  17.093  31.151  0.00  0.00    +0.020 C 
ATOM     23  C17 UNL     1      19.369  17.035  30.398  0.00  0.00    +0.020 C 
ATOM     24  C18 UNL     1      19.651  16.281  29.104  0.00  0.00    +0.105 C 
ENDBRANCH   4  20
BRANCH   5  25
ATOM     25  N4  UNL     1      22.092  13.563  28.524  0.00  0.00    +0.058 N 
ATOM     26  O2  UNL     1      21.057  12.872  28.629  0.00  0.00    -0.126 OA
ATOM     27  O3  UNL     1      23.071  13.440  29.483  0.00  0.00    -0.126 OA
ENDBRANCH   5  25
TORSDOF 4
ENDMDL
MODEL 3
REMARK VINA RESULT:    -5.912     13.030     14.676
REMARK INTER + INTRA:          -8.174
REMARK INTER:                  -7.374
REMARK INTRA:                  -0.800
REMARK UNBOUND:                -0.879
REMARK  Name = /home/qwerty/github/datacon2025hack/step_04_hit_selection/docking/ligands/lig_274.pdb
REMARK  5 active torsions:
REMARK  status: ('A' for Active; 'I' for Inactive)
REMARK    1  A    between atoms: C1_1  and  C2_2
REMARK    2  A    between atoms: C4_4  and  N1_5
REMARK    3  A    between atoms: C10_12  and  C11_14
REMARK    4  A    between atoms: C14_17  and  N3_18
REMARK    5  A    between atoms: C19_23  and  N4_24
REMARK                            x       y       z     vdW  Elec       q    Type
REMARK                         _______ _______ _______ _____ _____    ______ ____
ROOT
ATOM      1  C11 UNL     1       8.796   9.839  27.511  0.00  0.00    +0.039 A 
ATOM      2  C12 UNL     1      10.026   9.618  28.144  0.00  0.00    +0.015 A 
ATOM      3  C13 UNL     1      10.627  10.631  28.892  0.00  0.00    +0.026 A 
ATOM      4  C14 UNL     1      10.013  11.884  29.016  0.00  0.00    +0.060 A 
ATOM      5  C19 UNL     1       8.770  12.122  28.385  0.00  0.00    +0.148 A 
ATOM      6  C20 UNL     1       8.185  11.097  27.620  0.00  0.00    +0.047 A 
ENDROOT
BRANCH   1  13
ATOM      7  C1  UNL     1       8.654   5.715  26.017  0.00  0.00    +0.028 C 
ATOM      8  C2  UNL     1       8.450   6.872  25.034  0.00  0.00    +0.075 C 
ATOM      9  C3  UNL     1       9.306   6.708  23.777  0.00  0.00    +0.042 C 
ATOM     10  C4  UNL     1       9.775   8.127  23.405  0.00  0.00    +0.076 C 
ATOM     11  C9  UNL     1       9.804   8.852  24.764  0.00  0.00    +0.127 C 
ATOM     12  N2  UNL     1       8.870   8.136  25.620  0.00  0.00    -0.293 N 
ATOM     13  C10 UNL     1       8.171   8.762  26.713  0.00  0.00    +0.247 C 
ATOM     14  O1  UNL     1       6.996   8.397  26.991  0.00  0.00    -0.270 OA
BRANCH  10  15
ATOM     15  N1  UNL     1       8.833   8.772  22.448  0.00  0.00    -0.298 NA
ATOM     16  C5  UNL     1       8.335  10.071  22.930  0.00  0.00    +0.085 C 
ATOM     17  C6  UNL     1       8.058  10.921  21.711  0.00  0.00    +0.017 C 
ATOM     18  C7  UNL     1       9.069  10.453  20.696  0.00  0.00    +0.017 C 
ATOM     19  C8  UNL     1       9.464   9.049  21.141  0.00  0.00    +0.085 C 
ENDBRANCH  10  15
ENDBRANCH   1  13
BRANCH   4  20
ATOM     20  N3  UNL     1      10.697  12.927  29.724  0.00  0.00    -0.328 N 
ATOM     21  C15 UNL     1      10.859  12.931  31.165  0.00  0.00    +0.105 C 
ATOM     22  C16 UNL     1      11.659  14.190  31.474  0.00  0.00    +0.020 C 
ATOM     23  C17 UNL     1      12.311  14.606  30.156  0.00  0.00    +0.020 C 
ATOM     24  C18 UNL     1      11.496  13.938  29.055  0.00  0.00    +0.105 C 
ENDBRANCH   4  20
BRANCH   5  25
ATOM     25  N4  UNL     1       8.082  13.378  28.525  0.00  0.00    +0.058 N 
ATOM     26  O2  UNL     1       7.515  13.677  29.597  0.00  0.00    -0.126 OA
ATOM     27  O3  UNL     1       7.909  14.198  27.433  0.00  0.00    -0.126 OA
ENDBRANCH   5  25
TORSDOF 4
ENDMDL
MODEL 4
REMARK VINA RESULT:    -5.877      7.768     11.456
REMARK INTER + INTRA:          -8.130
REMARK INTER:                  -7.137
REMARK INTRA:                  -0.994
REMARK UNBOUND:                -0.879
REMARK  Name = /home/qwerty/github/datacon2025hack/step_04_hit_selection/docking/ligands/lig_274.pdb
REMARK  5 active torsions:
REMARK  status: ('A' for Active; 'I' for Inactive)
REMARK    1  A    between atoms: C1_1  and  C2_2
REMARK    2  A    between atoms: C4_4  and  N1_5
REMARK    3  A    between atoms: C10_12  and  C11_14
REMARK    4  A    between atoms: C14_17  and  N3_18
REMARK    5  A    between atoms: C19_23  and  N4_24
REMARK                            x       y       z     vdW  Elec       q    Type
REMARK                         _______ _______ _______ _____ _____    ______ ____
ROOT
ATOM      1  C11 UNL     1      11.757   3.368  22.681  0.00  0.00    +0.039 A 
ATOM      2  C12 UNL     1      11.514   2.084  22.176  0.00  0.00    +0.015 A 
ATOM      3  C13 UNL     1      12.575   1.267  21.783  0.00  0.00    +0.026 A 
ATOM      4  C14 UNL     1      13.897   1.721  21.883  0.00  0.00    +0.060 A 
ATOM      5  C19 UNL     1      14.159   3.013  22.393  0.00  0.00    +0.148 A 
ATOM      6  C20 UNL     1      13.079   3.831  22.769  0.00  0.00    +0.047 A 
ENDROOT
BRANCH   1  13
ATOM      7  C1  UNL     1       7.494   4.407  22.687  0.00  0.00    +0.028 C 
ATOM      8  C2  UNL     1       8.528   5.504  22.418  0.00  0.00    +0.075 C 
ATOM      9  C3  UNL     1       8.162   6.345  21.195  0.00  0.00    +0.042 C 
ATOM     10  C4  UNL     1       9.494   6.658  20.489  0.00  0.00    +0.076 C 
ATOM     11  C9  UNL     1      10.380   5.457  20.871  0.00  0.00    +0.127 C 
ATOM     12  N2  UNL     1       9.830   4.931  22.111  0.00  0.00    -0.293 N 
ATOM     13  C10 UNL     1      10.626   4.230  23.086  0.00  0.00    +0.247 C 
ATOM     14  O1  UNL     1      10.365   4.360  24.313  0.00  0.00    -0.270 OA
BRANCH  10  15
ATOM     15  N1  UNL     1      10.066   7.948  20.968  0.00  0.00    -0.298 NA
ATOM     16  C5  UNL     1      10.966   8.570  19.983  0.00  0.00    +0.085 C 
ATOM     17  C6  UNL     1      10.878  10.066  20.183  0.00  0.00    +0.017 C 
ATOM     18  C7  UNL     1       9.468  10.293  20.662  0.00  0.00    +0.017 C 
ATOM     19  C8  UNL     1       9.021   8.956  21.242  0.00  0.00    +0.085 C 
ENDBRANCH  10  15
ENDBRANCH   1  13
BRANCH   4  20
ATOM     20  N3  UNL     1      14.957   0.887  21.394  0.00  0.00    -0.328 N 
ATOM     21  C15 UNL     1      15.527  -0.201  22.165  0.00  0.00    +0.105 C 
ATOM     22  C16 UNL     1      16.584  -0.822  21.260  0.00  0.00    +0.020 C 
ATOM     23  C17 UNL     1      16.252  -0.350  19.845  0.00  0.00    +0.020 C 
ATOM     24  C18 UNL     1      15.387   0.894  20.008  0.00  0.00    +0.105 C 
ENDBRANCH   4  20
BRANCH   5  25
ATOM     25  N4  UNL     1      15.503   3.500  22.557  0.00  0.00    +0.058 N 
ATOM     26  O2  UNL     1      16.138   3.275  23.608  0.00  0.00    -0.126 OA
ATOM     27  O3  UNL     1      16.050   4.349  21.621  0.00  0.00    -0.126 OA
ENDBRANCH   5  25
TORSDOF 4
ENDMDL
MODEL 5
REMARK VINA RESULT:    -5.842      2.877      8.964
REMARK INTER + INTRA:          -8.087
REMARK INTER:                  -7.232
REMARK INTRA:                  -0.855
REMARK UNBOUND:                -0.879
REMARK  Name = /home/qwerty/github/datacon2025hack/step_04_hit_selection/docking/ligands/lig_274.pdb
REMARK  5 active torsions:
REMARK  status: ('A' for Active; 'I' for Inactive)
REMARK    1  A    between atoms: C1_1  and  C2_2
REMARK    2  A    between atoms: C4_4  and  N1_5
REMARK    3  A    between atoms: C10_12  and  C11_14
REMARK    4  A    between atoms: C14_17  and  N3_18
REMARK    5  A    between atoms: C19_23  and  N4_24
REMARK                            x       y       z     vdW  Elec       q    Type
REMARK                         _______ _______ _______ _____ _____    ______ ____
ROOT
ATOM      1  C11 UNL     1      20.612   2.610  31.331  0.00  0.00    +0.039 A 
ATOM      2  C12 UNL     1      19.557   3.030  30.511  0.00  0.00    +0.015 A 
ATOM      3  C13 UNL     1      19.526   2.674  29.162  0.00  0.00    +0.026 A 
ATOM      4  C14 UNL     1      20.551   1.896  28.607  0.00  0.00    +0.060 A 
ATOM      5  C19 UNL     1      21.622   1.463  29.423  0.00  0.00    +0.148 A 
ATOM      6  C20 UNL     1      21.649   1.844  30.776  0.00  0.00    +0.047 A 
ENDROOT
BRANCH   1  13
ATOM      7  C1  UNL     1      18.814   4.487  34.866  0.00  0.00    +0.028 C 
ATOM      8  C2  UNL     1      20.272   4.799  34.517  0.00  0.00    +0.075 C 
ATOM      9  C3  UNL     1      20.557   6.301  34.552  0.00  0.00    +0.042 C 
ATOM     10  C4  UNL     1      21.533   6.568  33.390  0.00  0.00    +0.076 C 
ATOM     11  C9  UNL     1      21.182   5.457  32.381  0.00  0.00    +0.127 C 
ATOM     12  N2  UNL     1      20.584   4.383  33.158  0.00  0.00    -0.293 N 
ATOM     13  C10 UNL     1      20.642   3.000  32.757  0.00  0.00    +0.247 C 
ATOM     14  O1  UNL     1      20.732   2.100  33.636  0.00  0.00    -0.270 OA
BRANCH  10  15
ATOM     15  N1  UNL     1      22.948   6.482  33.846  0.00  0.00    -0.298 NA
ATOM     16  C5  UNL     1      23.755   5.566  33.024  0.00  0.00    +0.085 C 
ATOM     17  C6  UNL     1      25.175   6.083  33.044  0.00  0.00    +0.017 C 
ATOM     18  C7  UNL     1      25.023   7.577  33.177  0.00  0.00    +0.017 C 
ATOM     19  C8  UNL     1      23.638   7.786  33.779  0.00  0.00    +0.085 C 
ENDBRANCH  10  15
ENDBRANCH   1  13
BRANCH   4  20
ATOM     20  N3  UNL     1      20.529   1.618  27.201  0.00  0.00    -0.328 N 
ATOM     21  C15 UNL     1      19.599   0.686  26.593  0.00  0.00    +0.105 C 
ATOM     22  C16 UNL     1      19.909   0.724  25.103  0.00  0.00    +0.020 C 
ATOM     23  C17 UNL     1      20.692   2.016  24.872  0.00  0.00    +0.020 C 
ATOM     24  C18 UNL     1      21.259   2.413  26.230  0.00  0.00    +0.105 C 
ENDBRANCH   4  20
BRANCH   5  25
ATOM     25  N4  UNL     1      22.671   0.624  28.905  0.00  0.00    +0.058 N 
ATOM     26  O2  UNL     1      22.517  -0.612  28.827  0.00  0.00    -0.126 OA
ATOM     27  O3  UNL     1      23.911   1.156  28.633  0.00  0.00    -0.126 OA
ENDBRANCH   5  25
TORSDOF 4
ENDMDL
MODEL 6
REMARK VINA RESULT:    -5.795      6.463      9.860
REMARK INTER + INTRA:          -8.029
REMARK INTER:                  -7.230
REMARK INTRA:                  -0.799
REMARK UNBOUND:                -0.879
REMARK  Name = /home/qwerty/github/datacon2025hack/step_04_hit_selection/docking/ligands/lig_274.pdb
REMARK  5 active torsions:
REMARK  status: ('A' for Active; 'I' for Inactive)
REMARK    1  A    between atoms: C1_1  and  C2_2
REMARK    2  A    between atoms: C4_4  and  N1_5
REMARK    3  A    between atoms: C10_12  and  C11_14
REMARK    4  A    between atoms: C14_17  and  N3_18
REMARK    5  A    between atoms: C19_23  and  N4_24
REMARK                            x       y       z     vdW  Elec       q    Type
REMARK                         _______ _______ _______ _____ _____    ______ ____
ROOT
ATOM      1  C11 UNL     1      22.218   6.245  21.285  0.00  0.00    +0.039 A 
ATOM      2  C12 UNL     1      21.358   5.297  20.717  0.00  0.00    +0.015 A 
ATOM      3  C13 UNL     1      20.653   4.407  21.529  0.00  0.00    +0.026 A 
ATOM      4  C14 UNL     1      20.800   4.445  22.922  0.00  0.00    +0.060 A 
ATOM      5  C19 UNL     1      21.663   5.398  23.510  0.00  0.00    +0.148 A 
ATOM      6  C20 UNL     1      22.380   6.277  22.679  0.00  0.00    +0.047 A 
ENDROOT
BRANCH   1  13
ATOM      7  C1  UNL     1      25.434   9.150  20.594  0.00  0.00    +0.028 C 
ATOM      8  C2  UNL     1      24.019   9.472  20.103  0.00  0.00    +0.075 C 
ATOM      9  C3  UNL     1      23.586  10.884  20.503  0.00  0.00    +0.042 C 
ATOM     10  C4  UNL     1      22.090  10.778  20.852  0.00  0.00    +0.076 C 
ATOM     11  C9  UNL     1      21.948   9.320  21.332  0.00  0.00    +0.127 C 
ATOM     12  N2  UNL     1      23.040   8.585  20.713  0.00  0.00    -0.293 N 
ATOM     13  C10 UNL     1      22.968   7.177  20.417  0.00  0.00    +0.247 C 
ATOM     14  O1  UNL     1      23.544   6.727  19.389  0.00  0.00    -0.270 OA
BRANCH  10  15
ATOM     15  N1  UNL     1      21.239  11.059  19.662  0.00  0.00    -0.298 NA
ATOM     16  C5  UNL     1      19.805  10.864  19.930  0.00  0.00    +0.085 C 
ATOM     17  C6  UNL     1      19.051  11.822  19.037  0.00  0.00    +0.017 C 
ATOM     18  C7  UNL     1      19.979  13.001  18.891  0.00  0.00    +0.017 C 
ATOM     19  C8  UNL     1      21.369  12.456  19.199  0.00  0.00    +0.085 C 
ENDBRANCH  10  15
ENDBRANCH   1  13
BRANCH   4  20
ATOM     20  N3  UNL     1      20.123   3.464  23.719  0.00  0.00    -0.328 N 
ATOM     21  C15 UNL     1      18.707   3.531  24.025  0.00  0.00    +0.105 C 
ATOM     22  C16 UNL     1      18.418   2.289  24.859  0.00  0.00    +0.020 C 
ATOM     23  C17 UNL     1      19.584   1.334  24.605  0.00  0.00    +0.020 C 
ATOM     24  C18 UNL     1      20.729   2.196  24.088  0.00  0.00    +0.105 C 
ENDBRANCH   4  20
BRANCH   5  25
ATOM     25  N4  UNL     1      21.807   5.503  24.939  0.00  0.00    +0.058 N 
ATOM     26  O2  UNL     1      22.810   5.031  25.513  0.00  0.00    -0.126 OA
ATOM     27  O3  UNL     1      20.772   5.988  25.705  0.00  0.00    -0.126 OA
ENDBRANCH   5  25
TORSDOF 4
ENDMDL
MODEL 7
REMARK VINA RESULT:    -5.776     12.654     15.877
REMARK INTER + INTRA:          -8.006
REMARK INTER:                  -7.159
REMARK INTRA:                  -0.846
REMARK UNBOUND:                -0.879
REMARK  Name = /home/qwerty/github/datacon2025hack/step_04_hit_selection/docking/ligands/lig_274.pdb
REMARK  5 active torsions:
REMARK  status: ('A' for Active; 'I' for Inactive)
REMARK    1  A    between atoms: C1_1  and  C2_2
REMARK    2  A    between atoms: C4_4  and  N1_5
REMARK    3  A    between atoms: C10_12  and  C11_14
REMARK    4  A    between atoms: C14_17  and  N3_18
REMARK    5  A    between atoms: C19_23  and  N4_24
REMARK                            x       y       z     vdW  Elec       q    Type
REMARK                         _______ _______ _______ _____ _____    ______ ____
ROOT
ATOM      1  C11 UNL     1      10.039   9.972  26.235  0.00  0.00    +0.039 A 
ATOM      2  C12 UNL     1      11.318   9.709  25.729  0.00  0.00    +0.015 A 
ATOM      3  C13 UNL     1      11.504   9.479  24.365  0.00  0.00    +0.026 A 
ATOM      4  C14 UNL     1      10.415   9.502  23.484  0.00  0.00    +0.060 A 
ATOM      5  C19 UNL     1       9.117   9.769  23.980  0.00  0.00    +0.148 A 
ATOM      6  C20 UNL     1       8.943   9.982  25.359  0.00  0.00    +0.047 A 
ENDROOT
BRANCH   1  13
ATOM      7  C1  UNL     1       7.651  11.337  29.655  0.00  0.00    +0.028 C 
ATOM      8  C2  UNL     1       9.115  11.775  29.545  0.00  0.00    +0.075 C 
ATOM      9  C3  UNL     1       9.276  13.279  29.768  0.00  0.00    +0.042 C 
ATOM     10  C4  UNL     1      10.373  13.731  28.786  0.00  0.00    +0.076 C 
ATOM     11  C9  UNL     1      10.245  12.718  27.632  0.00  0.00    +0.127 C 
ATOM     12  N2  UNL     1       9.634  11.529  28.208  0.00  0.00    -0.293 N 
ATOM     13  C10 UNL     1       9.850  10.205  27.683  0.00  0.00    +0.247 C 
ATOM     14  O1  UNL     1       9.892   9.222  28.472  0.00  0.00    -0.270 OA
BRANCH  10  15
ATOM     15  N1  UNL     1      11.719  13.684  29.424  0.00  0.00    -0.298 NA
ATOM     16  C5  UNL     1      12.633  14.710  28.896  0.00  0.00    +0.085 C 
ATOM     17  C6  UNL     1      13.584  15.075  30.012  0.00  0.00    +0.017 C 
ATOM     18  C7  UNL     1      12.772  14.886  31.268  0.00  0.00    +0.017 C 
ATOM     19  C8  UNL     1      11.656  13.921  30.881  0.00  0.00    +0.085 C 
ENDBRANCH  10  15
ENDBRANCH   1  13
BRANCH   4  20
ATOM     20  N3  UNL     1      10.630   9.181  22.103  0.00  0.00    -0.328 N 
ATOM     21  C15 UNL     1      11.019  10.167  21.113  0.00  0.00    +0.105 C 
ATOM     22  C16 UNL     1      11.162   9.390  19.810  0.00  0.00    +0.020 C 
ATOM     23  C17 UNL     1      11.295   7.922  20.211  0.00  0.00    +0.020 C 
ATOM     24  C18 UNL     1      10.719   7.816  21.618  0.00  0.00    +0.105 C 
ENDBRANCH   4  20
BRANCH   5  25
ATOM     25  N4  UNL     1       7.978   9.849  23.104  0.00  0.00    +0.058 N 
ATOM     26  O2  UNL     1       7.323  10.907  23.007  0.00  0.00    -0.126 OA
ATOM     27  O3  UNL     1       7.506   8.717  22.478  0.00  0.00    -0.126 OA
ENDBRANCH   5  25
TORSDOF 4
ENDMDL
MODEL 8
REMARK VINA RESULT:    -5.755     10.528     14.010
REMARK INTER + INTRA:          -7.980
REMARK INTER:                  -7.033
REMARK INTRA:                  -0.947
REMARK UNBOUND:                -0.879
REMARK  Name = /home/qwerty/github/datacon2025hack/step_04_hit_selection/docking/ligands/lig_274.pdb
REMARK  5 active torsions:
REMARK  status: ('A' for Active; 'I' for Inactive)
REMARK    1  A    between atoms: C1_1  and  C2_2
REMARK    2  A    between atoms: C4_4  and  N1_5
REMARK    3  A    between atoms: C10_12  and  C11_14
REMARK    4  A    between atoms: C14_17  and  N3_18
REMARK    5  A    between atoms: C19_23  and  N4_24
REMARK                            x       y       z     vdW  Elec       q    Type
REMARK                         _______ _______ _______ _____ _____    ______ ____
ROOT
ATOM      1  C11 UNL     1      22.733  12.384  21.014  0.00  0.00    +0.039 A 
ATOM      2  C12 UNL     1      21.489  11.778  21.229  0.00  0.00    +0.015 A 
ATOM      3  C13 UNL     1      21.338  10.399  21.070  0.00  0.00    +0.026 A 
ATOM      4  C14 UNL     1      22.426   9.604  20.687  0.00  0.00    +0.060 A 
ATOM      5  C19 UNL     1      23.689  10.201  20.469  0.00  0.00    +0.148 A 
ATOM      6  C20 UNL     1      23.822  11.593  20.617  0.00  0.00    +0.047 A 
ENDROOT
BRANCH   1  13
ATOM      7  C1  UNL     1      25.166  16.034  21.158  0.00  0.00    +0.028 C 
ATOM      8  C2  UNL     1      24.121  15.790  22.251  0.00  0.00    +0.075 C 
ATOM      9  C3  UNL     1      24.697  16.017  23.649  0.00  0.00    +0.042 C 
ATOM     10  C4  UNL     1      24.056  14.941  24.545  0.00  0.00    +0.076 C 
ATOM     11  C9  UNL     1      23.774  13.791  23.558  0.00  0.00    +0.127 C 
ATOM     12  N2  UNL     1      23.670  14.407  22.244  0.00  0.00    -0.293 N 
ATOM     13  C10 UNL     1      22.882  13.846  21.176  0.00  0.00    +0.247 C 
ATOM     14  O1  UNL     1      22.293  14.615  20.368  0.00  0.00    -0.270 OA
BRANCH  10  15
ATOM     15  N1  UNL     1      22.809  15.447  25.184  0.00  0.00    -0.298 NA
ATOM     16  C5  UNL     1      21.643  14.591  24.910  0.00  0.00    +0.085 C 
ATOM     17  C6  UNL     1      20.716  14.708  26.098  0.00  0.00    +0.017 C 
ATOM     18  C7  UNL     1      21.639  14.947  27.265  0.00  0.00    +0.017 C 
ATOM     19  C8  UNL     1      22.919  15.506  26.656  0.00  0.00    +0.085 C 
ENDBRANCH  10  15
ENDBRANCH   1  13
BRANCH   4  20
ATOM     20  N3  UNL     1      22.215   8.205  20.454  0.00  0.00    -0.328 N 
ATOM     21  C15 UNL     1      22.324   7.203  21.497  0.00  0.00    +0.105 C 
ATOM     22  C16 UNL     1      21.997   5.880  20.817  0.00  0.00    +0.020 C 
ATOM     23  C17 UNL     1      21.270   6.243  19.523  0.00  0.00    +0.020 C 
ATOM     24  C18 UNL     1      21.642   7.690  19.224  0.00  0.00    +0.105 C 
ENDBRANCH   4  20
BRANCH   5  25
ATOM     25  N4  UNL     1      24.843   9.415  20.122  0.00  0.00    +0.058 N 
ATOM     26  O2  UNL     1      25.539   8.879  21.009  0.00  0.00    -0.126 OA
ATOM     27  O3  UNL     1      25.283   9.370  18.818  0.00  0.00    -0.126 OA
ENDBRANCH   5  25
TORSDOF 4
ENDMDL
MODEL 9
REMARK VINA RESULT:    -5.515     12.952     14.247
REMARK INTER + INTRA:          -7.684
REMARK INTER:                  -6.739
REMARK INTRA:                  -0.946
REMARK UNBOUND:                -0.879
REMARK  Name = /home/qwerty/github/datacon2025hack/step_04_hit_selection/docking/ligands/lig_274.pdb
REMARK  5 active torsions:
REMARK  status: ('A' for Active; 'I' for Inactive)
REMARK    1  A    between atoms: C1_1  and  C2_2
REMARK    2  A    between atoms: C4_4  and  N1_5
REMARK    3  A    between atoms: C10_12  and  C11_14
REMARK    4  A    between atoms: C14_17  and  N3_18
REMARK    5  A    between atoms: C19_23  and  N4_24
REMARK                            x       y       z     vdW  Elec       q    Type
REMARK                         _______ _______ _______ _____ _____    ______ ____
ROOT
ATOM      1  C11 UNL     1      11.451  13.656  27.991  0.00  0.00    +0.039 A 
ATOM      2  C12 UNL     1      12.092  14.438  27.021  0.00  0.00    +0.015 A 
ATOM      3  C13 UNL     1      13.426  14.812  27.185  0.00  0.00    +0.026 A 
ATOM      4  C14 UNL     1      14.142  14.416  28.322  0.00  0.00    +0.060 A 
ATOM      5  C19 UNL     1      13.510  13.624  29.309  0.00  0.00    +0.148 A 
ATOM      6  C20 UNL     1      12.160  13.269  29.138  0.00  0.00    +0.047 A 
ENDROOT
BRANCH   1  13
ATOM      7  C1  UNL     1       7.875  11.405  29.177  0.00  0.00    +0.028 C 
ATOM      8  C2  UNL     1       8.290  11.423  27.702  0.00  0.00    +0.075 C 
ATOM      9  C3  UNL     1       8.292  10.020  27.095  0.00  0.00    +0.042 C 
ATOM     10  C4  UNL     1       9.498   9.981  26.137  0.00  0.00    +0.076 C 
ATOM     11  C9  UNL     1      10.473  10.995  26.767  0.00  0.00    +0.127 C 
ATOM     12  N2  UNL     1       9.654  11.907  27.550  0.00  0.00    -0.293 N 
ATOM     13  C10 UNL     1      10.035  13.271  27.813  0.00  0.00    +0.247 C 
ATOM     14  O1  UNL     1       9.145  14.163  27.883  0.00  0.00    -0.270 OA
BRANCH  10  15
ATOM     15  N1  UNL     1       9.100  10.372  24.756  0.00  0.00    -0.298 NA
ATOM     16  C5  UNL     1      10.083   9.954  23.743  0.00  0.00    +0.085 C 
ATOM     17  C6  UNL     1       9.322   9.703  22.461  0.00  0.00    +0.017 C 
ATOM     18  C7  UNL     1       7.967   9.228  22.923  0.00  0.00    +0.017 C 
ATOM     19  C8  UNL     1       7.822   9.755  24.346  0.00  0.00    +0.085 C 
ENDBRANCH  10  15
ENDBRANCH   1  13
BRANCH   4  20
ATOM     20  N3  UNL     1      15.486  14.887  28.496  0.00  0.00    -0.328 N 
ATOM     21  C15 UNL     1      15.826  16.019  29.335  0.00  0.00    +0.105 C 
ATOM     22  C16 UNL     1      17.341  16.142  29.248  0.00  0.00    +0.020 C 
ATOM     23  C17 UNL     1      17.841  14.794  28.730  0.00  0.00    +0.020 C 
ATOM     24  C18 UNL     1      16.646  14.135  28.051  0.00  0.00    +0.105 C 
ENDBRANCH   4  20
BRANCH   5  25
ATOM     25  N4  UNL     1      14.222  13.156  30.469  0.00  0.00    +0.058 N 
ATOM     26  O2  UNL     1      14.886  12.100  30.425  0.00  0.00    -0.126 OA
ATOM     27  O3  UNL     1      14.056  13.785  31.682  0.00  0.00    -0.126 OA
ENDBRANCH   5  25
TORSDOF 4
ENDMDL
