REMARK  Name = /home/qwerty/github/datacon2025hack/step_04_hit_selection/docking/ligands/lig_543.pdb
REMARK  5 active torsions:
REMARK  status: ('A' for Active; 'I' for Inactive)
REMARK    1  A    between atoms: C1_1  and  O1_2
REMARK    2  A    between atoms: O1_2  and  C2_3
REMARK    3  A    between atoms: C2_3  and  C3_5
REMARK    4  A    between atoms: C6_8  and  N1_9
REMARK    5  A    between atoms: C10_15  and  O4_16
REMARK                            x       y       z     vdW  Elec       q    Type
REMARK                         _______ _______ _______ _____ _____    ______ ____
ROOT
ATOM      1  N1  UNL     1       0.443   0.253   0.910  0.00  0.00    -0.269 N 
ATOM      2  C7  UNL     1      -0.730   0.066   0.104  0.00  0.00    +0.307 C 
ATOM      3  O3  UNL     1      -0.634  -0.472  -1.029  0.00  0.00    -0.252 OA
ATOM      4  N2  UNL     1      -2.016   0.488   0.598  0.00  0.00    -0.277 N 
ATOM      5  C8  UNL     1      -2.147   1.660   1.456  0.00  0.00    +0.112 C 
ATOM      6  C9  UNL     1      -3.642   1.914   1.585  0.00  0.00    +0.052 C 
ATOM      7  C10 UNL     1      -4.296   0.578   1.243  0.00  0.00    +0.140 C 
ATOM      8  C11 UNL     1      -3.315  -0.107   0.252  0.00  0.00    +0.065 C 
ATOM      9  C12 UNL     1      -3.632   0.133  -1.243  0.00  0.00    +0.028 C 
ATOM     10  C13 UNL     1      -3.583  -1.224  -1.945  0.00  0.00    +0.002 C 
ATOM     11  C14 UNL     1      -3.139  -2.261  -0.924  0.00  0.00    +0.002 C 
ATOM     12  C15 UNL     1      -3.318  -1.633   0.449  0.00  0.00    +0.028 C 
ATOM     13  H6  UNL     1       0.312   0.310   1.948  0.00  0.00    +0.156 HD
ENDROOT
BRANCH   1  17
ATOM     14  C3  UNL     1       4.461   0.051  -0.514  0.00  0.00    +0.077 A 
ATOM     15  C4  UNL     1       3.435   0.570  -1.329  0.00  0.00    +0.018 A 
ATOM     16  C5  UNL     1       2.117   0.635  -0.873  0.00  0.00    +0.024 A 
ATOM     17  C6  UNL     1       1.786   0.169   0.405  0.00  0.00    +0.036 A 
ATOM     18  C16 UNL     1       2.796  -0.348   1.225  0.00  0.00    +0.044 A 
ATOM     19  C17 UNL     1       4.122  -0.419   0.779  0.00  0.00    +0.057 A 
ATOM     20 CL1  UNL     1       5.288  -1.172   1.874  0.00  0.00    -0.083 Cl
BRANCH  14  21
ATOM     21  C2  UNL     1       5.854   0.036  -1.035  0.00  0.00    +0.340 C 
ATOM     22  O2  UNL     1       6.064   0.241  -2.263  0.00  0.00    -0.245 OA
BRANCH  21  24
ATOM     23  C1  UNL     1       8.292  -0.099  -0.616  0.00  0.00    +0.280 C 
ATOM     24  O1  UNL     1       6.939  -0.165  -0.176  0.00  0.00    -0.464 OA
ENDBRANCH  21  24
ENDBRANCH  14  21
ENDBRANCH   1  17
BRANCH   7  25
ATOM     25  O4  UNL     1      -5.590   0.751   0.718  0.00  0.00    -0.390 OA
ATOM     26  H12 UNL     1      -6.170   1.023   1.477  0.00  0.00    +0.210 HD
ENDBRANCH   7  25
TORSDOF 4
