REMARK  Name = /home/qwerty/github/datacon2025hack/step_04_hit_selection/docking/ligands/lig_367.pdb
REMARK  5 active torsions:
REMARK  status: ('A' for Active; 'I' for Inactive)
REMARK    1  A    between atoms: C1_1  and  O1_2
REMARK    2  A    between atoms: O1_2  and  C2_3
REMARK    3  A    between atoms: C5_6  and  N1_7
REMARK    4  A    between atoms: N3_13  and  C9_14
REMARK    5  A    between atoms: C12_17  and  N4_18
REMARK                            x       y       z     vdW  Elec       q    Type
REMARK                         _______ _______ _______ _____ _____    ______ ____
ROOT
ATOM      1  N1  UNL     1      -4.188  -0.507   0.819  0.00  0.00    -0.327 N 
ATOM      2  C6  UNL     1      -3.650  -1.874   0.832  0.00  0.00    +0.124 C 
ATOM      3  C7  UNL     1      -2.117  -1.833   0.837  0.00  0.00    +0.128 C 
ATOM      4  N2  UNL     1      -1.599  -0.816   1.770  0.00  0.00    -0.282 N 
ATOM      5  C8  UNL     1      -0.184  -0.525   1.807  0.00  0.00    +0.307 C 
ATOM      6  O2  UNL     1       0.240   0.461   2.471  0.00  0.00    -0.252 OA
ATOM      7  N3  UNL     1       0.758  -1.364   1.113  0.00  0.00    -0.268 N 
ATOM      8  C19 UNL     1      -2.542  -0.073   2.625  0.00  0.00    +0.128 C 
ATOM      9  C20 UNL     1      -3.686   0.491   1.775  0.00  0.00    +0.124 C 
ATOM     10  H10 UNL     1       0.526  -2.373   0.976  0.00  0.00    +0.156 HD
ENDROOT
BRANCH   1  14
ATOM     11  C2  UNL     1      -7.189   0.583  -1.993  0.00  0.00    +0.120 A 
ATOM     12  C3  UNL     1      -7.402   0.778  -0.614  0.00  0.00    +0.047 A 
ATOM     13  C4  UNL     1      -6.414   0.423   0.308  0.00  0.00    +0.027 A 
ATOM     14  C5  UNL     1      -5.203  -0.135  -0.129  0.00  0.00    +0.030 A 
ATOM     15  C21 UNL     1      -4.993  -0.329  -1.504  0.00  0.00    +0.027 A 
ATOM     16  C22 UNL     1      -5.978   0.034  -2.426  0.00  0.00    +0.047 A 
BRANCH  11  18
ATOM     17  C1  UNL     1      -9.454   1.408  -2.656  0.00  0.00    +0.277 C 
ATOM     18  O1  UNL     1      -8.150   0.920  -2.957  0.00  0.00    -0.495 OA
ENDBRANCH  11  18
ENDBRANCH   1  14
BRANCH   7  19
ATOM     19  C9  UNL     1       2.071  -0.922   0.731  0.00  0.00    +0.053 A 
ATOM     20  C10 UNL     1       2.306   0.396   0.310  0.00  0.00    +0.028 A 
ATOM     21  C11 UNL     1       3.585   0.787  -0.088  0.00  0.00    +0.045 A 
ATOM     22  C12 UNL     1       4.638  -0.146  -0.060  0.00  0.00    +0.121 A 
ATOM     23  N5  UNL     1       4.376  -1.426   0.331  0.00  0.00    -0.238 NA
ATOM     24  C18 UNL     1       3.136  -1.831   0.714  0.00  0.00    +0.136 A 
BRANCH  22  25
ATOM     25  N4  UNL     1       5.978   0.212  -0.469  0.00  0.00    -0.315 N 
ATOM     26  C13 UNL     1       6.868  -0.842  -0.983  0.00  0.00    +0.106 C 
ATOM     27  C14 UNL     1       8.038  -0.247  -1.772  0.00  0.00    +0.019 C 
ATOM     28  C15 UNL     1       8.822   0.774  -0.937  0.00  0.00    +0.003 C 
ATOM     29  C16 UNL     1       7.928   1.672  -0.055  0.00  0.00    +0.019 C 
ATOM     30  C17 UNL     1       6.443   1.609  -0.429  0.00  0.00    +0.106 C 
ENDBRANCH  22  25
ENDBRANCH   7  19
TORSDOF 4
