REMARK  Name = /home/qwerty/github/datacon2025hack/step_04_hit_selection/docking/ligands/lig_365.pdb
REMARK  6 active torsions:
REMARK  status: ('A' for Active; 'I' for Inactive)
REMARK    1  A    between atoms: C1_1  and  C2_2
REMARK    2  A    between atoms: C2_2  and  N1_3
REMARK    3  A    between atoms: N1_3  and  C16_21
REMARK    4  A    between atoms: C3_4  and  C4_6
REMARK    5  A    between atoms: C10_13  and  O2_14
REMARK    6  A    between atoms: N3_15  and  C11_16
REMARK                            x       y       z     vdW  Elec       q    Type
REMARK                         _______ _______ _______ _____ _____    ______ ____
ROOT
ATOM      1  C4  UNL     1       0.847  -1.059   0.194  0.00  0.00    +0.039 A 
ATOM      2  C5  UNL     1      -0.198  -2.004   0.370  0.00  0.00    +0.015 A 
ATOM      3  C6  UNL     1      -1.537  -1.653   0.121  0.00  0.00    +0.029 A 
ATOM      4  C7  UNL     1      -1.800  -0.351  -0.313  0.00  0.00    +0.072 A 
ATOM      5  C8  UNL     1      -0.797   0.558  -0.494  0.00  0.00    +0.093 A 
ATOM      6  C9  UNL     1       0.537   0.244  -0.257  0.00  0.00    +0.043 A 
ATOM      7  N2  UNL     1      -1.292   1.737  -0.913  0.00  0.00    -0.195 NA
ATOM      8  C10 UNL     1      -2.626   1.494  -0.973  0.00  0.00    +0.297 A 
ATOM      9  N3  UNL     1      -2.976   0.228  -0.620  0.00  0.00    -0.291 N 
ENDROOT
BRANCH   9  10
ATOM     10  C11 UNL     1      -4.328  -0.355  -0.551  0.00  0.00    +0.092 C 
ATOM     11  C12 UNL     1      -5.083  -0.218  -1.881  0.00  0.00    +0.025 C 
ATOM     12  C13 UNL     1      -6.346   0.581  -1.583  0.00  0.00    +0.002 C 
ATOM     13  C14 UNL     1      -6.568   0.464  -0.086  0.00  0.00    +0.002 C 
ATOM     14  C15 UNL     1      -5.181   0.333   0.518  0.00  0.00    +0.025 C 
ENDBRANCH   9  10
BRANCH   1  16
ATOM     15  N1  UNL     1       3.241  -0.480   0.849  0.00  0.00    -0.268 N 
ATOM     16  C3  UNL     1       2.251  -1.449   0.453  0.00  0.00    +0.251 C 
ATOM     17  O1  UNL     1       2.592  -2.656   0.313  0.00  0.00    -0.270 OA
BRANCH  15  18
ATOM     18  C16 UNL     1       4.562  -0.572   0.273  0.00  0.00    +0.037 A 
ATOM     19  C17 UNL     1       4.709  -0.681  -1.122  0.00  0.00    +0.023 A 
ATOM     20  C18 UNL     1       5.981  -0.772  -1.695  0.00  0.00    +0.002 A 
ATOM     21  C19 UNL     1       7.117  -0.759  -0.883  0.00  0.00    +0.000 A 
ATOM     22  C20 UNL     1       6.984  -0.657   0.504  0.00  0.00    +0.002 A 
ATOM     23  C21 UNL     1       5.714  -0.565   1.082  0.00  0.00    +0.023 A 
ENDBRANCH  15  18
BRANCH  15  25
ATOM     24  C1  UNL     1       3.391   1.836   1.735  0.00  0.00    +0.025 C 
ATOM     25  C2  UNL     1       2.972   0.391   2.007  0.00  0.00    +0.110 C 
ENDBRANCH  15  25
ENDBRANCH   1  16
BRANCH   8  26
ATOM     26  O2  UNL     1      -3.547   2.464  -1.357  0.00  0.00    -0.480 OA
ATOM     27  H9  UNL     1      -3.241   3.396  -1.610  0.00  0.00    +0.295 HD
ENDBRANCH   8  26
TORSDOF 5
