MODEL 1
REMARK VINA RESULT:    -6.530      0.000      0.000
REMARK INTER + INTRA:          -9.611
REMARK INTER:                  -8.439
REMARK INTRA:                  -1.172
REMARK UNBOUND:                -1.172
REMARK  Name = /home/qwerty/github/datacon2025hack/step_04_hit_selection/docking/ligands/lig_119.pdb
REMARK  10 active torsions:
REMARK  status: ('A' for Active; 'I' for Inactive)
REMARK    1  A    between atoms: C1_1  and  C2_2
REMARK    2  A    between atoms: C2_2  and  C3_3
REMARK    3  A    between atoms: C3_3  and  C4_4
REMARK    4  A    between atoms: C3_3  and  C5_5
REMARK    5  A    between atoms: C14_16  and  C15_17
REMARK    6  A    between atoms: N2_19  and  C16_20
REMARK    7  A    between atoms: C18_22  and  C19_23
REMARK    8  A    between atoms: C20_24  and  O3_25
REMARK    9  A    between atoms: O3_25  and  C21_26
REMARK   10  A    between atoms: C23_28  and  C24_29
REMARK                            x       y       z     vdW  Elec       q    Type
REMARK                         _______ _______ _______ _____ _____    ______ ____
ROOT
ATOM      1  C5  UNL     1      18.067  11.751  34.265  0.00  0.00    +0.219 C 
ATOM      2  O1  UNL     1      17.186  11.329  33.467  0.00  0.00    -0.275 OA
ATOM      3  N1  UNL     1      18.299  11.015  35.494  0.00  0.00    -0.285 N 
ATOM      4  C6  UNL     1      19.659  10.887  36.055  0.00  0.00    +0.144 C 
ATOM      5  C7  UNL     1      19.917   9.487  36.545  0.00  0.00    -0.027 A 
ATOM      6  C8  UNL     1      21.188   8.899  36.434  0.00  0.00    +0.005 A 
ATOM      7  C9  UNL     1      21.411   7.615  36.940  0.00  0.00    +0.000 A 
ATOM      8  C10 UNL     1      20.377   6.920  37.572  0.00  0.00    +0.000 A 
ATOM      9  C11 UNL     1      19.114   7.508  37.702  0.00  0.00    +0.004 A 
ATOM     10  C12 UNL     1      18.881   8.790  37.183  0.00  0.00    -0.040 A 
ATOM     11  C13 UNL     1      17.559   9.474  37.351  0.00  0.00    +0.067 C 
ATOM     12  C14 UNL     1      17.177  10.216  36.052  0.00  0.00    +0.167 C 
ENDROOT
BRANCH  12  13
ATOM     13  C15 UNL     1      15.967  11.082  36.302  0.00  0.00    +0.238 C 
ATOM     14  O2  UNL     1      15.990  11.937  37.230  0.00  0.00    -0.273 OA
ATOM     15  N2  UNL     1      14.804  10.955  35.471  0.00  0.00    -0.284 N 
ATOM     16  H19 UNL     1      14.884  10.434  34.569  0.00  0.00    +0.155 HD
BRANCH  15  17
ATOM     17  C16 UNL     1      13.606  11.706  35.712  0.00  0.00    +0.037 A 
ATOM     18  C17 UNL     1      12.708  11.247  36.683  0.00  0.00    +0.030 A 
ATOM     19  C18 UNL     1      11.514  11.934  36.940  0.00  0.00    -0.007 A 
ATOM     20  C19 UNL     1      10.553  11.414  37.972  0.00  0.00    +0.047 C 
ATOM     21  C20 UNL     1      11.209  13.101  36.216  0.00  0.00    +0.123 A 
ATOM     22  C22 UNL     1      12.124  13.577  35.258  0.00  0.00    +0.051 A 
ATOM     23  C23 UNL     1      13.333  12.904  35.018  0.00  0.00    -0.026 A 
ATOM     24  C24 UNL     1      14.299  13.474  34.015  0.00  0.00    +0.046 C 
BRANCH  21  25
ATOM     25  O3  UNL     1       9.996  13.762  36.476  0.00  0.00    -0.495 OA
ATOM     26  C21 UNL     1       9.386  14.706  35.603  0.00  0.00    +0.277 C 
ENDBRANCH  21  25
ENDBRANCH  15  17
ENDBRANCH  12  13
BRANCH   1  27
ATOM     27  C3  UNL     1      18.819  13.011  33.851  0.00  0.00    +0.072 C 
ATOM     28  C4  UNL     1      17.966  14.262  34.100  0.00  0.00    +0.017 C 
BRANCH  27  30
ATOM     29  C1  UNL     1      19.581  14.426  31.853  0.00  0.00    +0.004 C 
ATOM     30  C2  UNL     1      19.421  13.021  32.427  0.00  0.00    +0.009 C 
ENDBRANCH  27  30
ENDBRANCH   1  27
TORSDOF 5
ENDMDL
MODEL 2
REMARK VINA RESULT:    -6.471      7.271     11.115
REMARK INTER + INTRA:          -9.535
REMARK INTER:                  -8.557
REMARK INTRA:                  -0.978
REMARK UNBOUND:                -1.172
REMARK  Name = /home/qwerty/github/datacon2025hack/step_04_hit_selection/docking/ligands/lig_119.pdb
REMARK  10 active torsions:
REMARK  status: ('A' for Active; 'I' for Inactive)
REMARK    1  A    between atoms: C1_1  and  C2_2
REMARK    2  A    between atoms: C2_2  and  C3_3
REMARK    3  A    between atoms: C3_3  and  C4_4
REMARK    4  A    between atoms: C3_3  and  C5_5
REMARK    5  A    between atoms: C14_16  and  C15_17
REMARK    6  A    between atoms: N2_19  and  C16_20
REMARK    7  A    between atoms: C18_22  and  C19_23
REMARK    8  A    between atoms: C20_24  and  O3_25
REMARK    9  A    between atoms: O3_25  and  C21_26
REMARK   10  A    between atoms: C23_28  and  C24_29
REMARK                            x       y       z     vdW  Elec       q    Type
REMARK                         _______ _______ _______ _____ _____    ______ ____
ROOT
ATOM      1  C5  UNL     1      22.639   6.261  33.175  0.00  0.00    +0.219 C 
ATOM      2  O1  UNL     1      23.360   5.229  33.258  0.00  0.00    -0.275 OA
ATOM      3  N1  UNL     1      21.295   6.214  33.720  0.00  0.00    -0.285 N 
ATOM      4  C6  UNL     1      20.702   7.395  34.377  0.00  0.00    +0.144 C 
ATOM      5  C7  UNL     1      19.965   7.008  35.631  0.00  0.00    -0.027 A 
ATOM      6  C8  UNL     1      19.951   7.847  36.758  0.00  0.00    +0.005 A 
ATOM      7  C9  UNL     1      19.218   7.485  37.891  0.00  0.00    +0.000 A 
ATOM      8  C10 UNL     1      18.486   6.295  37.903  0.00  0.00    +0.000 A 
ATOM      9  C11 UNL     1      18.481   5.463  36.778  0.00  0.00    +0.004 A 
ATOM     10  C12 UNL     1      19.225   5.816  35.643  0.00  0.00    -0.040 A 
ATOM     11  C13 UNL     1      19.201   4.980  34.401  0.00  0.00    +0.067 C 
ATOM     12  C14 UNL     1      20.617   4.892  33.792  0.00  0.00    +0.167 C 
ENDROOT
BRANCH  12  13
ATOM     13  C15 UNL     1      20.544   4.246  32.431  0.00  0.00    +0.238 C 
ATOM     14  O2  UNL     1      19.697   4.655  31.589  0.00  0.00    -0.273 OA
ATOM     15  N2  UNL     1      21.450   3.189  32.084  0.00  0.00    -0.284 N 
ATOM     16  H19 UNL     1      22.292   3.032  32.681  0.00  0.00    +0.155 HD
BRANCH  15  17
ATOM     17  C16 UNL     1      21.374   2.498  30.830  0.00  0.00    +0.037 A 
ATOM     18  C17 UNL     1      21.908   3.111  29.690  0.00  0.00    +0.030 A 
ATOM     19  C18 UNL     1      21.839   2.485  28.438  0.00  0.00    -0.007 A 
ATOM     20  C19 UNL     1      22.399   3.168  27.223  0.00  0.00    +0.047 C 
ATOM     21  C20 UNL     1      21.226   1.224  28.319  0.00  0.00    +0.123 A 
ATOM     22  C22 UNL     1      20.713   0.596  29.469  0.00  0.00    +0.051 A 
ATOM     23  C23 UNL     1      20.804   1.210  30.728  0.00  0.00    -0.026 A 
ATOM     24  C24 UNL     1      20.279   0.481  31.936  0.00  0.00    +0.046 C 
BRANCH  21  25
ATOM     25  O3  UNL     1      21.150   0.625  27.050  0.00  0.00    -0.495 OA
ATOM     26  C21 UNL     1      19.998   0.644  26.214  0.00  0.00    +0.277 C 
ENDBRANCH  21  25
ENDBRANCH  15  17
ENDBRANCH  12  13
BRANCH   1  27
ATOM     27  C3  UNL     1      23.264   7.479  32.505  0.00  0.00    +0.072 C 
ATOM     28  C4  UNL     1      23.043   7.441  30.987  0.00  0.00    +0.017 C 
BRANCH  27  30
ATOM     29  C1  UNL     1      25.159   9.207  32.519  0.00  0.00    +0.004 C 
ATOM     30  C2  UNL     1      24.743   7.775  32.846  0.00  0.00    +0.009 C 
ENDBRANCH  27  30
ENDBRANCH   1  27
TORSDOF 5
ENDMDL
MODEL 3
REMARK VINA RESULT:    -6.456     11.773     13.729
REMARK INTER + INTRA:          -9.515
REMARK INTER:                  -8.712
REMARK INTRA:                  -0.803
REMARK UNBOUND:                -1.172
REMARK  Name = /home/qwerty/github/datacon2025hack/step_04_hit_selection/docking/ligands/lig_119.pdb
REMARK  10 active torsions:
REMARK  status: ('A' for Active; 'I' for Inactive)
REMARK    1  A    between atoms: C1_1  and  C2_2
REMARK    2  A    between atoms: C2_2  and  C3_3
REMARK    3  A    between atoms: C3_3  and  C4_4
REMARK    4  A    between atoms: C3_3  and  C5_5
REMARK    5  A    between atoms: C14_16  and  C15_17
REMARK    6  A    between atoms: N2_19  and  C16_20
REMARK    7  A    between atoms: C18_22  and  C19_23
REMARK    8  A    between atoms: C20_24  and  O3_25
REMARK    9  A    between atoms: O3_25  and  C21_26
REMARK   10  A    between atoms: C23_28  and  C24_29
REMARK                            x       y       z     vdW  Elec       q    Type
REMARK                         _______ _______ _______ _____ _____    ______ ____
ROOT
ATOM      1  C5  UNL     1       9.133   9.799  22.887  0.00  0.00    +0.219 C 
ATOM      2  O1  UNL     1       8.125  10.495  23.189  0.00  0.00    -0.275 OA
ATOM      3  N1  UNL     1       9.249   8.465  23.448  0.00  0.00    -0.285 N 
ATOM      4  C6  UNL     1       9.829   7.360  22.660  0.00  0.00    +0.144 C 
ATOM      5  C7  UNL     1       9.033   6.093  22.831  0.00  0.00    -0.027 A 
ATOM      6  C8  UNL     1       8.867   5.189  21.769  0.00  0.00    +0.005 A 
ATOM      7  C9  UNL     1       8.164   3.997  21.969  0.00  0.00    +0.000 A 
ATOM      8  C10 UNL     1       7.638   3.695  23.228  0.00  0.00    +0.000 A 
ATOM      9  C11 UNL     1       7.815   4.584  24.293  0.00  0.00    +0.004 A 
ATOM     10  C12 UNL     1       8.508   5.787  24.094  0.00  0.00    -0.040 A 
ATOM     11  C13 UNL     1       8.765   6.738  25.223  0.00  0.00    +0.067 C 
ATOM     12  C14 UNL     1       8.575   8.193  24.745  0.00  0.00    +0.167 C 
ENDROOT
BRANCH  12  13
ATOM     13  C15 UNL     1       9.054   9.143  25.814  0.00  0.00    +0.238 C 
ATOM     14  O2  UNL     1      10.228   9.037  26.266  0.00  0.00    -0.273 OA
ATOM     15  N2  UNL     1       8.190  10.181  26.298  0.00  0.00    -0.284 N 
ATOM     16  H19 UNL     1       7.329  10.414  25.753  0.00  0.00    +0.155 HD
BRANCH  15  17
ATOM     17  C16 UNL     1       8.574  11.064  27.361  0.00  0.00    +0.037 A 
ATOM     18  C17 UNL     1       9.429  12.134  27.070  0.00  0.00    +0.030 A 
ATOM     19  C18 UNL     1       9.851  13.011  28.079  0.00  0.00    -0.007 A 
ATOM     20  C19 UNL     1      10.786  14.141  27.751  0.00  0.00    +0.047 C 
ATOM     21  C20 UNL     1       9.413  12.819  29.402  0.00  0.00    +0.123 A 
ATOM     22  C22 UNL     1       8.532  11.759  29.689  0.00  0.00    +0.051 A 
ATOM     23  C23 UNL     1       8.088  10.895  28.675  0.00  0.00    -0.026 A 
ATOM     24  C24 UNL     1       7.114   9.801  29.023  0.00  0.00    +0.046 C 
BRANCH  21  25
ATOM     25  O3  UNL     1       9.865  13.699  30.400  0.00  0.00    -0.495 OA
ATOM     26  C21 UNL     1      10.940  13.426  31.292  0.00  0.00    +0.277 C 
ENDBRANCH  21  25
ENDBRANCH  15  17
ENDBRANCH  12  13
BRANCH   1  27
ATOM     27  C3  UNL     1      10.145  10.435  21.941  0.00  0.00    +0.072 C 
ATOM     28  C4  UNL     1       9.846  10.054  20.485  0.00  0.00    +0.017 C 
BRANCH  27  30
ATOM     29  C1  UNL     1      12.549  10.319  21.057  0.00  0.00    +0.004 C 
ATOM     30  C2  UNL     1      11.638  10.220  22.278  0.00  0.00    +0.009 C 
ENDBRANCH  27  30
ENDBRANCH   1  27
TORSDOF 5
ENDMDL
MODEL 4
REMARK VINA RESULT:    -6.393     16.259     17.615
REMARK INTER + INTRA:          -9.434
REMARK INTER:                  -8.416
REMARK INTRA:                  -1.017
REMARK UNBOUND:                -1.172
REMARK  Name = /home/qwerty/github/datacon2025hack/step_04_hit_selection/docking/ligands/lig_119.pdb
REMARK  10 active torsions:
REMARK  status: ('A' for Active; 'I' for Inactive)
REMARK    1  A    between atoms: C1_1  and  C2_2
REMARK    2  A    between atoms: C2_2  and  C3_3
REMARK    3  A    between atoms: C3_3  and  C4_4
REMARK    4  A    between atoms: C3_3  and  C5_5
REMARK    5  A    between atoms: C14_16  and  C15_17
REMARK    6  A    between atoms: N2_19  and  C16_20
REMARK    7  A    between atoms: C18_22  and  C19_23
REMARK    8  A    between atoms: C20_24  and  O3_25
REMARK    9  A    between atoms: O3_25  and  C21_26
REMARK   10  A    between atoms: C23_28  and  C24_29
REMARK                            x       y       z     vdW  Elec       q    Type
REMARK                         _______ _______ _______ _____ _____    ______ ____
ROOT
ATOM      1  C5  UNL     1      21.602   7.652  20.243  0.00  0.00    +0.219 C 
ATOM      2  O1  UNL     1      21.256   7.289  21.401  0.00  0.00    -0.275 OA
ATOM      3  N1  UNL     1      20.809   8.664  19.569  0.00  0.00    -0.285 N 
ATOM      4  C6  UNL     1      21.448   9.673  18.702  0.00  0.00    +0.144 C 
ATOM      5  C7  UNL     1      20.862  11.040  18.932  0.00  0.00    -0.027 A 
ATOM      6  C8  UNL     1      21.656  12.197  18.856  0.00  0.00    +0.005 A 
ATOM      7  C9  UNL     1      21.076  13.457  19.027  0.00  0.00    +0.000 A 
ATOM      8  C10 UNL     1      19.702  13.571  19.259  0.00  0.00    +0.000 A 
ATOM      9  C11 UNL     1      18.903  12.425  19.318  0.00  0.00    +0.004 A 
ATOM     10  C12 UNL     1      19.483  11.157  19.160  0.00  0.00    -0.040 A 
ATOM     11  C13 UNL     1      18.653   9.911  19.163  0.00  0.00    +0.067 C 
ATOM     12  C14 UNL     1      19.376   8.792  19.943  0.00  0.00    +0.167 C 
ENDROOT
BRANCH  12  13
ATOM     13  C15 UNL     1      18.646   7.487  19.748  0.00  0.00    +0.238 C 
ATOM     14  O2  UNL     1      18.674   6.916  18.623  0.00  0.00    -0.273 OA
ATOM     15  N2  UNL     1      17.946   6.880  20.844  0.00  0.00    -0.284 N 
ATOM     16  H19 UNL     1      18.135   7.222  21.813  0.00  0.00    +0.155 HD
BRANCH  15  17
ATOM     17  C16 UNL     1      17.182   5.676  20.691  0.00  0.00    +0.037 A 
ATOM     18  C17 UNL     1      15.938   5.746  20.053  0.00  0.00    +0.030 A 
ATOM     19  C18 UNL     1      15.143   4.601  19.898  0.00  0.00    -0.007 A 
ATOM     20  C19 UNL     1      13.801   4.701  19.230  0.00  0.00    +0.047 C 
ATOM     21  C20 UNL     1      15.598   3.363  20.387  0.00  0.00    +0.123 A 
ATOM     22  C22 UNL     1      16.861   3.288  21.005  0.00  0.00    +0.051 A 
ATOM     23  C23 UNL     1      17.669   4.429  21.138  0.00  0.00    -0.026 A 
ATOM     24  C24 UNL     1      19.029   4.291  21.767  0.00  0.00    +0.046 C 
BRANCH  21  25
ATOM     25  O3  UNL     1      14.776   2.233  20.240  0.00  0.00    -0.495 OA
ATOM     26  C21 UNL     1      15.235   0.946  19.842  0.00  0.00    +0.277 C 
ENDBRANCH  21  25
ENDBRANCH  15  17
ENDBRANCH  12  13
BRANCH   1  27
ATOM     27  C3  UNL     1      22.842   6.987  19.659  0.00  0.00    +0.072 C 
ATOM     28  C4  UNL     1      22.472   5.689  18.930  0.00  0.00    +0.017 C 
BRANCH  27  30
ATOM     29  C1  UNL     1      24.824   8.038  20.901  0.00  0.00    +0.004 C 
ATOM     30  C2  UNL     1      24.029   6.765  20.625  0.00  0.00    +0.009 C 
ENDBRANCH  27  30
ENDBRANCH   1  27
TORSDOF 5
ENDMDL
MODEL 5
REMARK VINA RESULT:    -6.172     15.444     16.819
REMARK INTER + INTRA:          -9.148
REMARK INTER:                  -8.081
REMARK INTRA:                  -1.067
REMARK UNBOUND:                -1.172
REMARK  Name = /home/qwerty/github/datacon2025hack/step_04_hit_selection/docking/ligands/lig_119.pdb
REMARK  10 active torsions:
REMARK  status: ('A' for Active; 'I' for Inactive)
REMARK    1  A    between atoms: C1_1  and  C2_2
REMARK    2  A    between atoms: C2_2  and  C3_3
REMARK    3  A    between atoms: C3_3  and  C4_4
REMARK    4  A    between atoms: C3_3  and  C5_5
REMARK    5  A    between atoms: C14_16  and  C15_17
REMARK    6  A    between atoms: N2_19  and  C16_20
REMARK    7  A    between atoms: C18_22  and  C19_23
REMARK    8  A    between atoms: C20_24  and  O3_25
REMARK    9  A    between atoms: O3_25  and  C21_26
REMARK   10  A    between atoms: C23_28  and  C24_29
REMARK                            x       y       z     vdW  Elec       q    Type
REMARK                         _______ _______ _______ _____ _____    ______ ____
ROOT
ATOM      1  C5  UNL     1      10.780   3.541  22.809  0.00  0.00    +0.219 C 
ATOM      2  O1  UNL     1      11.002   4.356  23.746  0.00  0.00    -0.275 OA
ATOM      3  N1  UNL     1      11.654   3.562  21.650  0.00  0.00    -0.285 N 
ATOM      4  C6  UNL     1      12.018   2.313  20.953  0.00  0.00    +0.144 C 
ATOM      5  C7  UNL     1      13.479   2.295  20.594  0.00  0.00    -0.027 A 
ATOM      6  C8  UNL     1      14.222   1.103  20.621  0.00  0.00    +0.005 A 
ATOM      7  C9  UNL     1      15.566   1.107  20.237  0.00  0.00    +0.000 A 
ATOM      8  C10 UNL     1      16.170   2.292  19.810  0.00  0.00    +0.000 A 
ATOM      9  C11 UNL     1      15.432   3.479  19.763  0.00  0.00    +0.004 A 
ATOM     10  C12 UNL     1      14.086   3.483  20.161  0.00  0.00    -0.040 A 
ATOM     11  C13 UNL     1      13.248   4.721  20.074  0.00  0.00    +0.067 C 
ATOM     12  C14 UNL     1      12.342   4.838  21.318  0.00  0.00    +0.167 C 
ENDROOT
BRANCH  12  13
ATOM     13  C15 UNL     1      11.347   5.954  21.116  0.00  0.00    +0.238 C 
ATOM     14  O2  UNL     1      10.562   5.922  20.129  0.00  0.00    -0.273 OA
ATOM     15  N2  UNL     1      11.273   7.034  22.058  0.00  0.00    -0.284 N 
ATOM     16  H19 UNL     1      11.741   6.926  22.986  0.00  0.00    +0.155 HD
BRANCH  15  17
ATOM     17  C16 UNL     1      10.393   8.150  21.873  0.00  0.00    +0.037 A 
ATOM     18  C17 UNL     1      10.644   9.037  20.820  0.00  0.00    +0.030 A 
ATOM     19  C18 UNL     1       9.825  10.156  20.610  0.00  0.00    -0.007 A 
ATOM     20  C19 UNL     1      10.123  11.108  19.487  0.00  0.00    +0.047 C 
ATOM     21  C20 UNL     1       8.734  10.395  21.467  0.00  0.00    +0.123 A 
ATOM     22  C22 UNL     1       8.467   9.488  22.511  0.00  0.00    +0.051 A 
ATOM     23  C23 UNL     1       9.270   8.354  22.705  0.00  0.00    -0.026 A 
ATOM     24  C24 UNL     1       8.919   7.391  23.808  0.00  0.00    +0.046 C 
BRANCH  21  25
ATOM     25  O3  UNL     1       7.940  11.533  21.251  0.00  0.00    -0.495 OA
ATOM     26  C21 UNL     1       6.850  11.927  22.076  0.00  0.00    +0.277 C 
ENDBRANCH  21  25
ENDBRANCH  15  17
ENDBRANCH  12  13
BRANCH   1  27
ATOM     27  C3  UNL     1       9.602   2.593  22.992  0.00  0.00    +0.072 C 
ATOM     28  C4  UNL     1       8.312   3.374  23.276  0.00  0.00    +0.017 C 
BRANCH  27  30
ATOM     29  C1  UNL     1      11.248   1.022  24.175  0.00  0.00    +0.004 C 
ATOM     30  C2  UNL     1       9.790   1.441  24.006  0.00  0.00    +0.009 C 
ENDBRANCH  27  30
ENDBRANCH   1  27
TORSDOF 5
ENDMDL
MODEL 6
REMARK VINA RESULT:    -6.040     15.436     18.062
REMARK INTER + INTRA:          -8.978
REMARK INTER:                  -7.751
REMARK INTRA:                  -1.227
REMARK UNBOUND:                -1.172
REMARK  Name = /home/qwerty/github/datacon2025hack/step_04_hit_selection/docking/ligands/lig_119.pdb
REMARK  10 active torsions:
REMARK  status: ('A' for Active; 'I' for Inactive)
REMARK    1  A    between atoms: C1_1  and  C2_2
REMARK    2  A    between atoms: C2_2  and  C3_3
REMARK    3  A    between atoms: C3_3  and  C4_4
REMARK    4  A    between atoms: C3_3  and  C5_5
REMARK    5  A    between atoms: C14_16  and  C15_17
REMARK    6  A    between atoms: N2_19  and  C16_20
REMARK    7  A    between atoms: C18_22  and  C19_23
REMARK    8  A    between atoms: C20_24  and  O3_25
REMARK    9  A    between atoms: O3_25  and  C21_26
REMARK   10  A    between atoms: C23_28  and  C24_29
REMARK                            x       y       z     vdW  Elec       q    Type
REMARK                         _______ _______ _______ _____ _____    ______ ____
ROOT
ATOM      1  C5  UNL     1       9.265   5.109  22.889  0.00  0.00    +0.219 C 
ATOM      2  O1  UNL     1       9.019   4.188  22.062  0.00  0.00    -0.275 OA
ATOM      3  N1  UNL     1      10.050   6.247  22.446  0.00  0.00    -0.285 N 
ATOM      4  C6  UNL     1       9.761   7.606  22.943  0.00  0.00    +0.144 C 
ATOM      5  C7  UNL     1       9.823   8.618  21.830  0.00  0.00    -0.027 A 
ATOM      6  C8  UNL     1       8.958   9.724  21.802  0.00  0.00    +0.005 A 
ATOM      7  C9  UNL     1       9.069  10.674  20.782  0.00  0.00    +0.000 A 
ATOM      8  C10 UNL     1      10.051  10.535  19.798  0.00  0.00    +0.000 A 
ATOM      9  C11 UNL     1      10.927   9.445  19.831  0.00  0.00    +0.004 A 
ATOM     10  C12 UNL     1      10.810   8.482  20.844  0.00  0.00    -0.040 A 
ATOM     11  C13 UNL     1      11.764   7.331  20.944  0.00  0.00    +0.067 C 
ATOM     12  C14 UNL     1      11.003   6.043  21.324  0.00  0.00    +0.167 C 
ENDROOT
BRANCH  12  13
ATOM     13  C15 UNL     1      11.991   4.948  21.643  0.00  0.00    +0.238 C 
ATOM     14  O2  UNL     1      12.864   5.134  22.536  0.00  0.00    -0.273 OA
ATOM     15  N2  UNL     1      11.922   3.690  20.956  0.00  0.00    -0.284 N 
ATOM     16  H19 UNL     1      11.061   3.460  20.412  0.00  0.00    +0.155 HD
BRANCH  15  17
ATOM     17  C16 UNL     1      12.880   2.646  21.176  0.00  0.00    +0.037 A 
ATOM     18  C17 UNL     1      14.130   2.738  20.554  0.00  0.00    +0.030 A 
ATOM     19  C18 UNL     1      15.092   1.732  20.720  0.00  0.00    -0.007 A 
ATOM     20  C19 UNL     1      16.421   1.839  20.028  0.00  0.00    +0.047 C 
ATOM     21  C20 UNL     1      14.802   0.612  21.522  0.00  0.00    +0.123 A 
ATOM     22  C22 UNL     1      13.554   0.532  22.168  0.00  0.00    +0.051 A 
ATOM     23  C23 UNL     1      12.600   1.552  22.024  0.00  0.00    -0.026 A 
ATOM     24  C24 UNL     1      11.296   1.443  22.768  0.00  0.00    +0.046 C 
BRANCH  21  25
ATOM     25  O3  UNL     1      15.774  -0.394  21.658  0.00  0.00    -0.495 OA
ATOM     26  C21 UNL     1      15.856  -1.296  22.755  0.00  0.00    +0.277 C 
ENDBRANCH  21  25
ENDBRANCH  15  17
ENDBRANCH  12  13
BRANCH   1  27
ATOM     27  C3  UNL     1       8.699   4.937  24.293  0.00  0.00    +0.072 C 
ATOM     28  C4  UNL     1       9.824   4.902  25.335  0.00  0.00    +0.017 C 
BRANCH  27  30
ATOM     29  C1  UNL     1       8.297   2.624  25.324  0.00  0.00    +0.004 C 
ATOM     30  C2  UNL     1       7.709   3.768  24.503  0.00  0.00    +0.009 C 
ENDBRANCH  27  30
ENDBRANCH   1  27
TORSDOF 5
ENDMDL
MODEL 7
REMARK VINA RESULT:    -5.926     15.846     16.588
REMARK INTER + INTRA:          -8.830
REMARK INTER:                  -7.749
REMARK INTRA:                  -1.082
REMARK UNBOUND:                -1.172
REMARK  Name = /home/qwerty/github/datacon2025hack/step_04_hit_selection/docking/ligands/lig_119.pdb
REMARK  10 active torsions:
REMARK  status: ('A' for Active; 'I' for Inactive)
REMARK    1  A    between atoms: C1_1  and  C2_2
REMARK    2  A    between atoms: C2_2  and  C3_3
REMARK    3  A    between atoms: C3_3  and  C4_4
REMARK    4  A    between atoms: C3_3  and  C5_5
REMARK    5  A    between atoms: C14_16  and  C15_17
REMARK    6  A    between atoms: N2_19  and  C16_20
REMARK    7  A    between atoms: C18_22  and  C19_23
REMARK    8  A    between atoms: C20_24  and  O3_25
REMARK    9  A    between atoms: O3_25  and  C21_26
REMARK   10  A    between atoms: C23_28  and  C24_29
REMARK                            x       y       z     vdW  Elec       q    Type
REMARK                         _______ _______ _______ _____ _____    ______ ____
ROOT
ATOM      1  C5  UNL     1      16.649   2.574  21.743  0.00  0.00    +0.219 C 
ATOM      2  O1  UNL     1      16.635   2.388  20.495  0.00  0.00    -0.275 OA
ATOM      3  N1  UNL     1      16.152   1.520  22.608  0.00  0.00    -0.285 N 
ATOM      4  C6  UNL     1      16.782   1.254  23.916  0.00  0.00    +0.144 C 
ATOM      5  C7  UNL     1      16.933  -0.224  24.158  0.00  0.00    -0.027 A 
ATOM      6  C8  UNL     1      18.041  -0.740  24.850  0.00  0.00    +0.005 A 
ATOM      7  C9  UNL     1      18.132  -2.112  25.102  0.00  0.00    +0.000 A 
ATOM      8  C10 UNL     1      17.114  -2.972  24.681  0.00  0.00    +0.000 A 
ATOM      9  C11 UNL     1      15.999  -2.462  24.007  0.00  0.00    +0.004 A 
ATOM     10  C12 UNL     1      15.910  -1.088  23.740  0.00  0.00    -0.040 A 
ATOM     11  C13 UNL     1      14.708  -0.497  23.070  0.00  0.00    +0.067 C 
ATOM     12  C14 UNL     1      15.142   0.581  22.054  0.00  0.00    +0.167 C 
ENDROOT
BRANCH  12  13
ATOM     13  C15 UNL     1      13.928   1.323  21.554  0.00  0.00    +0.238 C 
ATOM     14  O2  UNL     1      13.585   1.222  20.344  0.00  0.00    -0.273 OA
ATOM     15  N2  UNL     1      13.147   2.120  22.457  0.00  0.00    -0.284 N 
ATOM     16  H19 UNL     1      13.287   2.000  23.485  0.00  0.00    +0.155 HD
BRANCH  15  17
ATOM     17  C16 UNL     1      12.026   2.898  22.016  0.00  0.00    +0.037 A 
ATOM     18  C17 UNL     1      12.261   4.163  21.463  0.00  0.00    +0.030 A 
ATOM     19  C18 UNL     1      11.197   4.970  21.038  0.00  0.00    -0.007 A 
ATOM     20  C19 UNL     1      11.468   6.333  20.466  0.00  0.00    +0.047 C 
ATOM     21  C20 UNL     1       9.874   4.509  21.164  0.00  0.00    +0.123 A 
ATOM     22  C22 UNL     1       9.639   3.226  21.696  0.00  0.00    +0.051 A 
ATOM     23  C23 UNL     1      10.705   2.406  22.099  0.00  0.00    -0.026 A 
ATOM     24  C24 UNL     1      10.408   1.026  22.622  0.00  0.00    +0.046 C 
BRANCH  21  25
ATOM     25  O3  UNL     1       8.822   5.343  20.750  0.00  0.00    -0.495 OA
ATOM     26  C21 UNL     1       7.886   5.961  21.627  0.00  0.00    +0.277 C 
ENDBRANCH  21  25
ENDBRANCH  15  17
ENDBRANCH  12  13
BRANCH   1  27
ATOM     27  C3  UNL     1      17.202   3.909  22.228  0.00  0.00    +0.072 C 
ATOM     28  C4  UNL     1      16.093   4.968  22.294  0.00  0.00    +0.017 C 
BRANCH  27  30
ATOM     29  C1  UNL     1      19.757   4.117  22.199  0.00  0.00    +0.004 C 
ATOM     30  C2  UNL     1      18.447   4.452  21.491  0.00  0.00    +0.009 C 
ENDBRANCH  27  30
ENDBRANCH   1  27
TORSDOF 5
ENDMDL
MODEL 8
REMARK VINA RESULT:    -5.906      2.936      5.692
REMARK INTER + INTRA:          -8.805
REMARK INTER:                  -7.516
REMARK INTRA:                  -1.289
REMARK UNBOUND:                -1.172
REMARK  Name = /home/qwerty/github/datacon2025hack/step_04_hit_selection/docking/ligands/lig_119.pdb
REMARK  10 active torsions:
REMARK  status: ('A' for Active; 'I' for Inactive)
REMARK    1  A    between atoms: C1_1  and  C2_2
REMARK    2  A    between atoms: C2_2  and  C3_3
REMARK    3  A    between atoms: C3_3  and  C4_4
REMARK    4  A    between atoms: C3_3  and  C5_5
REMARK    5  A    between atoms: C14_16  and  C15_17
REMARK    6  A    between atoms: N2_19  and  C16_20
REMARK    7  A    between atoms: C18_22  and  C19_23
REMARK    8  A    between atoms: C20_24  and  O3_25
REMARK    9  A    between atoms: O3_25  and  C21_26
REMARK   10  A    between atoms: C23_28  and  C24_29
REMARK                            x       y       z     vdW  Elec       q    Type
REMARK                         _______ _______ _______ _____ _____    ______ ____
ROOT
ATOM      1  C5  UNL     1      20.972   8.458  36.409  0.00  0.00    +0.219 C 
ATOM      2  O1  UNL     1      20.884   9.484  37.138  0.00  0.00    -0.275 OA
ATOM      3  N1  UNL     1      21.160   8.637  34.981  0.00  0.00    -0.285 N 
ATOM      4  C6  UNL     1      22.007   7.708  34.207  0.00  0.00    +0.144 C 
ATOM      5  C7  UNL     1      22.878   8.451  33.229  0.00  0.00    -0.027 A 
ATOM      6  C8  UNL     1      24.179   8.011  32.932  0.00  0.00    +0.005 A 
ATOM      7  C9  UNL     1      24.948   8.692  31.984  0.00  0.00    +0.000 A 
ATOM      8  C10 UNL     1      24.421   9.803  31.320  0.00  0.00    +0.000 A 
ATOM      9  C11 UNL     1      23.121  10.235  31.599  0.00  0.00    +0.004 A 
ATOM     10  C12 UNL     1      22.350   9.563  32.559  0.00  0.00    -0.040 A 
ATOM     11  C13 UNL     1      20.935   9.962  32.845  0.00  0.00    +0.067 C 
ATOM     12  C14 UNL     1      20.661   9.893  34.362  0.00  0.00    +0.167 C 
ENDROOT
BRANCH  12  13
ATOM     13  C15 UNL     1      19.185  10.074  34.618  0.00  0.00    +0.238 C 
ATOM     14  O2  UNL     1      18.355   9.295  34.073  0.00  0.00    -0.273 OA
ATOM     15  N2  UNL     1      18.726  11.108  35.500  0.00  0.00    -0.284 N 
ATOM     16  H19 UNL     1      19.417  11.576  36.130  0.00  0.00    +0.155 HD
BRANCH  15  17
ATOM     17  C16 UNL     1      17.333  11.363  35.721  0.00  0.00    +0.037 A 
ATOM     18  C17 UNL     1      16.625  12.105  34.768  0.00  0.00    +0.030 A 
ATOM     19  C18 UNL     1      15.266  12.399  34.949  0.00  0.00    -0.007 A 
ATOM     20  C19 UNL     1      14.530  13.215  33.925  0.00  0.00    +0.047 C 
ATOM     21  C20 UNL     1      14.599  11.943  36.101  0.00  0.00    +0.123 A 
ATOM     22  C22 UNL     1      15.304  11.174  37.046  0.00  0.00    +0.051 A 
ATOM     23  C23 UNL     1      16.659  10.857  36.854  0.00  0.00    -0.026 A 
ATOM     24  C24 UNL     1      17.359   9.997  37.871  0.00  0.00    +0.046 C 
BRANCH  21  25
ATOM     25  O3  UNL     1      13.243  12.267  36.271  0.00  0.00    -0.495 OA
ATOM     26  C21 UNL     1      12.268  11.397  36.837  0.00  0.00    +0.277 C 
ENDBRANCH  21  25
ENDBRANCH  15  17
ENDBRANCH  12  13
BRANCH   1  27
ATOM     27  C3  UNL     1      20.876   7.109  37.111  0.00  0.00    +0.072 C 
ATOM     28  C4  UNL     1      19.480   6.905  37.714  0.00  0.00    +0.017 C 
BRANCH  27  30
ATOM     29  C1  UNL     1      23.353   6.575  37.508  0.00  0.00    +0.004 C 
ATOM     30  C2  UNL     1      21.981   6.785  38.143  0.00  0.00    +0.009 C 
ENDBRANCH  27  30
ENDBRANCH   1  27
TORSDOF 5
ENDMDL
MODEL 9
REMARK VINA RESULT:    -4.592     13.576     16.482
REMARK INTER + INTRA:          -7.107
REMARK INTER:                  -6.124
REMARK INTRA:                  -0.983
REMARK UNBOUND:                -1.172
REMARK  Name = /home/qwerty/github/datacon2025hack/step_04_hit_selection/docking/ligands/lig_119.pdb
REMARK  10 active torsions:
REMARK  status: ('A' for Active; 'I' for Inactive)
REMARK    1  A    between atoms: C1_1  and  C2_2
REMARK    2  A    between atoms: C2_2  and  C3_3
REMARK    3  A    between atoms: C3_3  and  C4_4
REMARK    4  A    between atoms: C3_3  and  C5_5
REMARK    5  A    between atoms: C14_16  and  C15_17
REMARK    6  A    between atoms: N2_19  and  C16_20
REMARK    7  A    between atoms: C18_22  and  C19_23
REMARK    8  A    between atoms: C20_24  and  O3_25
REMARK    9  A    between atoms: O3_25  and  C21_26
REMARK   10  A    between atoms: C23_28  and  C24_29
REMARK                            x       y       z     vdW  Elec       q    Type
REMARK                         _______ _______ _______ _____ _____    ______ ____
ROOT
ATOM      1  C5  UNL     1      17.051  -0.372  24.774  0.00  0.00    +0.219 C 
ATOM      2  O1  UNL     1      18.151  -0.987  24.708  0.00  0.00    -0.275 OA
ATOM      3  N1  UNL     1      16.951   0.939  24.159  0.00  0.00    -0.285 N 
ATOM      4  C6  UNL     1      15.706   1.371  23.495  0.00  0.00    +0.144 C 
ATOM      5  C7  UNL     1      15.998   2.076  22.197  0.00  0.00    -0.027 A 
ATOM      6  C8  UNL     1      15.146   1.943  21.088  0.00  0.00    +0.005 A 
ATOM      7  C9  UNL     1      15.415   2.647  19.911  0.00  0.00    +0.000 A 
ATOM      8  C10 UNL     1      16.522   3.497  19.838  0.00  0.00    +0.000 A 
ATOM      9  C11 UNL     1      17.364   3.647  20.945  0.00  0.00    +0.004 A 
ATOM     10  C12 UNL     1      17.106   2.932  22.124  0.00  0.00    -0.040 A 
ATOM     11  C13 UNL     1      17.952   3.109  23.347  0.00  0.00    +0.067 C 
ATOM     12  C14 UNL     1      18.194   1.744  24.026  0.00  0.00    +0.167 C 
ENDROOT
BRANCH  12  13
ATOM     13  C15 UNL     1      18.848   1.956  25.369  0.00  0.00    +0.238 C 
ATOM     14  O2  UNL     1      18.348   2.777  26.187  0.00  0.00    -0.273 OA
ATOM     15  N2  UNL     1      20.020   1.208  25.728  0.00  0.00    -0.284 N 
ATOM     16  H19 UNL     1      20.275   0.369  25.161  0.00  0.00    +0.155 HD
BRANCH  15  17
ATOM     17  C16 UNL     1      20.716   1.424  26.963  0.00  0.00    +0.037 A 
ATOM     18  C17 UNL     1      20.261   0.773  28.115  0.00  0.00    +0.030 A 
ATOM     19  C18 UNL     1      20.895   0.968  29.350  0.00  0.00    -0.007 A 
ATOM     20  C19 UNL     1      20.378   0.276  30.579  0.00  0.00    +0.047 C 
ATOM     21  C20 UNL     1      22.003   1.830  29.438  0.00  0.00    +0.123 A 
ATOM     22  C22 UNL     1      22.477   2.465  28.275  0.00  0.00    +0.051 A 
ATOM     23  C23 UNL     1      21.860   2.250  27.032  0.00  0.00    -0.026 A 
ATOM     24  C24 UNL     1      22.428   2.917  25.809  0.00  0.00    +0.046 C 
BRANCH  21  25
ATOM     25  O3  UNL     1      22.610   2.027  30.690  0.00  0.00    -0.495 OA
ATOM     26  C21 UNL     1      22.270   3.068  31.599  0.00  0.00    +0.277 C 
ENDBRANCH  21  25
ENDBRANCH  15  17
ENDBRANCH  12  13
BRANCH   1  27
ATOM     27  C3  UNL     1      15.913  -1.082  25.498  0.00  0.00    +0.072 C 
ATOM     28  C4  UNL     1      16.016  -0.871  27.015  0.00  0.00    +0.017 C 
BRANCH  27  30
ATOM     29  C1  UNL     1      14.313  -3.085  25.542  0.00  0.00    +0.004 C 
ATOM     30  C2  UNL     1      15.699  -2.574  25.157  0.00  0.00    +0.009 C 
ENDBRANCH  27  30
ENDBRANCH   1  27
TORSDOF 5
ENDMDL
