MODEL 1
REMARK VINA RESULT:    -6.947      0.000      0.000
REMARK INTER + INTRA:          -8.748
REMARK INTER:                  -8.369
REMARK INTRA:                  -0.379
REMARK UNBOUND:                -0.379
REMARK  Name = /home/qwerty/github/datacon2025hack/step_04_hit_selection/docking/ligands/lig_698.pdb
REMARK  5 active torsions:
REMARK  status: ('A' for Active; 'I' for Inactive)
REMARK    1  A    between atoms: C1_1  and  O1_2
REMARK    2  A    between atoms: O1_2  and  C2_3
REMARK    3  A    between atoms: C10_11  and  N1_12
REMARK    4  A    between atoms: C14_18  and  C15_19
REMARK    5  A    between atoms: C18_22  and  O3_23
REMARK                            x       y       z     vdW  Elec       q    Type
REMARK                         _______ _______ _______ _____ _____    ______ ____
ROOT
ATOM      1  N1  UNL     1      13.640  14.469  28.603  0.00  0.00    -0.296 N 
ATOM      2  C11 UNL     1      14.325  15.105  27.510  0.00  0.00    +0.302 C 
ATOM      3  O2  UNL     1      13.862  15.009  26.340  0.00  0.00    -0.253 OA
ATOM      4  N2  UNL     1      15.535  15.850  27.730  0.00  0.00    -0.285 N 
ATOM      5  C12 UNL     1      16.280  16.472  26.648  0.00  0.00    +0.110 C 
ATOM      6  C13 UNL     1      17.575  16.980  27.272  0.00  0.00    +0.029 C 
ATOM      7  C14 UNL     1      17.330  16.992  28.787  0.00  0.00    +0.038 C 
ATOM      8  C21 UNL     1      16.155  16.040  29.032  0.00  0.00    +0.117 C 
ATOM      9  H12 UNL     1      13.996  14.604  29.574  0.00  0.00    +0.151 HD
ENDROOT
BRANCH   1  18
ATOM     10  C2  UNL     1       8.407  10.701  29.678  0.00  0.00    +0.120 A 
ATOM     11  C3  UNL     1       9.479  10.236  30.442  0.00  0.00    +0.046 A 
ATOM     12  C4  UNL     1      10.716  10.880  30.394  0.00  0.00    +0.007 A 
ATOM     13  C5  UNL     1      10.906  12.001  29.572  0.00  0.00    -0.042 A 
ATOM     14  C6  UNL     1       9.819  12.500  28.816  0.00  0.00    -0.041 A 
ATOM     15  C7  UNL     1       8.583  11.834  28.860  0.00  0.00    +0.049 A 
ATOM     16  C8  UNL     1       9.981  13.673  27.877  0.00  0.00    +0.037 C 
ATOM     17  C9  UNL     1      11.207  14.530  28.212  0.00  0.00    +0.027 C 
ATOM     18  C10 UNL     1      12.445  13.642  28.397  0.00  0.00    +0.079 C 
ATOM     19  C22 UNL     1      12.240  12.709  29.601  0.00  0.00    +0.057 C 
BRANCH  10  21
ATOM     20  C1  UNL     1       7.015   8.754  30.401  0.00  0.00    +0.277 C 
ATOM     21  O1  UNL     1       7.187  10.013  29.757  0.00  0.00    -0.495 OA
ENDBRANCH  10  21
ENDBRANCH   1  18
BRANCH   7  22
ATOM     22  C15 UNL     1      18.567  16.635  29.590  0.00  0.00    -0.043 A 
ATOM     23  C16 UNL     1      18.487  15.794  30.718  0.00  0.00    +0.007 A 
ATOM     24  C17 UNL     1      19.638  15.460  31.437  0.00  0.00    +0.045 A 
ATOM     25  C18 UNL     1      20.885  15.964  31.043  0.00  0.00    +0.117 A 
ATOM     26  C19 UNL     1      20.972  16.803  29.929  0.00  0.00    +0.045 A 
ATOM     27  C20 UNL     1      19.823  17.136  29.205  0.00  0.00    +0.007 A 
BRANCH  25  28
ATOM     28  O3  UNL     1      22.040  15.634  31.749  0.00  0.00    -0.507 OA
ATOM     29  H20 UNL     1      22.130  14.746  32.229  0.00  0.00    +0.292 HD
ENDBRANCH  25  28
ENDBRANCH   7  22
TORSDOF 4
ENDMDL
MODEL 2
REMARK VINA RESULT:    -6.830     12.249     13.750
REMARK INTER + INTRA:          -8.607
REMARK INTER:                  -8.157
REMARK INTRA:                  -0.450
REMARK UNBOUND:                -0.379
REMARK  Name = /home/qwerty/github/datacon2025hack/step_04_hit_selection/docking/ligands/lig_698.pdb
REMARK  5 active torsions:
REMARK  status: ('A' for Active; 'I' for Inactive)
REMARK    1  A    between atoms: C1_1  and  O1_2
REMARK    2  A    between atoms: O1_2  and  C2_3
REMARK    3  A    between atoms: C10_11  and  N1_12
REMARK    4  A    between atoms: C14_18  and  C15_19
REMARK    5  A    between atoms: C18_22  and  O3_23
REMARK                            x       y       z     vdW  Elec       q    Type
REMARK                         _______ _______ _______ _____ _____    ______ ____
ROOT
ATOM      1  N1  UNL     1      21.552   6.834  21.086  0.00  0.00    -0.296 N 
ATOM      2  C11 UNL     1      22.689   7.325  20.356  0.00  0.00    +0.302 C 
ATOM      3  O2  UNL     1      23.767   6.671  20.361  0.00  0.00    -0.253 OA
ATOM      4  N2  UNL     1      22.616   8.558  19.618  0.00  0.00    -0.285 N 
ATOM      5  C12 UNL     1      23.753   9.110  18.901  0.00  0.00    +0.110 C 
ATOM      6  C13 UNL     1      23.318  10.493  18.431  0.00  0.00    +0.029 C 
ATOM      7  C14 UNL     1      21.788  10.509  18.546  0.00  0.00    +0.038 C 
ATOM      8  C21 UNL     1      21.427   9.390  19.528  0.00  0.00    +0.117 C 
ATOM      9  H12 UNL     1      20.647   7.351  21.027  0.00  0.00    +0.151 HD
ENDROOT
BRANCH   1  18
ATOM     10  C2  UNL     1      21.779   2.776  26.207  0.00  0.00    +0.120 A 
ATOM     11  C3  UNL     1      22.673   3.830  26.409  0.00  0.00    +0.046 A 
ATOM     12  C4  UNL     1      22.805   4.840  25.456  0.00  0.00    +0.007 A 
ATOM     13  C5  UNL     1      22.050   4.811  24.274  0.00  0.00    -0.042 A 
ATOM     14  C6  UNL     1      21.119   3.764  24.071  0.00  0.00    -0.041 A 
ATOM     15  C7  UNL     1      21.006   2.744  25.031  0.00  0.00    +0.049 A 
ATOM     16  C8  UNL     1      20.316   3.657  22.796  0.00  0.00    +0.037 C 
ATOM     17  C9  UNL     1      20.227   4.988  22.042  0.00  0.00    +0.027 C 
ATOM     18  C10 UNL     1      21.619   5.620  21.907  0.00  0.00    +0.079 C 
ATOM     19  C22 UNL     1      22.174   5.959  23.301  0.00  0.00    +0.057 C 
BRANCH  10  21
ATOM     20  C1  UNL     1      22.575   1.672  28.304  0.00  0.00    +0.277 C 
ATOM     21  O1  UNL     1      21.690   1.783  27.193  0.00  0.00    -0.495 OA
ENDBRANCH  10  21
ENDBRANCH   1  18
BRANCH   7  22
ATOM     22  C15 UNL     1      21.238  11.863  18.953  0.00  0.00    -0.043 A 
ATOM     23  C16 UNL     1      19.899  12.013  19.364  0.00  0.00    +0.007 A 
ATOM     24  C17 UNL     1      19.412  13.265  19.754  0.00  0.00    +0.045 A 
ATOM     25  C18 UNL     1      20.253  14.384  19.735  0.00  0.00    +0.117 A 
ATOM     26  C19 UNL     1      21.581  14.245  19.324  0.00  0.00    +0.045 A 
ATOM     27  C20 UNL     1      22.073  12.995  18.938  0.00  0.00    +0.007 A 
BRANCH  25  28
ATOM     28  O3  UNL     1      19.781  15.635  20.126  0.00  0.00    -0.507 OA
ATOM     29  H20 UNL     1      20.351  16.267  20.675  0.00  0.00    +0.292 HD
ENDBRANCH  25  28
ENDBRANCH   7  22
TORSDOF 4
ENDMDL
MODEL 3
REMARK VINA RESULT:    -6.801      8.720     11.104
REMARK INTER + INTRA:          -8.572
REMARK INTER:                  -8.211
REMARK INTRA:                  -0.361
REMARK UNBOUND:                -0.379
REMARK  Name = /home/qwerty/github/datacon2025hack/step_04_hit_selection/docking/ligands/lig_698.pdb
REMARK  5 active torsions:
REMARK  status: ('A' for Active; 'I' for Inactive)
REMARK    1  A    between atoms: C1_1  and  O1_2
REMARK    2  A    between atoms: O1_2  and  C2_3
REMARK    3  A    between atoms: C10_11  and  N1_12
REMARK    4  A    between atoms: C14_18  and  C15_19
REMARK    5  A    between atoms: C18_22  and  O3_23
REMARK                            x       y       z     vdW  Elec       q    Type
REMARK                         _______ _______ _______ _____ _____    ______ ____
ROOT
ATOM      1  N1  UNL     1      23.201  11.604  29.957  0.00  0.00    -0.296 N 
ATOM      2  C11 UNL     1      22.076  12.460  29.692  0.00  0.00    +0.302 C 
ATOM      3  O2  UNL     1      21.014  12.322  30.359  0.00  0.00    -0.253 OA
ATOM      4  N2  UNL     1      22.143  13.473  28.674  0.00  0.00    -0.285 N 
ATOM      5  C12 UNL     1      21.015  14.331  28.347  0.00  0.00    +0.110 C 
ATOM      6  C13 UNL     1      21.432  15.111  27.106  0.00  0.00    +0.029 C 
ATOM      7  C14 UNL     1      22.957  14.966  27.016  0.00  0.00    +0.038 C 
ATOM      8  C21 UNL     1      23.314  13.734  27.853  0.00  0.00    +0.117 C 
ATOM      9  H12 UNL     1      24.095  11.765  29.443  0.00  0.00    +0.151 HD
ENDROOT
BRANCH   1  18
ATOM     10  C2  UNL     1      22.578   5.690  32.671  0.00  0.00    +0.120 A 
ATOM     11  C3  UNL     1      21.546   5.890  31.752  0.00  0.00    +0.046 A 
ATOM     12  C4  UNL     1      21.462   7.080  31.029  0.00  0.00    +0.007 A 
ATOM     13  C5  UNL     1      22.406   8.100  31.220  0.00  0.00    -0.042 A 
ATOM     14  C6  UNL     1      23.473   7.898  32.127  0.00  0.00    -0.041 A 
ATOM     15  C7  UNL     1      23.539   6.701  32.860  0.00  0.00    +0.049 A 
ATOM     16  C8  UNL     1      24.489   8.981  32.407  0.00  0.00    +0.037 C 
ATOM     17  C9  UNL     1      24.549  10.033  31.295  0.00  0.00    +0.027 C 
ATOM     18  C10 UNL     1      23.136  10.515  30.938  0.00  0.00    +0.079 C 
ATOM     19  C22 UNL     1      22.317   9.345  30.369  0.00  0.00    +0.057 C 
BRANCH  10  21
ATOM     20  C1  UNL     1      22.097   3.245  32.882  0.00  0.00    +0.277 C 
ATOM     21  O1  UNL     1      22.613   4.477  33.376  0.00  0.00    -0.495 OA
ENDBRANCH  10  21
ENDBRANCH   1  18
BRANCH   7  22
ATOM     22  C15 UNL     1      23.462  14.887  25.587  0.00  0.00    -0.043 A 
ATOM     23  C16 UNL     1      23.301  13.716  24.821  0.00  0.00    +0.007 A 
ATOM     24  C17 UNL     1      23.756  13.665  23.500  0.00  0.00    +0.045 A 
ATOM     25  C18 UNL     1      24.380  14.780  22.926  0.00  0.00    +0.117 A 
ATOM     26  C19 UNL     1      24.548  15.944  23.681  0.00  0.00    +0.045 A 
ATOM     27  C20 UNL     1      24.091  16.001  25.002  0.00  0.00    +0.007 A 
BRANCH  25  28
ATOM     28  O3  UNL     1      24.832  14.743  21.609  0.00  0.00    -0.507 OA
ATOM     29  H20 UNL     1      24.328  15.209  20.864  0.00  0.00    +0.292 HD
ENDBRANCH  25  28
ENDBRANCH   7  22
TORSDOF 4
ENDMDL
MODEL 4
REMARK VINA RESULT:    -6.581     10.746     11.676
REMARK INTER + INTRA:          -8.306
REMARK INTER:                  -7.824
REMARK INTRA:                  -0.483
REMARK UNBOUND:                -0.379
REMARK  Name = /home/qwerty/github/datacon2025hack/step_04_hit_selection/docking/ligands/lig_698.pdb
REMARK  5 active torsions:
REMARK  status: ('A' for Active; 'I' for Inactive)
REMARK    1  A    between atoms: C1_1  and  O1_2
REMARK    2  A    between atoms: O1_2  and  C2_3
REMARK    3  A    between atoms: C10_11  and  N1_12
REMARK    4  A    between atoms: C14_18  and  C15_19
REMARK    5  A    between atoms: C18_22  and  O3_23
REMARK                            x       y       z     vdW  Elec       q    Type
REMARK                         _______ _______ _______ _____ _____    ______ ____
ROOT
ATOM      1  N1  UNL     1      15.596   6.273  20.095  0.00  0.00    -0.296 N 
ATOM      2  C11 UNL     1      16.959   5.971  20.440  0.00  0.00    +0.302 C 
ATOM      3  O2  UNL     1      17.220   4.935  21.110  0.00  0.00    -0.253 OA
ATOM      4  N2  UNL     1      18.033   6.838  20.033  0.00  0.00    -0.285 N 
ATOM      5  C12 UNL     1      19.418   6.591  20.396  0.00  0.00    +0.110 C 
ATOM      6  C13 UNL     1      20.192   7.824  19.945  0.00  0.00    +0.029 C 
ATOM      7  C14 UNL     1      19.271   8.556  18.959  0.00  0.00    +0.038 C 
ATOM      8  C21 UNL     1      17.855   8.049  19.250  0.00  0.00    +0.117 C 
ATOM      9  H12 UNL     1      15.395   7.099  19.490  0.00  0.00    +0.151 HD
ENDROOT
BRANCH   1  18
ATOM     10  C2  UNL     1       9.635   4.328  21.945  0.00  0.00    +0.120 A 
ATOM     11  C3  UNL     1       9.946   5.536  22.575  0.00  0.00    +0.046 A 
ATOM     12  C4  UNL     1      11.168   6.165  22.336  0.00  0.00    +0.007 A 
ATOM     13  C5  UNL     1      12.109   5.592  21.467  0.00  0.00    -0.042 A 
ATOM     14  C6  UNL     1      11.794   4.384  20.801  0.00  0.00    -0.041 A 
ATOM     15  C7  UNL     1      10.567   3.751  21.061  0.00  0.00    +0.049 A 
ATOM     16  C8  UNL     1      12.789   3.699  19.894  0.00  0.00    +0.037 C 
ATOM     17  C9  UNL     1      13.879   4.650  19.391  0.00  0.00    +0.027 C 
ATOM     18  C10 UNL     1      14.475   5.448  20.559  0.00  0.00    +0.079 C 
ATOM     19  C22 UNL     1      13.390   6.340  21.185  0.00  0.00    +0.057 C 
BRANCH  10  21
ATOM     20  C1  UNL     1       7.511   4.167  23.255  0.00  0.00    +0.277 C 
ATOM     21  O1  UNL     1       8.396   3.734  22.226  0.00  0.00    -0.495 OA
ENDBRANCH  10  21
ENDBRANCH   1  18
BRANCH   7  22
ATOM     22  C15 UNL     1      19.396  10.066  19.041  0.00  0.00    -0.043 A 
ATOM     23  C16 UNL     1      18.301  10.869  19.418  0.00  0.00    +0.007 A 
ATOM     24  C17 UNL     1      18.437  12.258  19.506  0.00  0.00    +0.045 A 
ATOM     25  C18 UNL     1      19.665  12.865  19.217  0.00  0.00    +0.117 A 
ATOM     26  C19 UNL     1      20.755  12.076  18.838  0.00  0.00    +0.045 A 
ATOM     27  C20 UNL     1      20.625  10.687  18.752  0.00  0.00    +0.007 A 
BRANCH  25  28
ATOM     28  O3  UNL     1      19.814  14.247  19.307  0.00  0.00    -0.507 OA
ATOM     29  H20 UNL     1      20.694  14.666  19.585  0.00  0.00    +0.292 HD
ENDBRANCH  25  28
ENDBRANCH   7  22
TORSDOF 4
ENDMDL
MODEL 5
REMARK VINA RESULT:    -6.575     12.249     13.379
REMARK INTER + INTRA:          -8.299
REMARK INTER:                  -7.814
REMARK INTRA:                  -0.485
REMARK UNBOUND:                -0.379
REMARK  Name = /home/qwerty/github/datacon2025hack/step_04_hit_selection/docking/ligands/lig_698.pdb
REMARK  5 active torsions:
REMARK  status: ('A' for Active; 'I' for Inactive)
REMARK    1  A    between atoms: C1_1  and  O1_2
REMARK    2  A    between atoms: O1_2  and  C2_3
REMARK    3  A    between atoms: C10_11  and  N1_12
REMARK    4  A    between atoms: C14_18  and  C15_19
REMARK    5  A    between atoms: C18_22  and  O3_23
REMARK                            x       y       z     vdW  Elec       q    Type
REMARK                         _______ _______ _______ _____ _____    ______ ____
ROOT
ATOM      1  N1  UNL     1      22.248   7.273  21.698  0.00  0.00    -0.296 N 
ATOM      2  C11 UNL     1      23.345   7.577  20.820  0.00  0.00    +0.302 C 
ATOM      3  O2  UNL     1      24.144   6.664  20.476  0.00  0.00    -0.253 OA
ATOM      4  N2  UNL     1      23.548   8.914  20.328  0.00  0.00    -0.285 N 
ATOM      5  C12 UNL     1      24.668   9.272  19.473  0.00  0.00    +0.110 C 
ATOM      6  C13 UNL     1      24.625  10.790  19.345  0.00  0.00    +0.029 C 
ATOM      7  C14 UNL     1      23.220  11.206  19.802  0.00  0.00    +0.038 C 
ATOM      8  C21 UNL     1      22.689  10.042  20.644  0.00  0.00    +0.117 C 
ATOM      9  H12 UNL     1      21.557   8.021  21.928  0.00  0.00    +0.151 HD
ENDROOT
BRANCH   1  18
ATOM     10  C2  UNL     1      21.422   2.379  25.952  0.00  0.00    +0.120 A 
ATOM     11  C3  UNL     1      22.447   3.215  26.399  0.00  0.00    +0.046 A 
ATOM     12  C4  UNL     1      22.812   4.344  25.665  0.00  0.00    +0.007 A 
ATOM     13  C5  UNL     1      22.161   4.654  24.461  0.00  0.00    -0.042 A 
ATOM     14  C6  UNL     1      21.101   3.831  24.013  0.00  0.00    -0.041 A 
ATOM     15  C7  UNL     1      20.753   2.688  24.752  0.00  0.00    +0.049 A 
ATOM     16  C8  UNL     1      20.400   4.091  22.700  0.00  0.00    +0.037 C 
ATOM     17  C9  UNL     1      20.580   5.531  22.211  0.00  0.00    +0.027 C 
ATOM     18  C10 UNL     1      22.059   5.937  22.273  0.00  0.00    +0.079 C 
ATOM     19  C22 UNL     1      22.541   5.922  23.733  0.00  0.00    +0.057 C 
BRANCH  10  21
ATOM     20  C1  UNL     1      21.783   0.872  27.915  0.00  0.00    +0.277 C 
ATOM     21  O1  UNL     1      21.099   1.253  26.724  0.00  0.00    -0.495 OA
ENDBRANCH  10  21
ENDBRANCH   1  18
BRANCH   7  22
ATOM     22  C15 UNL     1      23.205  12.534  20.537  0.00  0.00    -0.043 A 
ATOM     23  C16 UNL     1      23.560  13.732  19.886  0.00  0.00    +0.007 A 
ATOM     24  C17 UNL     1      23.523  14.949  20.572  0.00  0.00    +0.045 A 
ATOM     25  C18 UNL     1      23.137  14.988  21.918  0.00  0.00    +0.117 A 
ATOM     26  C19 UNL     1      22.789  13.803  22.573  0.00  0.00    +0.045 A 
ATOM     27  C20 UNL     1      22.820  12.584  21.889  0.00  0.00    +0.007 A 
BRANCH  25  28
ATOM     28  O3  UNL     1      23.092  16.196  22.610  0.00  0.00    -0.507 OA
ATOM     29  H20 UNL     1      23.206  17.083  22.134  0.00  0.00    +0.292 HD
ENDBRANCH  25  28
ENDBRANCH   7  22
TORSDOF 4
ENDMDL
MODEL 6
REMARK VINA RESULT:    -6.527     11.114     15.537
REMARK INTER + INTRA:          -8.241
REMARK INTER:                  -8.297
REMARK INTRA:                   0.056
REMARK UNBOUND:                -0.379
REMARK  Name = /home/qwerty/github/datacon2025hack/step_04_hit_selection/docking/ligands/lig_698.pdb
REMARK  5 active torsions:
REMARK  status: ('A' for Active; 'I' for Inactive)
REMARK    1  A    between atoms: C1_1  and  O1_2
REMARK    2  A    between atoms: O1_2  and  C2_3
REMARK    3  A    between atoms: C10_11  and  N1_12
REMARK    4  A    between atoms: C14_18  and  C15_19
REMARK    5  A    between atoms: C18_22  and  O3_23
REMARK                            x       y       z     vdW  Elec       q    Type
REMARK                         _______ _______ _______ _____ _____    ______ ____
ROOT
ATOM      1  N1  UNL     1      16.629   7.484  19.651  0.00  0.00    -0.296 N 
ATOM      2  C11 UNL     1      16.672   6.060  19.454  0.00  0.00    +0.302 C 
ATOM      3  O2  UNL     1      17.655   5.540  18.858  0.00  0.00    -0.253 OA
ATOM      4  N2  UNL     1      15.606   5.217  19.926  0.00  0.00    -0.285 N 
ATOM      5  C12 UNL     1      15.591   3.779  19.711  0.00  0.00    +0.110 C 
ATOM      6  C13 UNL     1      14.222   3.303  20.181  0.00  0.00    +0.029 C 
ATOM      7  C14 UNL     1      13.657   4.442  21.040  0.00  0.00    +0.038 C 
ATOM      8  C21 UNL     1      14.433   5.700  20.635  0.00  0.00    +0.117 C 
ATOM      9  H12 UNL     1      15.843   7.899  20.198  0.00  0.00    +0.151 HD
ENDROOT
BRANCH   1  18
ATOM     10  C2  UNL     1      20.739  12.510  18.885  0.00  0.00    +0.120 A 
ATOM     11  C3  UNL     1      19.466  12.994  19.195  0.00  0.00    +0.046 A 
ATOM     12  C4  UNL     1      18.407  12.112  19.415  0.00  0.00    +0.007 A 
ATOM     13  C5  UNL     1      18.600  10.726  19.321  0.00  0.00    -0.042 A 
ATOM     14  C6  UNL     1      19.892  10.223  19.036  0.00  0.00    -0.041 A 
ATOM     15  C7  UNL     1      20.947  11.120  18.801  0.00  0.00    +0.049 A 
ATOM     16  C8  UNL     1      20.145   8.742  18.875  0.00  0.00    +0.037 C 
ATOM     17  C9  UNL     1      19.059   7.883  19.531  0.00  0.00    +0.027 C 
ATOM     18  C10 UNL     1      17.665   8.375  19.116  0.00  0.00    +0.079 C 
ATOM     19  C22 UNL     1      17.444   9.806  19.633  0.00  0.00    +0.057 C 
BRANCH  10  21
ATOM     20  C1  UNL     1      21.632  14.845  18.849  0.00  0.00    +0.277 C 
ATOM     21  O1  UNL     1      21.767  13.439  18.665  0.00  0.00    -0.495 OA
ENDBRANCH  10  21
ENDBRANCH   1  18
BRANCH   7  22
ATOM     22  C15 UNL     1      12.154   4.597  20.905  0.00  0.00    -0.043 A 
ATOM     23  C16 UNL     1      11.584   5.779  20.392  0.00  0.00    +0.007 A 
ATOM     24  C17 UNL     1      10.198   5.899  20.257  0.00  0.00    +0.045 A 
ATOM     25  C18 UNL     1       9.360   4.843  20.636  0.00  0.00    +0.117 A 
ATOM     26  C19 UNL     1       9.916   3.668  21.150  0.00  0.00    +0.045 A 
ATOM     27  C20 UNL     1      11.302   3.543  21.283  0.00  0.00    +0.007 A 
BRANCH  25  28
ATOM     28  O3  UNL     1       7.978   4.948  20.501  0.00  0.00    -0.507 OA
ATOM     29  H20 UNL     1       7.443   4.261  19.983  0.00  0.00    +0.292 HD
ENDBRANCH  25  28
ENDBRANCH   7  22
TORSDOF 4
ENDMDL
MODEL 7
REMARK VINA RESULT:    -6.511     10.371     12.457
REMARK INTER + INTRA:          -8.222
REMARK INTER:                  -7.745
REMARK INTRA:                  -0.476
REMARK UNBOUND:                -0.379
REMARK  Name = /home/qwerty/github/datacon2025hack/step_04_hit_selection/docking/ligands/lig_698.pdb
REMARK  5 active torsions:
REMARK  status: ('A' for Active; 'I' for Inactive)
REMARK    1  A    between atoms: C1_1  and  O1_2
REMARK    2  A    between atoms: O1_2  and  C2_3
REMARK    3  A    between atoms: C10_11  and  N1_12
REMARK    4  A    between atoms: C14_18  and  C15_19
REMARK    5  A    between atoms: C18_22  and  O3_23
REMARK                            x       y       z     vdW  Elec       q    Type
REMARK                         _______ _______ _______ _____ _____    ______ ____
ROOT
ATOM      1  N1  UNL     1      19.975   7.845  35.519  0.00  0.00    -0.296 N 
ATOM      2  C11 UNL     1      21.118   7.989  34.658  0.00  0.00    +0.302 C 
ATOM      3  O2  UNL     1      21.550   9.141  34.380  0.00  0.00    -0.253 OA
ATOM      4  N2  UNL     1      21.777   6.836  34.106  0.00  0.00    -0.285 N 
ATOM      5  C12 UNL     1      22.909   6.940  33.199  0.00  0.00    +0.110 C 
ATOM      6  C13 UNL     1      23.175   5.524  32.702  0.00  0.00    +0.029 C 
ATOM      7  C14 UNL     1      22.437   4.596  33.676  0.00  0.00    +0.038 C 
ATOM      8  C21 UNL     1      21.378   5.463  34.365  0.00  0.00    +0.117 C 
ATOM      9  H12 UNL     1      19.662   6.887  35.792  0.00  0.00    +0.151 HD
ENDROOT
BRANCH   1  18
ATOM     10  C2  UNL     1      15.260  12.220  36.686  0.00  0.00    +0.120 A 
ATOM     11  C3  UNL     1      15.333  11.971  35.314  0.00  0.00    +0.046 A 
ATOM     12  C4  UNL     1      16.262  11.061  34.807  0.00  0.00    +0.007 A 
ATOM     13  C5  UNL     1      17.144  10.388  35.666  0.00  0.00    -0.042 A 
ATOM     14  C6  UNL     1      17.060  10.610  37.061  0.00  0.00    -0.041 A 
ATOM     15  C7  UNL     1      16.132  11.540  37.558  0.00  0.00    +0.049 A 
ATOM     16  C8  UNL     1      18.017   9.949  38.025  0.00  0.00    +0.037 C 
ATOM     17  C9  UNL     1      18.681   8.702  37.434  0.00  0.00    +0.027 C 
ATOM     18  C10 UNL     1      19.239   9.003  36.037  0.00  0.00    +0.079 C 
ATOM     19  C22 UNL     1      18.087   9.362  35.083  0.00  0.00    +0.057 C 
BRANCH  10  21
ATOM     20  C1  UNL     1      13.814  14.235  36.366  0.00  0.00    +0.277 C 
ATOM     21  O1  UNL     1      14.314  13.149  37.142  0.00  0.00    -0.495 OA
ENDBRANCH  10  21
ENDBRANCH   1  18
BRANCH   7  22
ATOM     22  C15 UNL     1      21.858   3.367  33.000  0.00  0.00    -0.043 A 
ATOM     23  C16 UNL     1      22.251   2.997  31.698  0.00  0.00    +0.007 A 
ATOM     24  C17 UNL     1      21.722   1.852  31.096  0.00  0.00    +0.045 A 
ATOM     25  C18 UNL     1      20.791   1.062  31.781  0.00  0.00    +0.117 A 
ATOM     26  C19 UNL     1      20.391   1.425  33.071  0.00  0.00    +0.045 A 
ATOM     27  C20 UNL     1      20.921   2.567  33.678  0.00  0.00    +0.007 A 
BRANCH  25  28
ATOM     28  O3  UNL     1      20.261  -0.084  31.193  0.00  0.00    -0.507 OA
ATOM     29  H20 UNL     1      20.411  -0.293  30.214  0.00  0.00    +0.292 HD
ENDBRANCH  25  28
ENDBRANCH   7  22
TORSDOF 4
ENDMDL
MODEL 8
REMARK VINA RESULT:    -6.497      1.611     10.179
REMARK INTER + INTRA:          -8.205
REMARK INTER:                  -7.885
REMARK INTRA:                  -0.320
REMARK UNBOUND:                -0.379
REMARK  Name = /home/qwerty/github/datacon2025hack/step_04_hit_selection/docking/ligands/lig_698.pdb
REMARK  5 active torsions:
REMARK  status: ('A' for Active; 'I' for Inactive)
REMARK    1  A    between atoms: C1_1  and  O1_2
REMARK    2  A    between atoms: O1_2  and  C2_3
REMARK    3  A    between atoms: C10_11  and  N1_12
REMARK    4  A    between atoms: C14_18  and  C15_19
REMARK    5  A    between atoms: C18_22  and  O3_23
REMARK                            x       y       z     vdW  Elec       q    Type
REMARK                         _______ _______ _______ _____ _____    ______ ____
ROOT
ATOM      1  N1  UNL     1      13.320  13.727  29.090  0.00  0.00    -0.296 N 
ATOM      2  C11 UNL     1      12.105  14.266  28.542  0.00  0.00    +0.302 C 
ATOM      3  O2  UNL     1      12.020  15.502  28.304  0.00  0.00    -0.253 OA
ATOM      4  N2  UNL     1      10.980  13.415  28.261  0.00  0.00    -0.285 N 
ATOM      5  C12 UNL     1       9.720  13.925  27.746  0.00  0.00    +0.110 C 
ATOM      6  C13 UNL     1       8.751  12.750  27.777  0.00  0.00    +0.029 C 
ATOM      7  C14 UNL     1       9.623  11.496  27.923  0.00  0.00    +0.038 C 
ATOM      8  C21 UNL     1      10.966  11.978  28.481  0.00  0.00    +0.117 C 
ATOM      9  H12 UNL     1      13.403  12.696  29.227  0.00  0.00    +0.151 HD
ENDROOT
BRANCH   1  18
ATOM     10  C2  UNL     1      19.238  15.755  30.989  0.00  0.00    +0.120 A 
ATOM     11  C3  UNL     1      18.796  14.744  31.846  0.00  0.00    +0.046 A 
ATOM     12  C4  UNL     1      17.556  14.137  31.645  0.00  0.00    +0.007 A 
ATOM     13  C5  UNL     1      16.727  14.537  30.586  0.00  0.00    -0.042 A 
ATOM     14  C6  UNL     1      17.177  15.540  29.694  0.00  0.00    -0.041 A 
ATOM     15  C7  UNL     1      18.420  16.155  29.915  0.00  0.00    +0.049 A 
ATOM     16  C8  UNL     1      16.305  16.043  28.567  0.00  0.00    +0.037 C 
ATOM     17  C9  UNL     1      15.195  15.055  28.195  0.00  0.00    +0.027 C 
ATOM     18  C10 UNL     1      14.456  14.582  29.455  0.00  0.00    +0.079 C 
ATOM     19  C22 UNL     1      15.424  13.808  30.365  0.00  0.00    +0.057 C 
BRANCH  10  21
ATOM     20  C1  UNL     1      21.737  15.686  31.018  0.00  0.00    +0.277 C 
ATOM     21  O1  UNL     1      20.490  16.337  31.240  0.00  0.00    -0.495 OA
ENDBRANCH  10  21
ENDBRANCH   1  18
BRANCH   7  22
ATOM     22  C15 UNL     1       8.974  10.419  28.772  0.00  0.00    -0.043 A 
ATOM     23  C16 UNL     1       9.741   9.398  29.368  0.00  0.00    +0.007 A 
ATOM     24  C17 UNL     1       9.130   8.423  30.162  0.00  0.00    +0.045 A 
ATOM     25  C18 UNL     1       7.745   8.451  30.371  0.00  0.00    +0.117 A 
ATOM     26  C19 UNL     1       6.976   9.457  29.780  0.00  0.00    +0.045 A 
ATOM     27  C20 UNL     1       7.584  10.436  28.988  0.00  0.00    +0.007 A 
BRANCH  25  28
ATOM     28  O3  UNL     1       7.127   7.488  31.165  0.00  0.00    -0.507 OA
ATOM     29  H20 UNL     1       7.537   6.572  31.302  0.00  0.00    +0.292 HD
ENDBRANCH  25  28
ENDBRANCH   7  22
TORSDOF 4
ENDMDL
MODEL 9
REMARK VINA RESULT:    -6.455      8.207     12.084
REMARK INTER + INTRA:          -8.154
REMARK INTER:                  -7.686
REMARK INTRA:                  -0.468
REMARK UNBOUND:                -0.379
REMARK  Name = /home/qwerty/github/datacon2025hack/step_04_hit_selection/docking/ligands/lig_698.pdb
REMARK  5 active torsions:
REMARK  status: ('A' for Active; 'I' for Inactive)
REMARK    1  A    between atoms: C1_1  and  O1_2
REMARK    2  A    between atoms: O1_2  and  C2_3
REMARK    3  A    between atoms: C10_11  and  N1_12
REMARK    4  A    between atoms: C14_18  and  C15_19
REMARK    5  A    between atoms: C18_22  and  O3_23
REMARK                            x       y       z     vdW  Elec       q    Type
REMARK                         _______ _______ _______ _____ _____    ______ ____
ROOT
ATOM      1  N1  UNL     1      21.510  13.742  23.350  0.00  0.00    -0.296 N 
ATOM      2  C11 UNL     1      21.161  14.421  22.131  0.00  0.00    +0.302 C 
ATOM      3  O2  UNL     1      21.163  15.682  22.094  0.00  0.00    -0.253 OA
ATOM      4  N2  UNL     1      20.807  13.681  20.949  0.00  0.00    -0.285 N 
ATOM      5  C12 UNL     1      20.408  14.328  19.710  0.00  0.00    +0.110 C 
ATOM      6  C13 UNL     1      19.934  13.209  18.790  0.00  0.00    +0.029 C 
ATOM      7  C14 UNL     1      20.476  11.910  19.402  0.00  0.00    +0.038 C 
ATOM      8  C21 UNL     1      20.781  12.230  20.868  0.00  0.00    +0.117 C 
ATOM      9  H12 UNL     1      21.564  12.700  23.354  0.00  0.00    +0.151 HD
ENDROOT
BRANCH   1  18
ATOM     10  C2  UNL     1      21.068  16.190  29.396  0.00  0.00    +0.120 A 
ATOM     11  C3  UNL     1      19.848  16.359  28.735  0.00  0.00    +0.046 A 
ATOM     12  C4  UNL     1      19.684  15.909  27.425  0.00  0.00    +0.007 A 
ATOM     13  C5  UNL     1      20.742  15.287  26.745  0.00  0.00    -0.042 A 
ATOM     14  C6  UNL     1      21.972  15.083  27.413  0.00  0.00    -0.041 A 
ATOM     15  C7  UNL     1      22.131  15.554  28.727  0.00  0.00    +0.049 A 
ATOM     16  C8  UNL     1      23.159  14.464  26.712  0.00  0.00    +0.037 C 
ATOM     17  C9  UNL     1      22.756  13.655  25.475  0.00  0.00    +0.027 C 
ATOM     18  C10 UNL     1      21.804  14.470  24.589  0.00  0.00    +0.079 C 
ATOM     19  C22 UNL     1      20.500  14.755  25.352  0.00  0.00    +0.057 C 
BRANCH  10  21
ATOM     20  C1  UNL     1      20.091  17.147  31.489  0.00  0.00    +0.277 C 
ATOM     21  O1  UNL     1      21.182  16.666  30.710  0.00  0.00    -0.495 OA
ENDBRANCH  10  21
ENDBRANCH   1  18
BRANCH   7  22
ATOM     22  C15 UNL     1      19.532  10.735  19.229  0.00  0.00    -0.043 A 
ATOM     23  C16 UNL     1      19.994   9.492  18.752  0.00  0.00    +0.007 A 
ATOM     24  C17 UNL     1      19.115   8.414  18.615  0.00  0.00    +0.045 A 
ATOM     25  C18 UNL     1      17.763   8.560  18.948  0.00  0.00    +0.117 A 
ATOM     26  C19 UNL     1      17.295   9.791  19.417  0.00  0.00    +0.045 A 
ATOM     27  C20 UNL     1      18.171  10.871  19.559  0.00  0.00    +0.007 A 
BRANCH  25  28
ATOM     28  O3  UNL     1      16.879   7.492  18.821  0.00  0.00    -0.507 OA
ATOM     29  H20 UNL     1      17.211   6.538  18.743  0.00  0.00    +0.292 HD
ENDBRANCH  25  28
ENDBRANCH   7  22
TORSDOF 4
ENDMDL
