MODEL 1
REMARK VINA RESULT:    -6.745      0.000      0.000
REMARK INTER + INTRA:          -8.800
REMARK INTER:                  -8.322
REMARK INTRA:                  -0.478
REMARK UNBOUND:                -0.478
REMARK  Name = /home/qwerty/github/datacon2025hack/step_04_hit_selection/docking/ligands/lig_67.pdb
REMARK  5 active torsions:
REMARK  status: ('A' for Active; 'I' for Inactive)
REMARK    1  A    between atoms: C1_1  and  O1_2
REMARK    2  A    between atoms: O1_2  and  C2_3
REMARK    3  A    between atoms: C6_8  and  C7_9
REMARK    4  A    between atoms: N2_11  and  C8_12
REMARK    5  A    between atoms: C11_15  and  C12_16
REMARK                            x       y       z     vdW  Elec       q    Type
REMARK                         _______ _______ _______ _____ _____    ______ ____
ROOT
ATOM      1  C7  UNL     1      16.667   7.394  20.392  0.00  0.00    +0.265 C 
ATOM      2  O2  UNL     1      16.802   7.926  21.527  0.00  0.00    -0.268 OA
ATOM      3  N2  UNL     1      16.912   8.163  19.202  0.00  0.00    -0.280 N 
ATOM      4  H7  UNL     1      16.423   7.880  18.324  0.00  0.00    +0.155 HD
ENDROOT
BRANCH   1  10
ATOM      5  C2  UNL     1      15.481   1.586  19.950  0.00  0.00    +0.215 A 
ATOM      6  C3  UNL     1      14.137   2.025  19.998  0.00  0.00    +0.069 A 
ATOM      7  C4  UNL     1      13.850   3.397  20.115  0.00  0.00    +0.033 A 
ATOM      8  C5  UNL     1      14.929   4.273  20.179  0.00  0.00    +0.066 A 
ATOM      9  N1  UNL     1      14.909   5.612  20.285  0.00  0.00    -0.349 N 
ATOM     10  C6  UNL     1      16.212   5.994  20.303  0.00  0.00    +0.105 A 
ATOM     11  C18 UNL     1      17.061   4.888  20.203  0.00  0.00    +0.060 A 
ATOM     12  C19 UNL     1      16.210   3.811  20.128  0.00  0.00    +0.093 A 
ATOM     13  N5  UNL     1      16.506   2.494  20.014  0.00  0.00    -0.211 NA
ATOM     14  H6  UNL     1      14.060   6.219  20.324  0.00  0.00    +0.166 HD
BRANCH   5  16
ATOM     15  C1  UNL     1      16.319  -0.547  20.887  0.00  0.00    +0.279 C 
ATOM     16  O1  UNL     1      15.747   0.218  19.834  0.00  0.00    -0.480 OA
ENDBRANCH   5  16
ENDBRANCH   1  10
BRANCH   3  17
ATOM     17  C8  UNL     1      17.675   9.382  19.181  0.00  0.00    +0.034 A 
ATOM     18  C9  UNL     1      17.080  10.623  19.460  0.00  0.00    +0.024 A 
ATOM     19  C10 UNL     1      17.847  11.793  19.457  0.00  0.00    +0.012 A 
ATOM     20  C11 UNL     1      19.225  11.745  19.180  0.00  0.00    +0.001 A 
ATOM     21  C16 UNL     1      19.822  10.494  18.934  0.00  0.00    +0.012 A 
ATOM     22  C17 UNL     1      19.054   9.327  18.939  0.00  0.00    +0.024 A 
BRANCH  20  23
ATOM     23  C12 UNL     1      20.024  12.998  19.187  0.00  0.00    +0.074 A 
ATOM     24  C13 UNL     1      21.187  13.139  18.410  0.00  0.00    +0.048 A 
ATOM     25  C14 UNL     1      21.885  14.345  18.461  0.00  0.00    +0.114 A 
ATOM     26  N3  UNL     1      21.437  15.358  19.245  0.00  0.00    -0.244 NA
ATOM     27  C15 UNL     1      20.309  15.215  19.986  0.00  0.00    +0.221 A 
ATOM     28  N4  UNL     1      19.614  14.049  19.951  0.00  0.00    -0.235 NA
ENDBRANCH  20  23
ENDBRANCH   3  17
TORSDOF 4
ENDMDL
MODEL 2
REMARK VINA RESULT:    -6.440      1.124      1.486
REMARK INTER + INTRA:          -8.424
REMARK INTER:                  -8.009
REMARK INTRA:                  -0.414
REMARK UNBOUND:                -0.478
REMARK  Name = /home/qwerty/github/datacon2025hack/step_04_hit_selection/docking/ligands/lig_67.pdb
REMARK  5 active torsions:
REMARK  status: ('A' for Active; 'I' for Inactive)
REMARK    1  A    between atoms: C1_1  and  O1_2
REMARK    2  A    between atoms: O1_2  and  C2_3
REMARK    3  A    between atoms: C6_8  and  C7_9
REMARK    4  A    between atoms: N2_11  and  C8_12
REMARK    5  A    between atoms: C11_15  and  C12_16
REMARK                            x       y       z     vdW  Elec       q    Type
REMARK                         _______ _______ _______ _____ _____    ______ ____
ROOT
ATOM      1  C7  UNL     1      16.579   7.423  20.469  0.00  0.00    +0.265 C 
ATOM      2  O2  UNL     1      16.632   8.022  21.576  0.00  0.00    -0.268 OA
ATOM      3  N2  UNL     1      16.911   8.118  19.256  0.00  0.00    -0.280 N 
ATOM      4  H7  UNL     1      16.486   7.781  18.363  0.00  0.00    +0.155 HD
ENDROOT
BRANCH   1  10
ATOM      5  C2  UNL     1      14.250   1.958  20.712  0.00  0.00    +0.215 A 
ATOM      6  C3  UNL     1      15.425   1.605  20.007  0.00  0.00    +0.069 A 
ATOM      7  C4  UNL     1      16.367   2.595  19.673  0.00  0.00    +0.033 A 
ATOM      8  C5  UNL     1      16.088   3.901  20.061  0.00  0.00    +0.066 A 
ATOM      9  N1  UNL     1      16.829   5.004  19.864  0.00  0.00    -0.349 N 
ATOM     10  C6  UNL     1      16.128   6.018  20.433  0.00  0.00    +0.105 A 
ATOM     11  C18 UNL     1      14.938   5.551  20.998  0.00  0.00    +0.060 A 
ATOM     12  C19 UNL     1      14.946   4.201  20.740  0.00  0.00    +0.093 A 
ATOM     13  N5  UNL     1      14.027   3.262  21.072  0.00  0.00    -0.211 NA
ATOM     14  H6  UNL     1      17.757   5.051  19.388  0.00  0.00    +0.166 HD
BRANCH   5  16
ATOM     15  C1  UNL     1      12.732   0.850  22.324  0.00  0.00    +0.279 C 
ATOM     16  O1  UNL     1      13.325   0.961  21.036  0.00  0.00    -0.480 OA
ENDBRANCH   5  16
ENDBRANCH   1  10
BRANCH   3  17
ATOM     17  C8  UNL     1      17.677   9.335  19.216  0.00  0.00    +0.034 A 
ATOM     18  C9  UNL     1      17.101  10.574  19.544  0.00  0.00    +0.024 A 
ATOM     19  C10 UNL     1      17.871  11.740  19.521  0.00  0.00    +0.012 A 
ATOM     20  C11 UNL     1      19.234  11.693  19.175  0.00  0.00    +0.001 A 
ATOM     21  C16 UNL     1      19.813  10.444  18.879  0.00  0.00    +0.012 A 
ATOM     22  C17 UNL     1      19.042   9.279  18.905  0.00  0.00    +0.024 A 
BRANCH  20  23
ATOM     23  C12 UNL     1      20.037  12.943  19.162  0.00  0.00    +0.074 A 
ATOM     24  C13 UNL     1      21.219  13.056  18.409  0.00  0.00    +0.048 A 
ATOM     25  C14 UNL     1      21.920  14.261  18.439  0.00  0.00    +0.114 A 
ATOM     26  N3  UNL     1      21.457  15.299  19.180  0.00  0.00    -0.244 NA
ATOM     27  C15 UNL     1      20.310  15.184  19.898  0.00  0.00    +0.221 A 
ATOM     28  N4  UNL     1      19.613  14.018  19.882  0.00  0.00    -0.235 NA
ENDBRANCH  20  23
ENDBRANCH   3  17
TORSDOF 4
ENDMDL
MODEL 3
REMARK VINA RESULT:    -6.268     18.007     21.259
REMARK INTER + INTRA:          -8.212
REMARK INTER:                  -7.684
REMARK INTRA:                  -0.528
REMARK UNBOUND:                -0.478
REMARK  Name = /home/qwerty/github/datacon2025hack/step_04_hit_selection/docking/ligands/lig_67.pdb
REMARK  5 active torsions:
REMARK  status: ('A' for Active; 'I' for Inactive)
REMARK    1  A    between atoms: C1_1  and  O1_2
REMARK    2  A    between atoms: O1_2  and  C2_3
REMARK    3  A    between atoms: C6_8  and  C7_9
REMARK    4  A    between atoms: N2_11  and  C8_12
REMARK    5  A    between atoms: C11_15  and  C12_16
REMARK                            x       y       z     vdW  Elec       q    Type
REMARK                         _______ _______ _______ _____ _____    ______ ____
ROOT
ATOM      1  C7  UNL     1      14.328   5.724  37.138  0.00  0.00    +0.265 C 
ATOM      2  O2  UNL     1      13.923   5.334  36.010  0.00  0.00    -0.268 OA
ATOM      3  N2  UNL     1      13.547   5.459  38.315  0.00  0.00    -0.280 N 
ATOM      4  H7  UNL     1      13.652   6.103  39.130  0.00  0.00    +0.155 HD
ENDROOT
BRANCH   1  10
ATOM      5  C2  UNL     1      19.710   8.225  37.486  0.00  0.00    +0.215 A 
ATOM      6  C3  UNL     1      18.964   9.419  37.623  0.00  0.00    +0.069 A 
ATOM      7  C4  UNL     1      17.559   9.376  37.599  0.00  0.00    +0.033 A 
ATOM      8  C5  UNL     1      16.959   8.131  37.437  0.00  0.00    +0.066 A 
ATOM      9  N1  UNL     1      15.650   7.838  37.389  0.00  0.00    -0.349 N 
ATOM     10  C6  UNL     1      15.585   6.491  37.225  0.00  0.00    +0.105 A 
ATOM     11  C18 UNL     1      16.864   5.930  37.174  0.00  0.00    +0.060 A 
ATOM     12  C19 UNL     1      17.712   7.002  37.309  0.00  0.00    +0.093 A 
ATOM     13  N5  UNL     1      19.067   7.024  37.332  0.00  0.00    -0.211 NA
ATOM     14  H6  UNL     1      14.859   8.513  37.480  0.00  0.00    +0.166 HD
BRANCH   5  16
ATOM     15  C1  UNL     1      21.931   7.389  36.778  0.00  0.00    +0.279 C 
ATOM     16  O1  UNL     1      21.107   8.287  37.512  0.00  0.00    -0.480 OA
ENDBRANCH   5  16
ENDBRANCH   1  10
BRANCH   3  17
ATOM     17  C8  UNL     1      12.527   4.448  38.386  0.00  0.00    +0.034 A 
ATOM     18  C9  UNL     1      11.172   4.759  38.182  0.00  0.00    +0.024 A 
ATOM     19  C10 UNL     1      10.200   3.755  38.233  0.00  0.00    +0.012 A 
ATOM     20  C11 UNL     1      10.561   2.420  38.484  0.00  0.00    +0.001 A 
ATOM     21  C16 UNL     1      11.923   2.109  38.656  0.00  0.00    +0.012 A 
ATOM     22  C17 UNL     1      12.893   3.113  38.602  0.00  0.00    +0.024 A 
BRANCH  20  23
ATOM     23  C12 UNL     1       9.514   1.366  38.529  0.00  0.00    +0.074 A 
ATOM     24  C13 UNL     1       8.146   1.683  38.583  0.00  0.00    +0.048 A 
ATOM     25  C14 UNL     1       7.217   0.643  38.618  0.00  0.00    +0.114 A 
ATOM     26  N3  UNL     1       7.640  -0.647  38.593  0.00  0.00    -0.244 NA
ATOM     27  C15 UNL     1       8.963  -0.943  38.532  0.00  0.00    +0.221 A 
ATOM     28  N4  UNL     1       9.883   0.055  38.498  0.00  0.00    -0.235 NA
ENDBRANCH  20  23
ENDBRANCH   3  17
TORSDOF 4
ENDMDL
MODEL 4
REMARK VINA RESULT:    -6.096      8.327     11.927
REMARK INTER + INTRA:          -8.000
REMARK INTER:                  -7.482
REMARK INTRA:                  -0.518
REMARK UNBOUND:                -0.478
REMARK  Name = /home/qwerty/github/datacon2025hack/step_04_hit_selection/docking/ligands/lig_67.pdb
REMARK  5 active torsions:
REMARK  status: ('A' for Active; 'I' for Inactive)
REMARK    1  A    between atoms: C1_1  and  O1_2
REMARK    2  A    between atoms: O1_2  and  C2_3
REMARK    3  A    between atoms: C6_8  and  C7_9
REMARK    4  A    between atoms: N2_11  and  C8_12
REMARK    5  A    between atoms: C11_15  and  C12_16
REMARK                            x       y       z     vdW  Elec       q    Type
REMARK                         _______ _______ _______ _____ _____    ______ ____
ROOT
ATOM      1  C7  UNL     1      21.399   5.132  24.003  0.00  0.00    +0.265 C 
ATOM      2  O2  UNL     1      20.276   4.559  24.039  0.00  0.00    -0.268 OA
ATOM      3  N2  UNL     1      22.143   5.335  25.216  0.00  0.00    -0.280 N 
ATOM      4  H7  UNL     1      22.820   6.130  25.251  0.00  0.00    +0.155 HD
ENDROOT
BRANCH   1  10
ATOM      5  C2  UNL     1      23.788   7.607  19.155  0.00  0.00    +0.215 A 
ATOM      6  C3  UNL     1      22.976   6.667  18.477  0.00  0.00    +0.069 A 
ATOM      7  C4  UNL     1      22.166   5.781  19.210  0.00  0.00    +0.033 A 
ATOM      8  C5  UNL     1      22.207   5.875  20.597  0.00  0.00    +0.066 A 
ATOM      9  N1  UNL     1      21.528   5.151  21.501  0.00  0.00    -0.349 N 
ATOM     10  C6  UNL     1      21.912   5.629  22.712  0.00  0.00    +0.105 A 
ATOM     11  C18 UNL     1      22.837   6.667  22.572  0.00  0.00    +0.060 A 
ATOM     12  C19 UNL     1      23.002   6.794  21.214  0.00  0.00    +0.093 A 
ATOM     13  N5  UNL     1      23.788   7.657  20.525  0.00  0.00    -0.211 NA
ATOM     14  H6  UNL     1      20.837   4.394  21.297  0.00  0.00    +0.166 HD
BRANCH   5  16
ATOM     15  C1  UNL     1      25.146   9.668  18.957  0.00  0.00    +0.279 C 
ATOM     16  O1  UNL     1      24.587   8.480  18.410  0.00  0.00    -0.480 OA
ENDBRANCH   5  16
ENDBRANCH   1  10
BRANCH   3  17
ATOM     17  C8  UNL     1      21.909   4.601  26.430  0.00  0.00    +0.034 A 
ATOM     18  C9  UNL     1      21.144   5.141  27.477  0.00  0.00    +0.024 A 
ATOM     19  C10 UNL     1      20.910   4.399  28.639  0.00  0.00    +0.012 A 
ATOM     20  C11 UNL     1      21.430   3.100  28.776  0.00  0.00    +0.001 A 
ATOM     21  C16 UNL     1      22.169   2.551  27.711  0.00  0.00    +0.012 A 
ATOM     22  C17 UNL     1      22.400   3.294  26.550  0.00  0.00    +0.024 A 
BRANCH  20  23
ATOM     23  C12 UNL     1      21.166   2.324  30.017  0.00  0.00    +0.074 A 
ATOM     24  C13 UNL     1      21.231   2.917  31.289  0.00  0.00    +0.048 A 
ATOM     25  C14 UNL     1      20.967   2.131  32.410  0.00  0.00    +0.114 A 
ATOM     26  N3  UNL     1      20.646   0.820  32.260  0.00  0.00    -0.244 NA
ATOM     27  C15 UNL     1      20.578   0.258  31.027  0.00  0.00    +0.221 A 
ATOM     28  N4  UNL     1      20.833   1.007  29.923  0.00  0.00    -0.235 NA
ENDBRANCH  20  23
ENDBRANCH   3  17
TORSDOF 4
ENDMDL
MODEL 5
REMARK VINA RESULT:    -6.047     11.270     13.651
REMARK INTER + INTRA:          -7.939
REMARK INTER:                  -7.438
REMARK INTRA:                  -0.501
REMARK UNBOUND:                -0.478
REMARK  Name = /home/qwerty/github/datacon2025hack/step_04_hit_selection/docking/ligands/lig_67.pdb
REMARK  5 active torsions:
REMARK  status: ('A' for Active; 'I' for Inactive)
REMARK    1  A    between atoms: C1_1  and  O1_2
REMARK    2  A    between atoms: O1_2  and  C2_3
REMARK    3  A    between atoms: C6_8  and  C7_9
REMARK    4  A    between atoms: N2_11  and  C8_12
REMARK    5  A    between atoms: C11_15  and  C12_16
REMARK                            x       y       z     vdW  Elec       q    Type
REMARK                         _______ _______ _______ _____ _____    ______ ____
ROOT
ATOM      1  C7  UNL     1      20.609  12.823  30.699  0.00  0.00    +0.265 C 
ATOM      2  O2  UNL     1      20.430  11.868  29.895  0.00  0.00    -0.268 OA
ATOM      3  N2  UNL     1      21.598  13.827  30.417  0.00  0.00    -0.280 N 
ATOM      4  H7  UNL     1      22.020  14.342  31.222  0.00  0.00    +0.155 HD
ENDROOT
BRANCH   1  10
ATOM      5  C2  UNL     1      16.988  13.352  35.384  0.00  0.00    +0.215 A 
ATOM      6  C3  UNL     1      18.060  12.737  36.073  0.00  0.00    +0.069 A 
ATOM      7  C4  UNL     1      19.228  12.379  35.377  0.00  0.00    +0.033 A 
ATOM      8  C5  UNL     1      19.271  12.654  34.014  0.00  0.00    +0.066 A 
ATOM      9  N1  UNL     1      20.269  12.414  33.148  0.00  0.00    -0.349 N 
ATOM     10  C6  UNL     1      19.824  12.868  31.947  0.00  0.00    +0.105 A 
ATOM     11  C18 UNL     1      18.539  13.404  32.058  0.00  0.00    +0.060 A 
ATOM     12  C19 UNL     1      18.218  13.249  33.386  0.00  0.00    +0.093 A 
ATOM     13  N5  UNL     1      17.085  13.602  34.039  0.00  0.00    -0.211 NA
ATOM     14  H6  UNL     1      21.194  11.984  33.370  0.00  0.00    +0.166 HD
BRANCH   5  16
ATOM     15  C1  UNL     1      14.816  14.530  35.544  0.00  0.00    +0.279 C 
ATOM     16  O1  UNL     1      15.834  13.701  36.092  0.00  0.00    -0.480 OA
ENDBRANCH   5  16
ENDBRANCH   1  10
BRANCH   3  17
ATOM     17  C8  UNL     1      22.145  14.065  29.108  0.00  0.00    +0.034 A 
ATOM     18  C9  UNL     1      23.373  13.507  28.715  0.00  0.00    +0.024 A 
ATOM     19  C10 UNL     1      23.874  13.733  27.430  0.00  0.00    +0.012 A 
ATOM     20  C11 UNL     1      23.156  14.516  26.508  0.00  0.00    +0.001 A 
ATOM     21  C16 UNL     1      21.911  15.045  26.896  0.00  0.00    +0.012 A 
ATOM     22  C17 UNL     1      21.411  14.817  28.181  0.00  0.00    +0.024 A 
BRANCH  20  23
ATOM     23  C12 UNL     1      23.702  14.740  25.144  0.00  0.00    +0.074 A 
ATOM     24  C13 UNL     1      24.258  15.973  24.762  0.00  0.00    +0.048 A 
ATOM     25  C14 UNL     1      24.756  16.112  23.467  0.00  0.00    +0.114 A 
ATOM     26  N3  UNL     1      24.706  15.065  22.604  0.00  0.00    -0.244 NA
ATOM     27  C15 UNL     1      24.175  13.876  22.984  0.00  0.00    +0.221 A 
ATOM     28  N4  UNL     1      23.683  13.720  24.241  0.00  0.00    -0.235 NA
ENDBRANCH  20  23
ENDBRANCH   3  17
TORSDOF 4
ENDMDL
MODEL 6
REMARK VINA RESULT:    -5.980     16.573     17.715
REMARK INTER + INTRA:          -7.856
REMARK INTER:                  -7.349
REMARK INTRA:                  -0.507
REMARK UNBOUND:                -0.478
REMARK  Name = /home/qwerty/github/datacon2025hack/step_04_hit_selection/docking/ligands/lig_67.pdb
REMARK  5 active torsions:
REMARK  status: ('A' for Active; 'I' for Inactive)
REMARK    1  A    between atoms: C1_1  and  O1_2
REMARK    2  A    between atoms: O1_2  and  C2_3
REMARK    3  A    between atoms: C6_8  and  C7_9
REMARK    4  A    between atoms: N2_11  and  C8_12
REMARK    5  A    between atoms: C11_15  and  C12_16
REMARK                            x       y       z     vdW  Elec       q    Type
REMARK                         _______ _______ _______ _____ _____    ______ ____
ROOT
ATOM      1  C7  UNL     1      17.995   9.317  36.895  0.00  0.00    +0.265 C 
ATOM      2  O2  UNL     1      17.675   9.902  37.964  0.00  0.00    -0.268 OA
ATOM      3  N2  UNL     1      17.064   9.253  35.801  0.00  0.00    -0.280 N 
ATOM      4  H7  UNL     1      17.151   8.461  35.126  0.00  0.00    +0.155 HD
ENDROOT
BRANCH   1  10
ATOM      5  C2  UNL     1      23.253   6.746  35.849  0.00  0.00    +0.215 A 
ATOM      6  C3  UNL     1      23.233   6.518  37.245  0.00  0.00    +0.069 A 
ATOM      7  C4  UNL     1      22.143   6.964  38.014  0.00  0.00    +0.033 A 
ATOM      8  C5  UNL     1      21.116   7.623  37.346  0.00  0.00    +0.066 A 
ATOM      9  N1  UNL     1      19.981   8.130  37.857  0.00  0.00    -0.349 N 
ATOM     10  C6  UNL     1      19.314   8.662  36.800  0.00  0.00    +0.105 A 
ATOM     11  C18 UNL     1      20.029   8.485  35.613  0.00  0.00    +0.060 A 
ATOM     12  C19 UNL     1      21.170   7.823  35.999  0.00  0.00    +0.093 A 
ATOM     13  N5  UNL     1      22.211   7.400  35.242  0.00  0.00    -0.211 NA
ATOM     14  H6  UNL     1      19.682   8.096  38.856  0.00  0.00    +0.166 HD
BRANCH   5  16
ATOM     15  C1  UNL     1      24.285   6.102  33.693  0.00  0.00    +0.279 C 
ATOM     16  O1  UNL     1      24.344   6.296  35.101  0.00  0.00    -0.480 OA
ENDBRANCH   5  16
ENDBRANCH   1  10
BRANCH   3  17
ATOM     17  C8  UNL     1      15.934  10.132  35.661  0.00  0.00    +0.034 A 
ATOM     18  C9  UNL     1      16.028  11.339  34.950  0.00  0.00    +0.024 A 
ATOM     19  C10 UNL     1      14.910  12.166  34.808  0.00  0.00    +0.012 A 
ATOM     20  C11 UNL     1      13.673  11.801  35.368  0.00  0.00    +0.001 A 
ATOM     21  C16 UNL     1      13.576  10.574  36.052  0.00  0.00    +0.012 A 
ATOM     22  C17 UNL     1      14.695   9.749  36.192  0.00  0.00    +0.024 A 
BRANCH  20  23
ATOM     23  C12 UNL     1      12.494  12.690  35.202  0.00  0.00    +0.074 A 
ATOM     24  C13 UNL     1      11.548  12.867  36.226  0.00  0.00    +0.048 A 
ATOM     25  C14 UNL     1      10.468  13.720  36.003  0.00  0.00    +0.114 A 
ATOM     26  N3  UNL     1      10.348  14.368  34.816  0.00  0.00    -0.244 NA
ATOM     27  C15 UNL     1      11.270  14.197  33.835  0.00  0.00    +0.221 A 
ATOM     28  N4  UNL     1      12.329  13.370  34.033  0.00  0.00    -0.235 NA
ENDBRANCH  20  23
ENDBRANCH   3  17
TORSDOF 4
ENDMDL
MODEL 7
REMARK VINA RESULT:    -5.932     11.068     11.723
REMARK INTER + INTRA:          -7.798
REMARK INTER:                  -7.329
REMARK INTRA:                  -0.468
REMARK UNBOUND:                -0.478
REMARK  Name = /home/qwerty/github/datacon2025hack/step_04_hit_selection/docking/ligands/lig_67.pdb
REMARK  5 active torsions:
REMARK  status: ('A' for Active; 'I' for Inactive)
REMARK    1  A    between atoms: C1_1  and  O1_2
REMARK    2  A    between atoms: O1_2  and  C2_3
REMARK    3  A    between atoms: C6_8  and  C7_9
REMARK    4  A    between atoms: N2_11  and  C8_12
REMARK    5  A    between atoms: C11_15  and  C12_16
REMARK                            x       y       z     vdW  Elec       q    Type
REMARK                         _______ _______ _______ _____ _____    ______ ____
ROOT
ATOM      1  C7  UNL     1      13.681  14.777  28.588  0.00  0.00    +0.265 C 
ATOM      2  O2  UNL     1      14.260  15.093  29.663  0.00  0.00    -0.268 OA
ATOM      3  N2  UNL     1      14.330  15.004  27.326  0.00  0.00    -0.280 N 
ATOM      4  H7  UNL     1      13.731  15.135  26.481  0.00  0.00    +0.155 HD
ENDROOT
BRANCH   1  10
ATOM      5  C2  UNL     1       8.431  12.066  29.248  0.00  0.00    +0.215 A 
ATOM      6  C3  UNL     1       8.029  12.957  28.225  0.00  0.00    +0.069 A 
ATOM      7  C4  UNL     1       8.952  13.873  27.689  0.00  0.00    +0.033 A 
ATOM      8  C5  UNL     1      10.244  13.856  28.205  0.00  0.00    +0.066 A 
ATOM      9  N1  UNL     1      11.290  14.622  27.854  0.00  0.00    -0.349 N 
ATOM     10  C6  UNL     1      12.318  14.215  28.644  0.00  0.00    +0.105 A 
ATOM     11  C18 UNL     1      11.919  13.182  29.495  0.00  0.00    +0.060 A 
ATOM     12  C19 UNL     1      10.594  12.982  29.190  0.00  0.00    +0.093 A 
ATOM     13  N5  UNL     1       9.719  12.091  29.718  0.00  0.00    -0.211 NA
ATOM     14  H6  UNL     1      11.300  15.358  27.114  0.00  0.00    +0.166 HD
BRANCH   5  16
ATOM     15  C1  UNL     1       7.190   9.927  29.137  0.00  0.00    +0.279 C 
ATOM     16  O1  UNL     1       7.500  11.163  29.770  0.00  0.00    -0.480 OA
ENDBRANCH   5  16
ENDBRANCH   1  10
BRANCH   3  17
ATOM     17  C8  UNL     1      15.746  15.206  27.181  0.00  0.00    +0.034 A 
ATOM     18  C9  UNL     1      16.663  14.171  27.426  0.00  0.00    +0.024 A 
ATOM     19  C10 UNL     1      18.035  14.384  27.255  0.00  0.00    +0.012 A 
ATOM     20  C11 UNL     1      18.518  15.634  26.831  0.00  0.00    +0.001 A 
ATOM     21  C16 UNL     1      17.593  16.659  26.555  0.00  0.00    +0.012 A 
ATOM     22  C17 UNL     1      16.222  16.443  26.725  0.00  0.00    +0.024 A 
BRANCH  20  23
ATOM     23  C12 UNL     1      19.979  15.840  26.650  0.00  0.00    +0.074 A 
ATOM     24  C13 UNL     1      20.491  16.658  25.628  0.00  0.00    +0.048 A 
ATOM     25  C14 UNL     1      21.872  16.810  25.519  0.00  0.00    +0.114 A 
ATOM     26  N3  UNL     1      22.697  16.180  26.395  0.00  0.00    -0.244 NA
ATOM     27  C15 UNL     1      22.193  15.399  27.384  0.00  0.00    +0.221 A 
ATOM     28  N4  UNL     1      20.850  15.238  27.507  0.00  0.00    -0.235 NA
ENDBRANCH  20  23
ENDBRANCH   3  17
TORSDOF 4
ENDMDL
MODEL 8
REMARK VINA RESULT:    -5.786     11.254     16.783
REMARK INTER + INTRA:          -7.617
REMARK INTER:                  -7.091
REMARK INTRA:                  -0.526
REMARK UNBOUND:                -0.478
REMARK  Name = /home/qwerty/github/datacon2025hack/step_04_hit_selection/docking/ligands/lig_67.pdb
REMARK  5 active torsions:
REMARK  status: ('A' for Active; 'I' for Inactive)
REMARK    1  A    between atoms: C1_1  and  O1_2
REMARK    2  A    between atoms: O1_2  and  C2_3
REMARK    3  A    between atoms: C6_8  and  C7_9
REMARK    4  A    between atoms: N2_11  and  C8_12
REMARK    5  A    between atoms: C11_15  and  C12_16
REMARK                            x       y       z     vdW  Elec       q    Type
REMARK                         _______ _______ _______ _____ _____    ______ ____
ROOT
ATOM      1  C7  UNL     1      10.008   0.789  27.359  0.00  0.00    +0.265 C 
ATOM      2  O2  UNL     1      10.904   1.198  28.146  0.00  0.00    -0.268 OA
ATOM      3  N2  UNL     1       9.123  -0.269  27.761  0.00  0.00    -0.280 N 
ATOM      4  H7  UNL     1       8.693  -0.861  27.015  0.00  0.00    +0.155 HD
ENDROOT
BRANCH   1  10
ATOM      5  C2  UNL     1       9.076   3.487  22.143  0.00  0.00    +0.215 A 
ATOM      6  C3  UNL     1      10.155   2.675  21.719  0.00  0.00    +0.069 A 
ATOM      7  C4  UNL     1      10.777   1.803  22.629  0.00  0.00    +0.033 A 
ATOM      8  C5  UNL     1      10.290   1.782  23.931  0.00  0.00    +0.066 A 
ATOM      9  N1  UNL     1      10.711   1.036  24.966  0.00  0.00    -0.349 N 
ATOM     10  C6  UNL     1       9.913   1.379  26.010  0.00  0.00    +0.105 A 
ATOM     11  C18 UNL     1       8.977   2.345  25.629  0.00  0.00    +0.060 A 
ATOM     12  C19 UNL     1       9.248   2.578  24.303  0.00  0.00    +0.093 A 
ATOM     13  N5  UNL     1       8.635   3.424  23.440  0.00  0.00    -0.211 NA
ATOM     14  H6  UNL     1      11.481   0.331  24.950  0.00  0.00    +0.166 HD
BRANCH   5  16
ATOM     15  C1  UNL     1       8.037   5.660  21.569  0.00  0.00    +0.279 C 
ATOM     16  O1  UNL     1       8.469   4.349  21.225  0.00  0.00    -0.480 OA
ENDBRANCH   5  16
ENDBRANCH   1  10
BRANCH   3  17
ATOM     17  C8  UNL     1       8.906  -0.653  29.130  0.00  0.00    +0.034 A 
ATOM     18  C9  UNL     1       9.648  -1.685  29.727  0.00  0.00    +0.024 A 
ATOM     19  C10 UNL     1       9.437  -2.026  31.067  0.00  0.00    +0.012 A 
ATOM     20  C11 UNL     1       8.483  -1.338  31.839  0.00  0.00    +0.001 A 
ATOM     21  C16 UNL     1       7.765  -0.283  31.244  0.00  0.00    +0.012 A 
ATOM     22  C17 UNL     1       7.980   0.057  29.906  0.00  0.00    +0.024 A 
BRANCH  20  23
ATOM     23  C12 UNL     1       8.276  -1.710  33.263  0.00  0.00    +0.074 A 
ATOM     24  C13 UNL     1       8.949  -2.795  33.850  0.00  0.00    +0.048 A 
ATOM     25  C14 UNL     1       8.711  -3.085  35.193  0.00  0.00    +0.114 A 
ATOM     26  N3  UNL     1       7.847  -2.321  35.910  0.00  0.00    -0.244 NA
ATOM     27  C15 UNL     1       7.208  -1.271  35.337  0.00  0.00    +0.221 A 
ATOM     28  N4  UNL     1       7.426  -0.972  34.029  0.00  0.00    -0.235 NA
ENDBRANCH  20  23
ENDBRANCH   3  17
TORSDOF 4
ENDMDL
MODEL 9
REMARK VINA RESULT:    -5.703      2.691     10.580
REMARK INTER + INTRA:          -7.515
REMARK INTER:                  -7.010
REMARK INTRA:                  -0.505
REMARK UNBOUND:                -0.478
REMARK  Name = /home/qwerty/github/datacon2025hack/step_04_hit_selection/docking/ligands/lig_67.pdb
REMARK  5 active torsions:
REMARK  status: ('A' for Active; 'I' for Inactive)
REMARK    1  A    between atoms: C1_1  and  O1_2
REMARK    2  A    between atoms: O1_2  and  C2_3
REMARK    3  A    between atoms: C6_8  and  C7_9
REMARK    4  A    between atoms: N2_11  and  C8_12
REMARK    5  A    between atoms: C11_15  and  C12_16
REMARK                            x       y       z     vdW  Elec       q    Type
REMARK                         _______ _______ _______ _____ _____    ______ ____
ROOT
ATOM      1  C7  UNL     1      19.400   8.209  18.990  0.00  0.00    +0.265 C 
ATOM      2  O2  UNL     1      20.082   7.321  18.409  0.00  0.00    -0.268 OA
ATOM      3  N2  UNL     1      18.166   7.860  19.639  0.00  0.00    -0.280 N 
ATOM      4  H7  UNL     1      17.437   8.601  19.741  0.00  0.00    +0.155 HD
ENDROOT
BRANCH   1  10
ATOM      5  C2  UNL     1      21.882  13.606  18.763  0.00  0.00    +0.215 A 
ATOM      6  C3  UNL     1      20.569  14.041  19.064  0.00  0.00    +0.069 A 
ATOM      7  C4  UNL     1      19.537  13.099  19.224  0.00  0.00    +0.033 A 
ATOM      8  C5  UNL     1      19.867  11.756  19.073  0.00  0.00    +0.066 A 
ATOM      9  N1  UNL     1      19.065  10.685  19.183  0.00  0.00    -0.349 N 
ATOM     10  C6  UNL     1      19.862   9.609  18.953  0.00  0.00    +0.105 A 
ATOM     11  C18 UNL     1      21.178  10.005  18.701  0.00  0.00    +0.060 A 
ATOM     12  C19 UNL     1      21.143  11.376  18.784  0.00  0.00    +0.093 A 
ATOM     13  N5  UNL     1      22.151  12.269  18.628  0.00  0.00    -0.211 NA
ATOM     14  H6  UNL     1      18.047  10.693  19.416  0.00  0.00    +0.166 HD
BRANCH   5  16
ATOM     15  C1  UNL     1      23.628  15.087  19.705  0.00  0.00    +0.279 C 
ATOM     16  O1  UNL     1      22.895  14.557  18.607  0.00  0.00    -0.480 OA
ENDBRANCH   5  16
ENDBRANCH   1  10
BRANCH   3  17
ATOM     17  C8  UNL     1      17.818   6.520  20.027  0.00  0.00    +0.034 A 
ATOM     18  C9  UNL     1      18.408   5.904  21.143  0.00  0.00    +0.024 A 
ATOM     19  C10 UNL     1      18.037   4.608  21.515  0.00  0.00    +0.012 A 
ATOM     20  C11 UNL     1      17.065   3.903  20.783  0.00  0.00    +0.001 A 
ATOM     21  C16 UNL     1      16.453   4.537  19.685  0.00  0.00    +0.012 A 
ATOM     22  C17 UNL     1      16.825   5.833  19.317  0.00  0.00    +0.024 A 
BRANCH  20  23
ATOM     23  C12 UNL     1      16.679   2.529  21.198  0.00  0.00    +0.074 A 
ATOM     24  C13 UNL     1      16.146   1.602  20.286  0.00  0.00    +0.048 A 
ATOM     25  C14 UNL     1      15.810   0.328  20.742  0.00  0.00    +0.114 A 
ATOM     26  N3  UNL     1      16.007  -0.001  22.044  0.00  0.00    -0.244 NA
ATOM     27  C15 UNL     1      16.530   0.898  22.917  0.00  0.00    +0.221 A 
ATOM     28  N4  UNL     1      16.862   2.145  22.492  0.00  0.00    -0.235 NA
ENDBRANCH  20  23
ENDBRANCH   3  17
TORSDOF 4
ENDMDL
