REMARK  Name = /home/qwerty/github/datacon2025hack/step_04_hit_selection/docking/ligands/lig_560.pdb
REMARK  5 active torsions:
REMARK  status: ('A' for Active; 'I' for Inactive)
REMARK    1  A    between atoms: C1_2  and  C9_12
REMARK    2  A    between atoms: N1_3  and  C2_4
REMARK    3  A    between atoms: C5_7  and  C6_8
REMARK    4  A    between atoms: C6_8  and  O2_9
REMARK    5  A    between atoms: C11_14  and  C12_15
REMARK                            x       y       z     vdW  Elec       q    Type
REMARK                         _______ _______ _______ _____ _____    ______ ____
ROOT
ATOM      1  O1  UNL     1       0.483  -3.023   0.697  0.00  0.00    -0.268 OA
ATOM      2  C1  UNL     1      -0.036  -1.957   0.268  0.00  0.00    +0.266 C 
ATOM      3  N1  UNL     1       0.803  -0.895  -0.214  0.00  0.00    -0.307 N 
ATOM      4  H1  UNL     1       0.360  -0.040  -0.617  0.00  0.00    +0.149 HD
ENDROOT
BRANCH   3   5
ATOM      5  C2  UNL     1       2.268  -0.976  -0.160  0.00  0.00    +0.073 C 
ATOM      6  C3  UNL     1       2.745  -0.828   1.308  0.00  0.00    +0.022 C 
ATOM      7  C4  UNL     1       4.128  -0.176   1.398  0.00  0.00    +0.007 C 
ATOM      8  C5  UNL     1       4.099   1.264   0.826  0.00  0.00    +0.015 C 
ATOM      9  C7  UNL     1       3.149   1.410  -0.396  0.00  0.00    +0.007 C 
ATOM     10  C8  UNL     1       2.909   0.072  -1.106  0.00  0.00    +0.022 C 
BRANCH   8  11
ATOM     11  C6  UNL     1       5.522   1.768   0.516  0.00  0.00    +0.159 C 
BRANCH  11  12
ATOM     12  O2  UNL     1       6.074   1.090  -0.582  0.00  0.00    -0.395 OA
ATOM     13  H10 UNL     1       6.640   0.360  -0.220  0.00  0.00    +0.209 HD
ENDBRANCH  11  12
ENDBRANCH   8  11
ENDBRANCH   3   5
BRANCH   2  14
ATOM     14  C9  UNL     1      -1.505  -1.832   0.270  0.00  0.00    +0.168 A 
ATOM     15  C10 UNL     1      -2.251  -0.737  -0.124  0.00  0.00    +0.086 A 
ATOM     16  C11 UNL     1      -3.559  -1.140   0.082  0.00  0.00    +0.168 A 
ATOM     17  O3  UNL     1      -3.546  -2.366   0.555  0.00  0.00    -0.354 OA
ATOM     18  N2  UNL     1      -2.331  -2.813   0.682  0.00  0.00    -0.073 NA
BRANCH  16  19
ATOM     19  C12 UNL     1      -4.793  -0.363  -0.170  0.00  0.00    +0.020 A 
ATOM     20  C13 UNL     1      -6.046  -0.941   0.103  0.00  0.00    +0.011 A 
ATOM     21  C14 UNL     1      -7.224  -0.224  -0.129  0.00  0.00    +0.001 A 
ATOM     22  C15 UNL     1      -7.164   1.077  -0.634  0.00  0.00    +0.000 A 
ATOM     23  C16 UNL     1      -5.926   1.662  -0.909  0.00  0.00    +0.001 A 
ATOM     24  C17 UNL     1      -4.745   0.949  -0.679  0.00  0.00    +0.011 A 
ENDBRANCH  16  19
ENDBRANCH   2  14
TORSDOF 5
