REMARK  Name = /home/qwerty/github/datacon2025hack/step_04_hit_selection/docking/ligands/lig_206.pdb
REMARK  5 active torsions:
REMARK  status: ('A' for Active; 'I' for Inactive)
REMARK    1  A    between atoms: C1_1  and  C2_2
REMARK    2  A    between atoms: C3_3  and  N1_4
REMARK    3  A    between atoms: C4_5  and  C5_7
REMARK    4  A    between atoms: C12_17  and  C13_19
REMARK    5  A    between atoms: C13_19  and  C14_20
REMARK                            x       y       z     vdW  Elec       q    Type
REMARK                         _______ _______ _______ _____ _____    ______ ____
ROOT
ATOM      1  C1  UNL     1       1.056  -0.438   1.091  0.00  0.00    +0.030 C 
ATOM      2  C2  UNL     1       0.539  -0.270  -0.345  0.00  0.00    +0.093 C 
ATOM      3  C3  UNL     1      -0.857   0.407  -0.347  0.00  0.00    +0.093 C 
ATOM      4  C9  UNL     1      -1.201   0.857  -1.775  0.00  0.00    +0.025 C 
ATOM      5  C10 UNL     1      -0.183   1.870  -2.334  0.00  0.00    +0.021 C 
ATOM      6  C11 UNL     1       1.173   1.858  -1.607  0.00  0.00    +0.108 C 
ATOM      7  N4  UNL     1       1.512   0.505  -1.142  0.00  0.00    -0.297 N 
ATOM      8  C12 UNL     1       2.803  -0.068  -1.428  0.00  0.00    +0.223 C 
ATOM      9  O2  UNL     1       2.884  -1.281  -1.765  0.00  0.00    -0.275 OA
ENDROOT
BRANCH   3  10
ATOM     10  N1  UNL     1      -1.890  -0.513   0.147  0.00  0.00    -0.307 N 
ATOM     11  C4  UNL     1      -3.190  -0.054   0.552  0.00  0.00    +0.246 C 
ATOM     12  O1  UNL     1      -3.406   1.184   0.661  0.00  0.00    -0.270 OA
ATOM     13  H6  UNL     1      -1.649  -1.521   0.279  0.00  0.00    +0.149 HD
BRANCH  11  14
ATOM     14  C5  UNL     1      -4.279  -1.010   0.865  0.00  0.00    +0.058 A 
ATOM     15  C6  UNL     1      -4.284  -2.314   0.346  0.00  0.00    +0.036 A 
ATOM     16  C7  UNL     1      -5.334  -3.175   0.662  0.00  0.00    +0.135 A 
ATOM     17  N2  UNL     1      -6.342  -2.740   1.462  0.00  0.00    -0.158 NA
ATOM     18  N3  UNL     1      -6.352  -1.500   1.953  0.00  0.00    -0.157 NA
ATOM     19  C8  UNL     1      -5.355  -0.618   1.677  0.00  0.00    +0.148 A 
ENDBRANCH  11  14
ENDBRANCH   3  10
BRANCH   8  20
ATOM     20  C13 UNL     1       4.070   0.708  -1.202  0.00  0.00    +0.174 C 
BRANCH  20  21
ATOM     21  C14 UNL     1       4.450   0.630   0.240  0.00  0.00    +0.159 A 
ATOM     22  N5  UNL     1       4.091   1.554   1.158  0.00  0.00    -0.219 NA
ATOM     23  C15 UNL     1       4.577   1.024   2.297  0.00  0.00    +0.216 A 
ATOM     24  N6  UNL     1       5.181  -0.154   2.073  0.00  0.00    -0.265 N 
ATOM     25  N7  UNL     1       5.100  -0.418   0.782  0.00  0.00    -0.157 NA
ATOM     26  H19 UNL     1       5.630  -0.775   2.783  0.00  0.00    +0.190 HD
ENDBRANCH  20  21
ENDBRANCH   8  20
TORSDOF 4
