MODEL 1
REMARK VINA RESULT:    -5.956      0.000      0.000
REMARK INTER + INTRA:          -7.132
REMARK INTER:                  -6.827
REMARK INTRA:                  -0.305
REMARK UNBOUND:                -0.305
REMARK  Name = /home/qwerty/github/datacon2025hack/step_04_hit_selection/docking/ligands/lig_568.pdb
REMARK  3 active torsions:
REMARK  status: ('A' for Active; 'I' for Inactive)
REMARK    1  A    between atoms: N1_3  and  C2_4
REMARK    2  A    between atoms: C5_7  and  O2_8
REMARK    3  A    between atoms: N2_11  and  C8_12
REMARK                            x       y       z     vdW  Elec       q    Type
REMARK                         _______ _______ _______ _____ _____    ______ ____
ROOT
ATOM      1  O1  UNL     1      20.705   3.132  27.682  0.00  0.00    -0.252 OA
ATOM      2  C1  UNL     1      21.856   2.646  27.515  0.00  0.00    +0.308 C 
ATOM      3  N1  UNL     1      22.431   1.787  28.511  0.00  0.00    -0.269 N 
ATOM      4  N2  UNL     1      22.604   2.947  26.327  0.00  0.00    -0.267 N 
ATOM      5  H1  UNL     1      23.249   1.200  28.228  0.00  0.00    +0.156 HD
ATOM      6  H7  UNL     1      23.629   2.742  26.338  0.00  0.00    +0.156 HD
ENDROOT
BRANCH   4   7
ATOM      7  C8  UNL     1      22.055   3.614  25.176  0.00  0.00    +0.070 A 
ATOM      8  C9  UNL     1      21.096   2.986  24.359  0.00  0.00    +0.029 A 
ATOM      9  C10 UNL     1      20.594   3.641  23.230  0.00  0.00    +0.040 A 
ATOM     10  C11 UNL     1      21.049   4.919  22.900  0.00  0.00    +0.126 A 
ATOM     11  F1  UNL     1      20.562   5.551  21.804  0.00  0.00    -0.205 F 
ATOM     12  C12 UNL     1      22.016   5.542  23.694  0.00  0.00    +0.078 A 
ATOM     13  C13 UNL     1      22.524   4.892  24.823  0.00  0.00    +0.147 A 
ATOM     14  F2  UNL     1      23.460   5.514  25.583  0.00  0.00    -0.203 F 
ENDBRANCH   4   7
BRANCH   3  15
ATOM     15  C2  UNL     1      21.881   1.590  29.824  0.00  0.00    +0.035 A 
ATOM     16  C3  UNL     1      22.140   2.537  30.828  0.00  0.00    +0.027 A 
ATOM     17  C4  UNL     1      21.598   2.381  32.107  0.00  0.00    +0.047 A 
ATOM     18  C5  UNL     1      20.776   1.284  32.394  0.00  0.00    +0.117 A 
ATOM     19  C6  UNL     1      20.495   0.348  31.394  0.00  0.00    +0.047 A 
ATOM     20  C7  UNL     1      21.038   0.501  30.113  0.00  0.00    +0.027 A 
BRANCH  18  21
ATOM     21  O2  UNL     1      20.231   1.117  33.664  0.00  0.00    -0.507 OA
ATOM     22  H4  UNL     1      20.754   0.676  34.412  0.00  0.00    +0.292 HD
ENDBRANCH  18  21
ENDBRANCH   3  15
TORSDOF 3
ENDMDL
MODEL 2
REMARK VINA RESULT:    -5.956      6.707      7.534
REMARK INTER + INTRA:          -7.132
REMARK INTER:                  -6.821
REMARK INTRA:                  -0.311
REMARK UNBOUND:                -0.305
REMARK  Name = /home/qwerty/github/datacon2025hack/step_04_hit_selection/docking/ligands/lig_568.pdb
REMARK  3 active torsions:
REMARK  status: ('A' for Active; 'I' for Inactive)
REMARK    1  A    between atoms: N1_3  and  C2_4
REMARK    2  A    between atoms: C5_7  and  O2_8
REMARK    3  A    between atoms: N2_11  and  C8_12
REMARK                            x       y       z     vdW  Elec       q    Type
REMARK                         _______ _______ _______ _____ _____    ______ ____
ROOT
ATOM      1  O1  UNL     1      21.385   4.773  32.579  0.00  0.00    -0.252 OA
ATOM      2  C1  UNL     1      22.043   4.276  33.534  0.00  0.00    +0.308 C 
ATOM      3  N1  UNL     1      21.815   2.918  33.941  0.00  0.00    -0.269 N 
ATOM      4  N2  UNL     1      23.026   5.063  34.223  0.00  0.00    -0.267 N 
ATOM      5  H1  UNL     1      22.544   2.465  34.537  0.00  0.00    +0.156 HD
ATOM      6  H7  UNL     1      23.360   4.713  35.150  0.00  0.00    +0.156 HD
ENDROOT
BRANCH   4   7
ATOM      7  C8  UNL     1      23.488   6.350  33.774  0.00  0.00    +0.070 A 
ATOM      8  C9  UNL     1      22.710   7.508  33.959  0.00  0.00    +0.029 A 
ATOM      9  C10 UNL     1      23.165   8.745  33.492  0.00  0.00    +0.040 A 
ATOM     10  C11 UNL     1      24.390   8.837  32.828  0.00  0.00    +0.126 A 
ATOM     11  F1  UNL     1      24.828  10.037  32.375  0.00  0.00    -0.205 F 
ATOM     12  C12 UNL     1      25.160   7.689  32.621  0.00  0.00    +0.078 A 
ATOM     13  C13 UNL     1      24.710   6.448  33.084  0.00  0.00    +0.147 A 
ATOM     14  F2  UNL     1      25.471   5.346  32.876  0.00  0.00    -0.203 F 
ENDBRANCH   4   7
BRANCH   3  15
ATOM     15  C2  UNL     1      20.719   2.109  33.481  0.00  0.00    +0.035 A 
ATOM     16  C3  UNL     1      20.890   1.301  32.346  0.00  0.00    +0.027 A 
ATOM     17  C4  UNL     1      19.849   0.488  31.890  0.00  0.00    +0.047 A 
ATOM     18  C5  UNL     1      18.627   0.462  32.574  0.00  0.00    +0.117 A 
ATOM     19  C6  UNL     1      18.455   1.248  33.718  0.00  0.00    +0.047 A 
ATOM     20  C7  UNL     1      19.496   2.063  34.175  0.00  0.00    +0.027 A 
BRANCH  18  21
ATOM     21  O2  UNL     1      17.580  -0.343  32.131  0.00  0.00    -0.507 OA
ATOM     22  H4  UNL     1      17.337  -0.402  31.149  0.00  0.00    +0.292 HD
ENDBRANCH  18  21
ENDBRANCH   3  15
TORSDOF 3
ENDMDL
MODEL 3
REMARK VINA RESULT:    -5.884     11.181     13.719
REMARK INTER + INTRA:          -7.049
REMARK INTER:                  -6.690
REMARK INTRA:                  -0.359
REMARK UNBOUND:                -0.305
REMARK  Name = /home/qwerty/github/datacon2025hack/step_04_hit_selection/docking/ligands/lig_568.pdb
REMARK  3 active torsions:
REMARK  status: ('A' for Active; 'I' for Inactive)
REMARK    1  A    between atoms: N1_3  and  C2_4
REMARK    2  A    between atoms: C5_7  and  O2_8
REMARK    3  A    between atoms: N2_11  and  C8_12
REMARK                            x       y       z     vdW  Elec       q    Type
REMARK                         _______ _______ _______ _____ _____    ______ ____
ROOT
ATOM      1  O1  UNL     1      11.809   6.331  21.342  0.00  0.00    -0.252 OA
ATOM      2  C1  UNL     1      11.120   5.926  20.366  0.00  0.00    +0.308 C 
ATOM      3  N1  UNL     1      11.442   4.685  19.718  0.00  0.00    -0.269 N 
ATOM      4  N2  UNL     1      10.009   6.701  19.893  0.00  0.00    -0.267 N 
ATOM      5  H1  UNL     1      10.710   4.257  19.107  0.00  0.00    +0.156 HD
ATOM      6  H7  UNL     1       9.629   6.471  18.946  0.00  0.00    +0.156 HD
ENDROOT
BRANCH   4   7
ATOM      7  C8  UNL     1       9.466   7.839  20.587  0.00  0.00    +0.070 A 
ATOM      8  C9  UNL     1       8.410   7.696  21.506  0.00  0.00    +0.029 A 
ATOM      9  C10 UNL     1       7.880   8.818  22.151  0.00  0.00    +0.040 A 
ATOM     10  C11 UNL     1       8.388  10.090  21.877  0.00  0.00    +0.126 A 
ATOM     11  F1  UNL     1       7.871  11.176  22.502  0.00  0.00    -0.205 F 
ATOM     12  C12 UNL     1       9.423  10.244  20.951  0.00  0.00    +0.078 A 
ATOM     13  C13 UNL     1       9.956   9.126  20.301  0.00  0.00    +0.147 A 
ATOM     14  F2  UNL     1      10.962   9.295  19.406  0.00  0.00    -0.203 F 
ENDBRANCH   4   7
BRANCH   3  15
ATOM     15  C2  UNL     1      12.647   3.938  19.954  0.00  0.00    +0.035 A 
ATOM     16  C3  UNL     1      12.571   2.700  20.612  0.00  0.00    +0.027 A 
ATOM     17  C4  UNL     1      13.725   1.943  20.835  0.00  0.00    +0.047 A 
ATOM     18  C5  UNL     1      14.968   2.409  20.388  0.00  0.00    +0.117 A 
ATOM     19  C6  UNL     1      15.049   3.630  19.712  0.00  0.00    +0.047 A 
ATOM     20  C7  UNL     1      13.896   4.390  19.489  0.00  0.00    +0.027 A 
BRANCH  18  21
ATOM     21  O2  UNL     1      16.125   1.664  20.604  0.00  0.00    -0.507 OA
ATOM     22  H4  UNL     1      16.873   1.638  19.920  0.00  0.00    +0.292 HD
ENDBRANCH  18  21
ENDBRANCH   3  15
TORSDOF 3
ENDMDL
MODEL 4
REMARK VINA RESULT:    -5.866      4.445      8.503
REMARK INTER + INTRA:          -7.028
REMARK INTER:                  -6.719
REMARK INTRA:                  -0.309
REMARK UNBOUND:                -0.305
REMARK  Name = /home/qwerty/github/datacon2025hack/step_04_hit_selection/docking/ligands/lig_568.pdb
REMARK  3 active torsions:
REMARK  status: ('A' for Active; 'I' for Inactive)
REMARK    1  A    between atoms: N1_3  and  C2_4
REMARK    2  A    between atoms: C5_7  and  O2_8
REMARK    3  A    between atoms: N2_11  and  C8_12
REMARK                            x       y       z     vdW  Elec       q    Type
REMARK                         _______ _______ _______ _____ _____    ______ ____
ROOT
ATOM      1  O1  UNL     1      19.823   2.236  30.168  0.00  0.00    -0.252 OA
ATOM      2  C1  UNL     1      20.488   1.178  30.335  0.00  0.00    +0.308 C 
ATOM      3  N1  UNL     1      21.426   0.745  29.337  0.00  0.00    -0.269 N 
ATOM      4  N2  UNL     1      20.315   0.395  31.526  0.00  0.00    -0.267 N 
ATOM      5  H1  UNL     1      22.136   0.033  29.619  0.00  0.00    +0.156 HD
ATOM      6  H7  UNL     1      20.681  -0.585  31.516  0.00  0.00    +0.156 HD
ENDROOT
BRANCH   4   7
ATOM      7  C8  UNL     1      19.573   0.833  32.678  0.00  0.00    +0.070 A 
ATOM      8  C9  UNL     1      20.049   1.872  33.499  0.00  0.00    +0.029 A 
ATOM      9  C10 UNL     1      19.325   2.266  34.629  0.00  0.00    +0.040 A 
ATOM     10  C11 UNL     1      18.130   1.622  34.956  0.00  0.00    +0.126 A 
ATOM     11  F1  UNL     1      17.431   2.005  36.053  0.00  0.00    -0.205 F 
ATOM     12  C12 UNL     1      17.659   0.576  34.158  0.00  0.00    +0.078 A 
ATOM     13  C13 UNL     1      18.379   0.175  33.027  0.00  0.00    +0.147 A 
ATOM     14  F2  UNL     1      17.906  -0.841  32.264  0.00  0.00    -0.203 F 
ENDBRANCH   4   7
BRANCH   3  15
ATOM     15  C2  UNL     1      21.527   1.317  28.022  0.00  0.00    +0.035 A 
ATOM     16  C3  UNL     1      20.617   0.922  27.028  0.00  0.00    +0.027 A 
ATOM     17  C4  UNL     1      20.680   1.479  25.747  0.00  0.00    +0.047 A 
ATOM     18  C5  UNL     1      21.644   2.450  25.450  0.00  0.00    +0.117 A 
ATOM     19  C6  UNL     1      22.540   2.865  26.440  0.00  0.00    +0.047 A 
ATOM     20  C7  UNL     1      22.480   2.308  27.722  0.00  0.00    +0.027 A 
BRANCH  18  21
ATOM     21  O2  UNL     1      21.717   3.013  24.178  0.00  0.00    -0.507 OA
ATOM     22  H4  UNL     1      22.273   2.591  23.443  0.00  0.00    +0.292 HD
ENDBRANCH  18  21
ENDBRANCH   3  15
TORSDOF 3
ENDMDL
MODEL 5
REMARK VINA RESULT:    -5.749     11.785     13.803
REMARK INTER + INTRA:          -6.894
REMARK INTER:                  -6.504
REMARK INTRA:                  -0.391
REMARK UNBOUND:                -0.305
REMARK  Name = /home/qwerty/github/datacon2025hack/step_04_hit_selection/docking/ligands/lig_568.pdb
REMARK  3 active torsions:
REMARK  status: ('A' for Active; 'I' for Inactive)
REMARK    1  A    between atoms: N1_3  and  C2_4
REMARK    2  A    between atoms: C5_7  and  O2_8
REMARK    3  A    between atoms: N2_11  and  C8_12
REMARK                            x       y       z     vdW  Elec       q    Type
REMARK                         _______ _______ _______ _____ _____    ______ ____
ROOT
ATOM      1  O1  UNL     1      10.966   5.653  21.889  0.00  0.00    -0.252 OA
ATOM      2  C1  UNL     1      10.452   5.365  20.774  0.00  0.00    +0.308 C 
ATOM      3  N1  UNL     1      10.563   4.033  20.247  0.00  0.00    -0.269 N 
ATOM      4  N2  UNL     1       9.750   6.365  20.020  0.00  0.00    -0.267 N 
ATOM      5  H1  UNL     1       9.913   3.765  19.474  0.00  0.00    +0.156 HD
ATOM      6  H7  UNL     1       9.564   6.165  19.011  0.00  0.00    +0.156 HD
ENDROOT
BRANCH   4   7
ATOM      7  C8  UNL     1       9.394   7.660  20.536  0.00  0.00    +0.070 A 
ATOM      8  C9  UNL     1      10.174   8.797  20.252  0.00  0.00    +0.029 A 
ATOM      9  C10 UNL     1       9.826  10.042  20.784  0.00  0.00    +0.040 A 
ATOM     10  C11 UNL     1       8.707  10.164  21.610  0.00  0.00    +0.126 A 
ATOM     11  F1  UNL     1       8.372  11.372  22.126  0.00  0.00    -0.205 F 
ATOM     12  C12 UNL     1       7.938   9.037  21.914  0.00  0.00    +0.078 A 
ATOM     13  C13 UNL     1       8.282   7.788  21.387  0.00  0.00    +0.147 A 
ATOM     14  F2  UNL     1       7.522   6.707  21.692  0.00  0.00    -0.203 F 
ENDBRANCH   4   7
BRANCH   3  15
ATOM     15  C2  UNL     1      11.417   3.016  20.796  0.00  0.00    +0.035 A 
ATOM     16  C3  UNL     1      10.905   2.136  21.763  0.00  0.00    +0.027 A 
ATOM     17  C4  UNL     1      11.708   1.123  22.296  0.00  0.00    +0.047 A 
ATOM     18  C5  UNL     1      13.029   0.968  21.857  0.00  0.00    +0.117 A 
ATOM     19  C6  UNL     1      13.539   1.826  20.878  0.00  0.00    +0.047 A 
ATOM     20  C7  UNL     1      12.738   2.841  20.343  0.00  0.00    +0.027 A 
BRANCH  18  21
ATOM     21  O2  UNL     1      13.839  -0.036  22.380  0.00  0.00    -0.507 OA
ATOM     22  H4  UNL     1      14.601  -0.435  21.845  0.00  0.00    +0.292 HD
ENDBRANCH  18  21
ENDBRANCH   3  15
TORSDOF 3
ENDMDL
MODEL 6
REMARK VINA RESULT:    -5.732     15.071     15.574
REMARK INTER + INTRA:          -6.876
REMARK INTER:                  -6.590
REMARK INTRA:                  -0.285
REMARK UNBOUND:                -0.305
REMARK  Name = /home/qwerty/github/datacon2025hack/step_04_hit_selection/docking/ligands/lig_568.pdb
REMARK  3 active torsions:
REMARK  status: ('A' for Active; 'I' for Inactive)
REMARK    1  A    between atoms: N1_3  and  C2_4
REMARK    2  A    between atoms: C5_7  and  O2_8
REMARK    3  A    between atoms: N2_11  and  C8_12
REMARK                            x       y       z     vdW  Elec       q    Type
REMARK                         _______ _______ _______ _____ _____    ______ ____
ROOT
ATOM      1  O1  UNL     1      11.391  12.346  31.504  0.00  0.00    -0.252 OA
ATOM      2  C1  UNL     1      10.871  13.490  31.400  0.00  0.00    +0.308 C 
ATOM      3  N1  UNL     1      11.163  14.510  32.368  0.00  0.00    -0.269 N 
ATOM      4  N2  UNL     1       9.980  13.785  30.313  0.00  0.00    -0.267 N 
ATOM      5  H1  UNL     1      10.939  15.497  32.111  0.00  0.00    +0.156 HD
ATOM      6  H7  UNL     1       9.381  14.638  30.399  0.00  0.00    +0.156 HD
ENDROOT
BRANCH   4   7
ATOM      7  C8  UNL     1       9.781  12.924  29.178  0.00  0.00    +0.070 A 
ATOM      8  C9  UNL     1      10.820  12.675  28.261  0.00  0.00    +0.029 A 
ATOM      9  C10 UNL     1      10.599  11.855  27.150  0.00  0.00    +0.040 A 
ATOM     10  C11 UNL     1       9.341  11.287  26.937  0.00  0.00    +0.126 A 
ATOM     11  F1  UNL     1       9.129  10.494  25.858  0.00  0.00    -0.205 F 
ATOM     12  C12 UNL     1       8.298  11.544  27.831  0.00  0.00    +0.078 A 
ATOM     13  C13 UNL     1       8.512  12.365  28.943  0.00  0.00    +0.147 A 
ATOM     14  F2  UNL     1       7.488  12.602  29.800  0.00  0.00    -0.203 F 
ENDBRANCH   4   7
BRANCH   3  15
ATOM     15  C2  UNL     1      11.855  14.274  33.606  0.00  0.00    +0.035 A 
ATOM     16  C3  UNL     1      11.140  13.795  34.714  0.00  0.00    +0.027 A 
ATOM     17  C4  UNL     1      11.793  13.537  35.923  0.00  0.00    +0.047 A 
ATOM     18  C5  UNL     1      13.174  13.739  36.033  0.00  0.00    +0.117 A 
ATOM     19  C6  UNL     1      13.899  14.195  34.927  0.00  0.00    +0.047 A 
ATOM     20  C7  UNL     1      13.247  14.455  33.717  0.00  0.00    +0.027 A 
BRANCH  18  21
ATOM     21  O2  UNL     1      13.837  13.486  37.231  0.00  0.00    -0.507 OA
ATOM     22  H4  UNL     1      13.761  12.590  37.699  0.00  0.00    +0.292 HD
ENDBRANCH  18  21
ENDBRANCH   3  15
TORSDOF 3
ENDMDL
MODEL 7
REMARK VINA RESULT:    -5.726     11.815     14.150
REMARK INTER + INTRA:          -6.868
REMARK INTER:                  -6.489
REMARK INTRA:                  -0.379
REMARK UNBOUND:                -0.305
REMARK  Name = /home/qwerty/github/datacon2025hack/step_04_hit_selection/docking/ligands/lig_568.pdb
REMARK  3 active torsions:
REMARK  status: ('A' for Active; 'I' for Inactive)
REMARK    1  A    between atoms: N1_3  and  C2_4
REMARK    2  A    between atoms: C5_7  and  O2_8
REMARK    3  A    between atoms: N2_11  and  C8_12
REMARK                            x       y       z     vdW  Elec       q    Type
REMARK                         _______ _______ _______ _____ _____    ______ ____
ROOT
ATOM      1  O1  UNL     1      17.226  10.627  35.915  0.00  0.00    -0.252 OA
ATOM      2  C1  UNL     1      17.431  10.949  37.117  0.00  0.00    +0.308 C 
ATOM      3  N1  UNL     1      16.541  11.854  37.787  0.00  0.00    -0.269 N 
ATOM      4  N2  UNL     1      18.558  10.413  37.827  0.00  0.00    -0.267 N 
ATOM      5  H1  UNL     1      16.582  11.886  38.831  0.00  0.00    +0.156 HD
ATOM      6  H7  UNL     1      18.837  10.888  38.716  0.00  0.00    +0.156 HD
ENDROOT
BRANCH   4   7
ATOM      7  C8  UNL     1      19.388   9.346  37.335  0.00  0.00    +0.070 A 
ATOM      8  C9  UNL     1      19.214   8.022  37.781  0.00  0.00    +0.029 A 
ATOM      9  C10 UNL     1      20.048   7.004  37.309  0.00  0.00    +0.040 A 
ATOM     10  C11 UNL     1      21.068   7.296  36.402  0.00  0.00    +0.126 A 
ATOM     11  F1  UNL     1      21.876   6.307  35.947  0.00  0.00    -0.205 F 
ATOM     12  C12 UNL     1      21.262   8.610  35.969  0.00  0.00    +0.078 A 
ATOM     13  C13 UNL     1      20.433   9.634  36.438  0.00  0.00    +0.147 A 
ATOM     14  F2  UNL     1      20.635  10.904  36.005  0.00  0.00    -0.203 F 
ENDBRANCH   4   7
BRANCH   3  15
ATOM     15  C2  UNL     1      15.518  12.618  37.127  0.00  0.00    +0.035 A 
ATOM     16  C3  UNL     1      14.219  12.093  37.034  0.00  0.00    +0.027 A 
ATOM     17  C4  UNL     1      13.201  12.825  36.416  0.00  0.00    +0.047 A 
ATOM     18  C5  UNL     1      13.465  14.099  35.899  0.00  0.00    +0.117 A 
ATOM     19  C6  UNL     1      14.751  14.639  36.007  0.00  0.00    +0.047 A 
ATOM     20  C7  UNL     1      15.772  13.907  36.624  0.00  0.00    +0.027 A 
BRANCH  18  21
ATOM     21  O2  UNL     1      12.460  14.838  35.281  0.00  0.00    -0.507 OA
ATOM     22  H4  UNL     1      11.710  14.389  34.769  0.00  0.00    +0.292 HD
ENDBRANCH  18  21
ENDBRANCH   3  15
TORSDOF 3
ENDMDL
MODEL 8
REMARK VINA RESULT:    -5.703      9.800     12.157
REMARK INTER + INTRA:          -6.842
REMARK INTER:                  -6.534
REMARK INTRA:                  -0.307
REMARK UNBOUND:                -0.305
REMARK  Name = /home/qwerty/github/datacon2025hack/step_04_hit_selection/docking/ligands/lig_568.pdb
REMARK  3 active torsions:
REMARK  status: ('A' for Active; 'I' for Inactive)
REMARK    1  A    between atoms: N1_3  and  C2_4
REMARK    2  A    between atoms: C5_7  and  O2_8
REMARK    3  A    between atoms: N2_11  and  C8_12
REMARK                            x       y       z     vdW  Elec       q    Type
REMARK                         _______ _______ _______ _____ _____    ______ ____
ROOT
ATOM      1  O1  UNL     1      19.685   8.757  35.460  0.00  0.00    -0.252 OA
ATOM      2  C1  UNL     1      20.363   9.338  36.351  0.00  0.00    +0.308 C 
ATOM      3  N1  UNL     1      21.785   9.153  36.415  0.00  0.00    -0.269 N 
ATOM      4  N2  UNL     1      19.719  10.191  37.310  0.00  0.00    -0.267 N 
ATOM      5  H1  UNL     1      22.336   9.840  36.978  0.00  0.00    +0.156 HD
ATOM      6  H7  UNL     1      20.259  10.445  38.168  0.00  0.00    +0.156 HD
ENDROOT
BRANCH   4   7
ATOM      7  C8  UNL     1      18.348  10.617  37.216  0.00  0.00    +0.070 A 
ATOM      8  C9  UNL     1      17.296   9.789  37.651  0.00  0.00    +0.029 A 
ATOM      9  C10 UNL     1      15.969  10.211  37.528  0.00  0.00    +0.040 A 
ATOM     10  C11 UNL     1      15.677  11.453  36.961  0.00  0.00    +0.126 A 
ATOM     11  F1  UNL     1      14.389  11.859  36.841  0.00  0.00    -0.205 F 
ATOM     12  C12 UNL     1      16.713  12.274  36.508  0.00  0.00    +0.078 A 
ATOM     13  C13 UNL     1      18.043  11.857  36.626  0.00  0.00    +0.147 A 
ATOM     14  F2  UNL     1      19.036  12.668  36.182  0.00  0.00    -0.203 F 
ENDBRANCH   4   7
BRANCH   3  15
ATOM     15  C2  UNL     1      22.507   8.166  35.660  0.00  0.00    +0.035 A 
ATOM     16  C3  UNL     1      22.871   8.445  34.333  0.00  0.00    +0.027 A 
ATOM     17  C4  UNL     1      23.593   7.511  33.584  0.00  0.00    +0.047 A 
ATOM     18  C5  UNL     1      23.972   6.292  34.158  0.00  0.00    +0.117 A 
ATOM     19  C6  UNL     1      23.632   6.014  35.486  0.00  0.00    +0.047 A 
ATOM     20  C7  UNL     1      22.910   6.947  36.237  0.00  0.00    +0.027 A 
BRANCH  18  21
ATOM     21  O2  UNL     1      24.691   5.352  33.422  0.00  0.00    -0.507 OA
ATOM     22  H4  UNL     1      24.940   5.516  32.454  0.00  0.00    +0.292 HD
ENDBRANCH  18  21
ENDBRANCH   3  15
TORSDOF 3
ENDMDL
MODEL 9
REMARK VINA RESULT:    -5.649     10.531     13.298
REMARK INTER + INTRA:          -6.780
REMARK INTER:                  -6.391
REMARK INTRA:                  -0.389
REMARK UNBOUND:                -0.305
REMARK  Name = /home/qwerty/github/datacon2025hack/step_04_hit_selection/docking/ligands/lig_568.pdb
REMARK  3 active torsions:
REMARK  status: ('A' for Active; 'I' for Inactive)
REMARK    1  A    between atoms: N1_3  and  C2_4
REMARK    2  A    between atoms: C5_7  and  O2_8
REMARK    3  A    between atoms: N2_11  and  C8_12
REMARK                            x       y       z     vdW  Elec       q    Type
REMARK                         _______ _______ _______ _____ _____    ______ ____
ROOT
ATOM      1  O1  UNL     1      11.867   4.561  21.782  0.00  0.00    -0.252 OA
ATOM      2  C1  UNL     1      11.429   4.085  20.700  0.00  0.00    +0.308 C 
ATOM      3  N1  UNL     1      10.419   4.785  19.957  0.00  0.00    -0.269 N 
ATOM      4  N2  UNL     1      11.934   2.837  20.201  0.00  0.00    -0.267 N 
ATOM      5  H1  UNL     1      10.277   4.508  18.959  0.00  0.00    +0.156 HD
ATOM      6  H7  UNL     1      11.380   2.356  19.456  0.00  0.00    +0.156 HD
ENDROOT
BRANCH   4   7
ATOM      7  C8  UNL     1      13.083   2.159  20.741  0.00  0.00    +0.070 A 
ATOM      8  C9  UNL     1      12.944   1.151  21.713  0.00  0.00    +0.029 A 
ATOM      9  C10 UNL     1      14.074   0.522  22.244  0.00  0.00    +0.040 A 
ATOM     10  C11 UNL     1      15.351   0.899  21.821  0.00  0.00    +0.126 A 
ATOM     11  F1  UNL     1      16.445   0.289  22.338  0.00  0.00    -0.205 F 
ATOM     12  C12 UNL     1      15.500   1.914  20.871  0.00  0.00    +0.078 A 
ATOM     13  C13 UNL     1      14.373   2.548  20.337  0.00  0.00    +0.147 A 
ATOM     14  F2  UNL     1      14.538   3.529  19.415  0.00  0.00    -0.203 F 
ENDBRANCH   4   7
BRANCH   3  15
ATOM     15  C2  UNL     1       9.686   5.916  20.456  0.00  0.00    +0.035 A 
ATOM     16  C3  UNL     1       8.463   5.707  21.114  0.00  0.00    +0.027 A 
ATOM     17  C4  UNL     1       7.741   6.788  21.629  0.00  0.00    +0.047 A 
ATOM     18  C5  UNL     1       8.242   8.090  21.506  0.00  0.00    +0.117 A 
ATOM     19  C6  UNL     1       9.470   8.305  20.871  0.00  0.00    +0.047 A 
ATOM     20  C7  UNL     1      10.193   7.225  20.354  0.00  0.00    +0.027 A 
BRANCH  18  21
ATOM     21  O2  UNL     1       7.533   9.176  22.014  0.00  0.00    -0.507 OA
ATOM     22  H4  UNL     1       7.492  10.060  21.520  0.00  0.00    +0.292 HD
ENDBRANCH  18  21
ENDBRANCH   3  15
TORSDOF 3
ENDMDL
