REMARK  Name = /home/qwerty/github/datacon2025hack/step_04_hit_selection/docking/ligands/lig_223.pdb
REMARK  3 active torsions:
REMARK  status: ('A' for Active; 'I' for Inactive)
REMARK    1  A    between atoms: C1_1  and  C2_2
REMARK    2  A    between atoms: N1_4  and  C3_5
REMARK    3  A    between atoms: C14_19  and  C15_20
REMARK                            x       y       z     vdW  Elec       q    Type
REMARK                         _______ _______ _______ _____ _____    ______ ____
ROOT
ATOM      1  C3  UNL     1      -4.363   0.056   0.128  0.00  0.00    +0.037 A 
ATOM      2  C4  UNL     1      -4.842   1.188   0.811  0.00  0.00    +0.023 A 
ATOM      3  C5  UNL     1      -3.994   2.259   1.094  0.00  0.00    +0.002 A 
ATOM      4  C6  UNL     1      -2.655   2.214   0.708  0.00  0.00    +0.005 A 
ATOM      5  C7  UNL     1      -2.152   1.087   0.044  0.00  0.00    -0.025 A 
ATOM      6  C8  UNL     1      -2.999   0.001  -0.248  0.00  0.00    -0.020 A 
ATOM      7  C9  UNL     1      -2.422  -1.126  -1.072  0.00  0.00    +0.056 C 
ATOM      8  C10 UNL     1      -1.014  -1.502  -0.582  0.00  0.00    +0.114 C 
ATOM      9  N2  UNL     1      -0.185  -0.324  -0.259  0.00  0.00    -0.281 N 
ATOM     10  C11 UNL     1       1.196  -0.531   0.098  0.00  0.00    +0.308 C 
ATOM     11  O2  UNL     1       1.799  -1.558  -0.317  0.00  0.00    -0.252 OA
ATOM     12  N3  UNL     1       1.870   0.384   0.977  0.00  0.00    -0.251 N 
ATOM     13  C12 UNL     1       3.295   0.527   1.042  0.00  0.00    +0.169 A 
ATOM     14  C13 UNL     1       4.213   0.091   0.105  0.00  0.00    +0.097 A 
ATOM     15  C14 UNL     1       5.416   0.525   0.623  0.00  0.00    +0.176 A 
ATOM     16  O3  UNL     1       5.194   1.157   1.753  0.00  0.00    -0.352 OA
ATOM     17  N4  UNL     1       3.923   1.184   2.035  0.00  0.00    -0.062 NA
ATOM     18  C19 UNL     1      -0.722   1.038  -0.418  0.00  0.00    +0.144 C 
ATOM     19  H12 UNL     1       1.300   0.929   1.662  0.00  0.00    +0.158 HD
ENDROOT
BRANCH  15  20
ATOM     20  C15 UNL     1       6.744   0.332   0.028  0.00  0.00    +0.059 A 
ATOM     21  C16 UNL     1       7.943   0.784   0.569  0.00  0.00    +0.021 A 
ATOM     22  C17 UNL     1       9.057   0.459  -0.213  0.00  0.00    +0.028 A 
ATOM     23  C18 UNL     1       8.730  -0.246  -1.362  0.00  0.00    +0.079 A 
ATOM     24 CL1  UNL     1       9.863  -0.816  -2.569  0.00  0.00    -0.076 Cl
ATOM     25  S1  UNL     1       7.065  -0.470  -1.418  0.00  0.00    -0.074 S 
ENDBRANCH  15  20
BRANCH   1  29
ATOM     26  C1  UNL     1      -7.480  -2.040  -0.817  0.00  0.00    +0.109 C 
ATOM     27  C2  UNL     1      -6.559  -0.870  -0.698  0.00  0.00    +0.214 C 
ATOM     28  O1  UNL     1      -6.917   0.251  -1.153  0.00  0.00    -0.276 OA
ATOM     29  N1  UNL     1      -5.251  -1.043  -0.134  0.00  0.00    -0.285 N 
ATOM     30  H4  UNL     1      -4.941  -2.010   0.106  0.00  0.00    +0.155 HD
ENDBRANCH   1  29
TORSDOF 2
