MODEL 1
REMARK VINA RESULT:    -6.347      0.000      0.000
REMARK INTER + INTRA:          -8.910
REMARK INTER:                  -8.203
REMARK INTRA:                  -0.707
REMARK UNBOUND:                -0.707
REMARK  Name = /home/qwerty/github/datacon2025hack/step_04_hit_selection/docking/ligands/lig_34.pdb
REMARK  8 active torsions:
REMARK  status: ('A' for Active; 'I' for Inactive)
REMARK    1  A    between atoms: C1_1  and  C2_2
REMARK    2  A    between atoms: C2_2  and  N1_3
REMARK    3  A    between atoms: N2_6  and  C5_7
REMARK    4  A    between atoms: C8_10  and  N3_11
REMARK    5  A    between atoms: C9_12  and  C10_14
REMARK    6  A    between atoms: C12_16  and  C13_17
REMARK    7  A    between atoms: C12_16  and  O2_18
REMARK    8  A    between atoms: C16_21  and  O3_22
REMARK                            x       y       z     vdW  Elec       q    Type
REMARK                         _______ _______ _______ _____ _____    ______ ____
ROOT
ATOM      1  N3  UNL     1      12.500   6.348  20.255  0.00  0.00    -0.282 N 
ATOM      2  C9  UNL     1      11.089   6.632  20.225  0.00  0.00    +0.247 C 
ATOM      3  O1  UNL     1      10.280   5.689  20.007  0.00  0.00    -0.270 OA
ATOM      4  H12 UNL     1      13.174   7.084  19.950  0.00  0.00    +0.155 HD
ENDROOT
BRANCH   2   5
ATOM      5  C10 UNL     1      10.567   8.015  20.435  0.00  0.00    +0.046 C 
ATOM      6  C11 UNL     1       9.504   8.206  21.244  0.00  0.00    +0.022 C 
ATOM      7  C12 UNL     1       8.982   9.585  21.594  0.00  0.00    +0.100 C 
ATOM      8  C13 UNL     1       9.596  10.031  22.924  0.00  0.00    +0.050 C 
ATOM      9  C14 UNL     1       9.331  10.597  20.522  0.00  0.00    +0.010 C 
ATOM     10  C15 UNL     1      10.384  10.421  19.715  0.00  0.00    +0.008 C 
ATOM     11  C16 UNL     1      11.284   9.218  19.836  0.00  0.00    +0.172 C 
BRANCH   7  12
ATOM     12  O2  UNL     1       7.584   9.532  21.749  0.00  0.00    -0.381 OA
ATOM     13  H17 UNL     1       7.183   9.403  20.849  0.00  0.00    +0.211 HD
ENDBRANCH   7  12
BRANCH  11  14
ATOM     14  O3  UNL     1      12.386   9.562  20.631  0.00  0.00    -0.383 OA
ATOM     15  H21 UNL     1      13.155   9.020  20.312  0.00  0.00    +0.211 HD
ENDBRANCH  11  14
ENDBRANCH   2   5
BRANCH   1  19
ATOM     16  C5  UNL     1      14.023   2.481  21.177  0.00  0.00    +0.030 A 
ATOM     17  C6  UNL     1      13.302   3.214  22.131  0.00  0.00    +0.025 A 
ATOM     18  C7  UNL     1      12.807   4.483  21.821  0.00  0.00    +0.025 A 
ATOM     19  C8  UNL     1      13.040   5.050  20.559  0.00  0.00    +0.034 A 
ATOM     20  C17 UNL     1      13.749   4.307  19.597  0.00  0.00    +0.025 A 
ATOM     21  C18 UNL     1      14.243   3.037  19.908  0.00  0.00    +0.025 A 
BRANCH  16  25
ATOM     22  N1  UNL     1      16.188  -1.072  22.311  0.00  0.00    -0.300 NA
ATOM     23  C3  UNL     1      14.872  -0.799  22.951  0.00  0.00    +0.103 C 
ATOM     24  C4  UNL     1      14.453   0.678  22.874  0.00  0.00    +0.120 C 
ATOM     25  N2  UNL     1      14.540   1.178  21.498  0.00  0.00    -0.327 N 
ATOM     26  C19 UNL     1      15.267   0.391  20.498  0.00  0.00    +0.120 C 
ATOM     27  C20 UNL     1      16.515  -0.197  21.157  0.00  0.00    +0.103 C 
BRANCH  22  29
ATOM     28  C1  UNL     1      17.202  -2.356  24.162  0.00  0.00    +0.020 C 
ATOM     29  C2  UNL     1      17.295  -1.105  23.291  0.00  0.00    +0.081 C 
ENDBRANCH  22  29
ENDBRANCH  16  25
ENDBRANCH   1  19
TORSDOF 6
ENDMDL
MODEL 2
REMARK VINA RESULT:    -6.250      5.843     10.810
REMARK INTER + INTRA:          -8.784
REMARK INTER:                  -8.099
REMARK INTRA:                  -0.685
REMARK UNBOUND:                -0.707
REMARK  Name = /home/qwerty/github/datacon2025hack/step_04_hit_selection/docking/ligands/lig_34.pdb
REMARK  8 active torsions:
REMARK  status: ('A' for Active; 'I' for Inactive)
REMARK    1  A    between atoms: C1_1  and  C2_2
REMARK    2  A    between atoms: C2_2  and  N1_3
REMARK    3  A    between atoms: N2_6  and  C5_7
REMARK    4  A    between atoms: C8_10  and  N3_11
REMARK    5  A    between atoms: C9_12  and  C10_14
REMARK    6  A    between atoms: C12_16  and  C13_17
REMARK    7  A    between atoms: C12_16  and  O2_18
REMARK    8  A    between atoms: C16_21  and  O3_22
REMARK                            x       y       z     vdW  Elec       q    Type
REMARK                         _______ _______ _______ _____ _____    ______ ____
ROOT
ATOM      1  N3  UNL     1       8.679   8.207  24.331  0.00  0.00    -0.282 N 
ATOM      2  C9  UNL     1       8.719   8.267  22.893  0.00  0.00    +0.247 C 
ATOM      3  O1  UNL     1       8.631   9.391  22.325  0.00  0.00    -0.270 OA
ATOM      4  H12 UNL     1       8.272   7.366  24.794  0.00  0.00    +0.155 HD
ENDROOT
BRANCH   2   5
ATOM      5  C10 UNL     1       8.851   7.033  22.064  0.00  0.00    +0.046 C 
ATOM      6  C11 UNL     1       7.947   6.041  22.202  0.00  0.00    +0.022 C 
ATOM      7  C12 UNL     1       7.950   4.806  21.324  0.00  0.00    +0.100 C 
ATOM      8  C13 UNL     1       6.979   5.017  20.159  0.00  0.00    +0.050 C 
ATOM      9  C14 UNL     1       9.331   4.522  20.773  0.00  0.00    +0.010 C 
ATOM     10  C15 UNL     1      10.237   5.496  20.629  0.00  0.00    +0.008 C 
ATOM     11  C16 UNL     1       9.929   6.926  20.993  0.00  0.00    +0.172 C 
BRANCH   7  12
ATOM     12  O2  UNL     1       7.507   3.698  22.071  0.00  0.00    -0.381 OA
ATOM     13  H17 UNL     1       7.856   3.797  22.997  0.00  0.00    +0.211 HD
ENDBRANCH   7  12
BRANCH  11  14
ATOM     14  O3  UNL     1       9.520   7.605  19.836  0.00  0.00    -0.383 OA
ATOM     15  H21 UNL     1      10.000   7.190  19.072  0.00  0.00    +0.211 HD
ENDBRANCH  11  14
ENDBRANCH   2   5
BRANCH   1  19
ATOM     16  C5  UNL     1       9.744  11.427  26.905  0.00  0.00    +0.030 A 
ATOM     17  C6  UNL     1       8.418  10.974  26.835  0.00  0.00    +0.025 A 
ATOM     18  C7  UNL     1       8.076   9.917  25.985  0.00  0.00    +0.025 A 
ATOM     19  C8  UNL     1       9.050   9.308  25.179  0.00  0.00    +0.034 A 
ATOM     20  C17 UNL     1      10.382   9.752  25.264  0.00  0.00    +0.025 A 
ATOM     21  C18 UNL     1      10.723  10.808  26.114  0.00  0.00    +0.025 A 
BRANCH  16  25
ATOM     22  N1  UNL     1      11.088  14.186  29.934  0.00  0.00    -0.300 NA
ATOM     23  C3  UNL     1      11.493  14.420  28.521  0.00  0.00    +0.103 C 
ATOM     24  C4  UNL     1      11.408  13.158  27.647  0.00  0.00    +0.120 C 
ATOM     25  N2  UNL     1      10.094  12.519  27.773  0.00  0.00    -0.327 N 
ATOM     26  C19 UNL     1       9.207  12.922  28.867  0.00  0.00    +0.120 C 
ATOM     27  C20 UNL     1      10.052  13.140  30.123  0.00  0.00    +0.103 C 
BRANCH  22  29
ATOM     28  C1  UNL     1      12.207  14.916  32.012  0.00  0.00    +0.020 C 
ATOM     29  C2  UNL     1      12.249  13.960  30.822  0.00  0.00    +0.081 C 
ENDBRANCH  22  29
ENDBRANCH  16  25
ENDBRANCH   1  19
TORSDOF 6
ENDMDL
MODEL 3
REMARK VINA RESULT:    -6.183     15.541     16.831
REMARK INTER + INTRA:          -8.698
REMARK INTER:                  -7.913
REMARK INTRA:                  -0.785
REMARK UNBOUND:                -0.707
REMARK  Name = /home/qwerty/github/datacon2025hack/step_04_hit_selection/docking/ligands/lig_34.pdb
REMARK  8 active torsions:
REMARK  status: ('A' for Active; 'I' for Inactive)
REMARK    1  A    between atoms: C1_1  and  C2_2
REMARK    2  A    between atoms: C2_2  and  N1_3
REMARK    3  A    between atoms: N2_6  and  C5_7
REMARK    4  A    between atoms: C8_10  and  N3_11
REMARK    5  A    between atoms: C9_12  and  C10_14
REMARK    6  A    between atoms: C12_16  and  C13_17
REMARK    7  A    between atoms: C12_16  and  O2_18
REMARK    8  A    between atoms: C16_21  and  O3_22
REMARK                            x       y       z     vdW  Elec       q    Type
REMARK                         _______ _______ _______ _____ _____    ______ ____
ROOT
ATOM      1  N3  UNL     1      15.154  10.028  37.120  0.00  0.00    -0.282 N 
ATOM      2  C9  UNL     1      14.720  11.400  37.162  0.00  0.00    +0.247 C 
ATOM      3  O1  UNL     1      15.553  12.296  37.472  0.00  0.00    -0.270 OA
ATOM      4  H12 UNL     1      14.472   9.272  37.350  0.00  0.00    +0.155 HD
ENDROOT
BRANCH   2   5
ATOM      5  C10 UNL     1      13.310  11.782  36.855  0.00  0.00    +0.046 C 
ATOM      6  C11 UNL     1      13.069  12.789  35.989  0.00  0.00    +0.022 C 
ATOM      7  C12 UNL     1      11.670  13.166  35.545  0.00  0.00    +0.100 C 
ATOM      8  C13 UNL     1      11.357  12.458  34.223  0.00  0.00    +0.050 C 
ATOM      9  C14 UNL     1      10.636  12.769  36.577  0.00  0.00    +0.010 C 
ATOM     10  C15 UNL     1      10.860  11.771  37.440  0.00  0.00    +0.008 C 
ATOM     11  C16 UNL     1      12.145  10.982  37.424  0.00  0.00    +0.172 C 
BRANCH   7  12
ATOM     12  O2  UNL     1      11.605  14.555  35.327  0.00  0.00    -0.381 OA
ATOM     13  H17 UNL     1      10.893  14.921  35.916  0.00  0.00    +0.211 HD
ENDBRANCH   7  12
BRANCH  11  14
ATOM     14  O3  UNL     1      11.948   9.821  36.664  0.00  0.00    -0.383 OA
ATOM     15  H21 UNL     1      12.253   9.056  37.217  0.00  0.00    +0.211 HD
ENDBRANCH  11  14
ENDBRANCH   2   5
BRANCH   1  19
ATOM     16  C5  UNL     1      19.215   8.938  36.451  0.00  0.00    +0.030 A 
ATOM     17  C6  UNL     1      18.395   9.339  35.386  0.00  0.00    +0.025 A 
ATOM     18  C7  UNL     1      17.062   9.693  35.614  0.00  0.00    +0.025 A 
ATOM     19  C8  UNL     1      16.521   9.636  36.907  0.00  0.00    +0.034 A 
ATOM     20  C17 UNL     1      17.348   9.249  37.977  0.00  0.00    +0.025 A 
ATOM     21  C18 UNL     1      18.681   8.896  37.748  0.00  0.00    +0.025 A 
BRANCH  16  25
ATOM     22  N1  UNL     1      23.054   7.147  35.644  0.00  0.00    -0.300 NA
ATOM     23  C3  UNL     1      22.633   8.331  34.846  0.00  0.00    +0.103 C 
ATOM     24  C4  UNL     1      21.112   8.556  34.848  0.00  0.00    +0.120 C 
ATOM     25  N2  UNL     1      20.584   8.565  36.216  0.00  0.00    -0.327 N 
ATOM     26  C19 UNL     1      21.425   8.072  37.309  0.00  0.00    +0.120 C 
ATOM     27  C20 UNL     1      22.192   6.845  36.815  0.00  0.00    +0.103 C 
BRANCH  22  29
ATOM     28  C1  UNL     1      23.902   6.329  33.474  0.00  0.00    +0.020 C 
ATOM     29  C2  UNL     1      23.263   5.947  34.806  0.00  0.00    +0.081 C 
ENDBRANCH  22  29
ENDBRANCH  16  25
ENDBRANCH   1  19
TORSDOF 6
ENDMDL
MODEL 4
REMARK VINA RESULT:    -6.106     15.402     18.290
REMARK INTER + INTRA:          -8.598
REMARK INTER:                  -7.883
REMARK INTRA:                  -0.714
REMARK UNBOUND:                -0.707
REMARK  Name = /home/qwerty/github/datacon2025hack/step_04_hit_selection/docking/ligands/lig_34.pdb
REMARK  8 active torsions:
REMARK  status: ('A' for Active; 'I' for Inactive)
REMARK    1  A    between atoms: C1_1  and  C2_2
REMARK    2  A    between atoms: C2_2  and  N1_3
REMARK    3  A    between atoms: N2_6  and  C5_7
REMARK    4  A    between atoms: C8_10  and  N3_11
REMARK    5  A    between atoms: C9_12  and  C10_14
REMARK    6  A    between atoms: C12_16  and  C13_17
REMARK    7  A    between atoms: C12_16  and  O2_18
REMARK    8  A    between atoms: C16_21  and  O3_22
REMARK                            x       y       z     vdW  Elec       q    Type
REMARK                         _______ _______ _______ _____ _____    ______ ____
ROOT
ATOM      1  N3  UNL     1      20.419  11.063  33.773  0.00  0.00    -0.282 N 
ATOM      2  C9  UNL     1      21.095   9.907  34.299  0.00  0.00    +0.247 C 
ATOM      3  O1  UNL     1      20.852   9.542  35.483  0.00  0.00    -0.270 OA
ATOM      4  H12 UNL     1      20.903  11.656  33.064  0.00  0.00    +0.155 HD
ENDROOT
BRANCH   2   5
ATOM      5  C10 UNL     1      22.080   9.139  33.481  0.00  0.00    +0.046 C 
ATOM      6  C11 UNL     1      22.569   9.685  32.348  0.00  0.00    +0.022 C 
ATOM      7  C12 UNL     1      23.650   9.018  31.521  0.00  0.00    +0.100 C 
ATOM      8  C13 UNL     1      25.013   9.580  31.932  0.00  0.00    +0.050 C 
ATOM      9  C14 UNL     1      23.652   7.517  31.720  0.00  0.00    +0.010 C 
ATOM     10  C15 UNL     1      23.173   6.962  32.840  0.00  0.00    +0.008 C 
ATOM     11  C16 UNL     1      22.619   7.799  33.965  0.00  0.00    +0.172 C 
BRANCH   7  12
ATOM     12  O2  UNL     1      23.445   9.309  30.159  0.00  0.00    -0.381 OA
ATOM     13  H17 UNL     1      23.774   8.534  29.631  0.00  0.00    +0.211 HD
ENDBRANCH   7  12
BRANCH  11  14
ATOM     14  O3  UNL     1      23.633   8.006  34.911  0.00  0.00    -0.383 OA
ATOM     15  H21 UNL     1      24.439   8.301  34.412  0.00  0.00    +0.211 HD
ENDBRANCH  11  14
ENDBRANCH   2   5
BRANCH   1  19
ATOM     16  C5  UNL     1      16.654  12.379  35.262  0.00  0.00    +0.030 A 
ATOM     17  C6  UNL     1      16.734  11.302  34.367  0.00  0.00    +0.025 A 
ATOM     18  C7  UNL     1      17.974  10.877  33.882  0.00  0.00    +0.025 A 
ATOM     19  C8  UNL     1      19.153  11.533  34.268  0.00  0.00    +0.034 A 
ATOM     20  C17 UNL     1      19.072  12.603  35.178  0.00  0.00    +0.025 A 
ATOM     21  C18 UNL     1      17.832  13.026  35.663  0.00  0.00    +0.025 A 
BRANCH  16  25
ATOM     22  N1  UNL     1      12.666  13.824  36.039  0.00  0.00    -0.300 NA
ATOM     23  C3  UNL     1      13.067  12.499  36.584  0.00  0.00    +0.103 C 
ATOM     24  C4  UNL     1      14.262  11.874  35.846  0.00  0.00    +0.120 C 
ATOM     25  N2  UNL     1      15.378  12.822  35.756  0.00  0.00    -0.327 N 
ATOM     26  C19 UNL     1      15.137  14.236  36.051  0.00  0.00    +0.120 C 
ATOM     27  C20 UNL     1      13.778  14.629  35.472  0.00  0.00    +0.103 C 
BRANCH  22  29
ATOM     28  C1  UNL     1      10.242  14.199  35.747  0.00  0.00    +0.020 C 
ATOM     29  C2  UNL     1      11.536  13.726  35.090  0.00  0.00    +0.081 C 
ENDBRANCH  22  29
ENDBRANCH  16  25
ENDBRANCH   1  19
TORSDOF 6
ENDMDL
MODEL 5
REMARK VINA RESULT:    -6.076      6.525     10.082
REMARK INTER + INTRA:          -8.560
REMARK INTER:                  -7.861
REMARK INTRA:                  -0.699
REMARK UNBOUND:                -0.707
REMARK  Name = /home/qwerty/github/datacon2025hack/step_04_hit_selection/docking/ligands/lig_34.pdb
REMARK  8 active torsions:
REMARK  status: ('A' for Active; 'I' for Inactive)
REMARK    1  A    between atoms: C1_1  and  C2_2
REMARK    2  A    between atoms: C2_2  and  N1_3
REMARK    3  A    between atoms: N2_6  and  C5_7
REMARK    4  A    between atoms: C8_10  and  N3_11
REMARK    5  A    between atoms: C9_12  and  C10_14
REMARK    6  A    between atoms: C12_16  and  C13_17
REMARK    7  A    between atoms: C12_16  and  O2_18
REMARK    8  A    between atoms: C16_21  and  O3_22
REMARK                            x       y       z     vdW  Elec       q    Type
REMARK                         _______ _______ _______ _____ _____    ______ ____
ROOT
ATOM      1  N3  UNL     1      17.896   1.464  24.095  0.00  0.00    -0.282 N 
ATOM      2  C9  UNL     1      17.250   0.349  23.453  0.00  0.00    +0.247 C 
ATOM      3  O1  UNL     1      17.610  -0.822  23.753  0.00  0.00    -0.270 OA
ATOM      4  H12 UNL     1      17.996   2.363  23.575  0.00  0.00    +0.155 HD
ENDROOT
BRANCH   2   5
ATOM      5  C10 UNL     1      16.175   0.550  22.438  0.00  0.00    +0.046 C 
ATOM      6  C11 UNL     1      16.483   1.100  21.244  0.00  0.00    +0.022 C 
ATOM      7  C12 UNL     1      15.473   1.238  20.123  0.00  0.00    +0.100 C 
ATOM      8  C13 UNL     1      15.605   0.039  19.180  0.00  0.00    +0.050 C 
ATOM      9  C14 UNL     1      14.057   1.295  20.658  0.00  0.00    +0.010 C 
ATOM     10  C15 UNL     1      13.737   0.752  21.839  0.00  0.00    +0.008 C 
ATOM     11  C16 UNL     1      14.760   0.045  22.691  0.00  0.00    +0.172 C 
BRANCH   7  12
ATOM     12  O2  UNL     1      15.743   2.408  19.390  0.00  0.00    -0.381 OA
ATOM     13  H17 UNL     1      16.549   2.239  18.833  0.00  0.00    +0.211 HD
ENDBRANCH   7  12
BRANCH  11  14
ATOM     14  O3  UNL     1      14.690  -1.330  22.427  0.00  0.00    -0.383 OA
ATOM     15  H21 UNL     1      15.189  -1.490  21.584  0.00  0.00    +0.211 HD
ENDBRANCH  11  14
ENDBRANCH   2   5
BRANCH   1  19
ATOM     16  C5  UNL     1      19.748   1.139  27.915  0.00  0.00    +0.030 A 
ATOM     17  C6  UNL     1      18.360   1.306  27.803  0.00  0.00    +0.025 A 
ATOM     18  C7  UNL     1      17.760   1.414  26.545  0.00  0.00    +0.025 A 
ATOM     19  C8  UNL     1      18.539   1.375  25.379  0.00  0.00    +0.034 A 
ATOM     20  C17 UNL     1      19.928   1.191  25.492  0.00  0.00    +0.025 A 
ATOM     21  C18 UNL     1      20.528   1.082  26.750  0.00  0.00    +0.025 A 
BRANCH  16  25
ATOM     22  N1  UNL     1      21.499   1.553  31.834  0.00  0.00    -0.300 NA
ATOM     23  C3  UNL     1      20.399   0.570  31.641  0.00  0.00    +0.103 C 
ATOM     24  C4  UNL     1      19.533   0.861  30.404  0.00  0.00    +0.120 C 
ATOM     25  N2  UNL     1      20.366   1.036  29.209  0.00  0.00    -0.327 N 
ATOM     26  C19 UNL     1      21.810   1.231  29.369  0.00  0.00    +0.120 C 
ATOM     27  C20 UNL     1      22.047   2.132  30.581  0.00  0.00    +0.103 C 
BRANCH  22  29
ATOM     28  C1  UNL     1      22.228   3.687  32.842  0.00  0.00    +0.020 C 
ATOM     29  C2  UNL     1      21.146   2.611  32.805  0.00  0.00    +0.081 C 
ENDBRANCH  22  29
ENDBRANCH  16  25
ENDBRANCH   1  19
TORSDOF 6
ENDMDL
MODEL 6
REMARK VINA RESULT:    -5.964     15.363     16.398
REMARK INTER + INTRA:          -8.415
REMARK INTER:                  -7.610
REMARK INTRA:                  -0.805
REMARK UNBOUND:                -0.707
REMARK  Name = /home/qwerty/github/datacon2025hack/step_04_hit_selection/docking/ligands/lig_34.pdb
REMARK  8 active torsions:
REMARK  status: ('A' for Active; 'I' for Inactive)
REMARK    1  A    between atoms: C1_1  and  C2_2
REMARK    2  A    between atoms: C2_2  and  N1_3
REMARK    3  A    between atoms: N2_6  and  C5_7
REMARK    4  A    between atoms: C8_10  and  N3_11
REMARK    5  A    between atoms: C9_12  and  C10_14
REMARK    6  A    between atoms: C12_16  and  C13_17
REMARK    7  A    between atoms: C12_16  and  O2_18
REMARK    8  A    between atoms: C16_21  and  O3_22
REMARK                            x       y       z     vdW  Elec       q    Type
REMARK                         _______ _______ _______ _____ _____    ______ ____
ROOT
ATOM      1  N3  UNL     1      15.772   9.100  36.772  0.00  0.00    -0.282 N 
ATOM      2  C9  UNL     1      15.553  10.522  36.730  0.00  0.00    +0.247 C 
ATOM      3  O1  UNL     1      16.525  11.297  36.950  0.00  0.00    -0.270 OA
ATOM      4  H12 UNL     1      14.994   8.475  37.076  0.00  0.00    +0.155 HD
ENDROOT
BRANCH   2   5
ATOM      5  C10 UNL     1      14.206  11.096  36.441  0.00  0.00    +0.046 C 
ATOM      6  C11 UNL     1      13.121  10.294  36.478  0.00  0.00    +0.022 C 
ATOM      7  C12 UNL     1      11.711  10.819  36.304  0.00  0.00    +0.100 C 
ATOM      8  C13 UNL     1      11.099  11.078  37.683  0.00  0.00    +0.050 C 
ATOM      9  C14 UNL     1      11.695  12.106  35.505  0.00  0.00    +0.010 C 
ATOM     10  C15 UNL     1      12.762  12.913  35.462  0.00  0.00    +0.008 C 
ATOM     11  C16 UNL     1      14.029  12.592  36.213  0.00  0.00    +0.172 C 
BRANCH   7  12
ATOM     12  O2  UNL     1      10.927   9.852  35.647  0.00  0.00    -0.381 OA
ATOM     13  H17 UNL     1      11.536   9.287  35.102  0.00  0.00    +0.211 HD
ENDBRANCH   7  12
BRANCH  11  14
ATOM     14  O3  UNL     1      14.002  13.262  37.444  0.00  0.00    -0.383 OA
ATOM     15  H21 UNL     1      13.482  12.695  38.072  0.00  0.00    +0.211 HD
ENDBRANCH  11  14
ENDBRANCH   2   5
BRANCH   1  19
ATOM     16  C5  UNL     1      19.587   7.354  36.051  0.00  0.00    +0.030 A 
ATOM     17  C6  UNL     1      18.769   7.755  34.984  0.00  0.00    +0.025 A 
ATOM     18  C7  UNL     1      17.517   8.325  35.229  0.00  0.00    +0.025 A 
ATOM     19  C8  UNL     1      17.054   8.489  36.544  0.00  0.00    +0.034 A 
ATOM     20  C17 UNL     1      17.882   8.102  37.612  0.00  0.00    +0.025 A 
ATOM     21  C18 UNL     1      19.134   7.532  37.367  0.00  0.00    +0.025 A 
BRANCH  16  25
ATOM     22  N1  UNL     1      23.493   6.062  34.756  0.00  0.00    -0.300 NA
ATOM     23  C3  UNL     1      23.294   6.421  36.186  0.00  0.00    +0.103 C 
ATOM     24  C4  UNL     1      22.073   7.325  36.423  0.00  0.00    +0.120 C 
ATOM     25  N2  UNL     1      20.872   6.759  35.799  0.00  0.00    -0.327 N 
ATOM     26  C19 UNL     1      21.019   5.674  34.825  0.00  0.00    +0.120 C 
ATOM     27  C20 UNL     1      22.244   5.961  33.958  0.00  0.00    +0.103 C 
BRANCH  22  29
ATOM     28  C1  UNL     1      23.803   7.866  33.096  0.00  0.00    +0.020 C 
ATOM     29  C2  UNL     1      24.487   6.930  34.089  0.00  0.00    +0.081 C 
ENDBRANCH  22  29
ENDBRANCH  16  25
ENDBRANCH   1  19
TORSDOF 6
ENDMDL
MODEL 7
REMARK VINA RESULT:    -5.864     11.490     15.134
REMARK INTER + INTRA:          -8.285
REMARK INTER:                  -7.588
REMARK INTRA:                  -0.697
REMARK UNBOUND:                -0.707
REMARK  Name = /home/qwerty/github/datacon2025hack/step_04_hit_selection/docking/ligands/lig_34.pdb
REMARK  8 active torsions:
REMARK  status: ('A' for Active; 'I' for Inactive)
REMARK    1  A    between atoms: C1_1  and  C2_2
REMARK    2  A    between atoms: C2_2  and  N1_3
REMARK    3  A    between atoms: N2_6  and  C5_7
REMARK    4  A    between atoms: C8_10  and  N3_11
REMARK    5  A    between atoms: C9_12  and  C10_14
REMARK    6  A    between atoms: C12_16  and  C13_17
REMARK    7  A    between atoms: C12_16  and  O2_18
REMARK    8  A    between atoms: C16_21  and  O3_22
REMARK                            x       y       z     vdW  Elec       q    Type
REMARK                         _______ _______ _______ _____ _____    ______ ____
ROOT
ATOM      1  N3  UNL     1      12.752  13.262  32.760  0.00  0.00    -0.282 N 
ATOM      2  C9  UNL     1      12.575  13.247  34.188  0.00  0.00    +0.247 C 
ATOM      3  O1  UNL     1      11.405  13.185  34.659  0.00  0.00    -0.270 OA
ATOM      4  H12 UNL     1      13.565  13.775  32.354  0.00  0.00    +0.155 HD
ENDROOT
BRANCH   2   5
ATOM      5  C10 UNL     1      13.739  13.313  35.120  0.00  0.00    +0.046 C 
ATOM      6  C11 UNL     1      14.620  14.330  35.011  0.00  0.00    +0.022 C 
ATOM      7  C12 UNL     1      15.765  14.527  35.984  0.00  0.00    +0.100 C 
ATOM      8  C13 UNL     1      15.334  15.515  37.071  0.00  0.00    +0.050 C 
ATOM      9  C14 UNL     1      16.169  13.220  36.633  0.00  0.00    +0.010 C 
ATOM     10  C15 UNL     1      15.306  12.204  36.750  0.00  0.00    +0.008 C 
ATOM     11  C16 UNL     1      13.886  12.308  36.255  0.00  0.00    +0.172 C 
BRANCH   7  12
ATOM     12  O2  UNL     1      16.869  15.073  35.304  0.00  0.00    -0.381 OA
ATOM     13  H17 UNL     1      17.365  15.649  35.944  0.00  0.00    +0.211 HD
ENDBRANCH   7  12
BRANCH  11  14
ATOM     14  O3  UNL     1      13.065  12.679  37.329  0.00  0.00    -0.383 OA
ATOM     15  H21 UNL     1      12.211  13.006  36.942  0.00  0.00    +0.211 HD
ENDBRANCH  11  14
ENDBRANCH   2   5
BRANCH   1  19
ATOM     16  C5  UNL     1       9.874  11.613  30.091  0.00  0.00    +0.030 A 
ATOM     17  C6  UNL     1      10.590  10.789  30.972  0.00  0.00    +0.025 A 
ATOM     18  C7  UNL     1      11.535  11.338  31.844  0.00  0.00    +0.025 A 
ATOM     19  C8  UNL     1      11.793  12.717  31.838  0.00  0.00    +0.034 A 
ATOM     20  C17 UNL     1      11.062  13.544  30.965  0.00  0.00    +0.025 A 
ATOM     21  C18 UNL     1      10.117  12.994  30.094  0.00  0.00    +0.025 A 
BRANCH  16  25
ATOM     22  N1  UNL     1       7.552   9.588  27.074  0.00  0.00    -0.300 NA
ATOM     23  C3  UNL     1       7.174   9.417  28.503  0.00  0.00    +0.103 C 
ATOM     24  C4  UNL     1       8.321   9.734  29.478  0.00  0.00    +0.120 C 
ATOM     25  N2  UNL     1       8.908  11.047  29.189  0.00  0.00    -0.327 N 
ATOM     26  C19 UNL     1       8.594  11.704  27.917  0.00  0.00    +0.120 C 
ATOM     27  C20 UNL     1       8.564  10.644  26.817  0.00  0.00    +0.103 C 
BRANCH  22  29
ATOM     28  C1  UNL     1       7.178   7.146  27.072  0.00  0.00    +0.020 C 
ATOM     29  C2  UNL     1       7.934   8.310  26.436  0.00  0.00    +0.081 C 
ENDBRANCH  22  29
ENDBRANCH  16  25
ENDBRANCH   1  19
TORSDOF 6
ENDMDL
MODEL 8
REMARK VINA RESULT:    -5.834     14.894     16.312
REMARK INTER + INTRA:          -8.247
REMARK INTER:                  -7.540
REMARK INTRA:                  -0.706
REMARK UNBOUND:                -0.707
REMARK  Name = /home/qwerty/github/datacon2025hack/step_04_hit_selection/docking/ligands/lig_34.pdb
REMARK  8 active torsions:
REMARK  status: ('A' for Active; 'I' for Inactive)
REMARK    1  A    between atoms: C1_1  and  C2_2
REMARK    2  A    between atoms: C2_2  and  N1_3
REMARK    3  A    between atoms: N2_6  and  C5_7
REMARK    4  A    between atoms: C8_10  and  N3_11
REMARK    5  A    between atoms: C9_12  and  C10_14
REMARK    6  A    between atoms: C12_16  and  C13_17
REMARK    7  A    between atoms: C12_16  and  O2_18
REMARK    8  A    between atoms: C16_21  and  O3_22
REMARK                            x       y       z     vdW  Elec       q    Type
REMARK                         _______ _______ _______ _____ _____    ______ ____
ROOT
ATOM      1  N3  UNL     1      14.381  11.626  36.313  0.00  0.00    -0.282 N 
ATOM      2  C9  UNL     1      14.234  12.915  35.688  0.00  0.00    +0.247 C 
ATOM      3  O1  UNL     1      15.230  13.689  35.640  0.00  0.00    -0.270 OA
ATOM      4  H12 UNL     1      13.560  11.197  36.791  0.00  0.00    +0.155 HD
ENDROOT
BRANCH   2   5
ATOM      5  C10 UNL     1      12.932  13.356  35.107  0.00  0.00    +0.046 C 
ATOM      6  C11 UNL     1      12.927  14.096  33.978  0.00  0.00    +0.022 C 
ATOM      7  C12 UNL     1      11.648  14.492  33.267  0.00  0.00    +0.100 C 
ATOM      8  C13 UNL     1      11.359  13.479  32.156  0.00  0.00    +0.050 C 
ATOM      9  C14 UNL     1      10.473  14.528  34.222  0.00  0.00    +0.010 C 
ATOM     10  C15 UNL     1      10.464  13.798  35.344  0.00  0.00    +0.008 C 
ATOM     11  C16 UNL     1      11.613  12.893  35.710  0.00  0.00    +0.172 C 
BRANCH   7  12
ATOM     12  O2  UNL     1      11.811  15.759  32.678  0.00  0.00    -0.381 OA
ATOM     13  H17 UNL     1      11.396  16.430  33.281  0.00  0.00    +0.211 HD
ENDBRANCH   7  12
BRANCH  11  14
ATOM     14  O3  UNL     1      11.317  11.595  35.271  0.00  0.00    -0.383 OA
ATOM     15  H21 UNL     1      10.885  11.681  34.381  0.00  0.00    +0.211 HD
ENDBRANCH  11  14
ENDBRANCH   2   5
BRANCH   1  19
ATOM     16  C5  UNL     1      18.144   9.657  36.613  0.00  0.00    +0.030 A 
ATOM     17  C6  UNL     1      17.508   9.802  35.371  0.00  0.00    +0.025 A 
ATOM     18  C7  UNL     1      16.272  10.449  35.281  0.00  0.00    +0.025 A 
ATOM     19  C8  UNL     1      15.642  10.944  36.433  0.00  0.00    +0.034 A 
ATOM     20  C17 UNL     1      16.288  10.812  37.675  0.00  0.00    +0.025 A 
ATOM     21  C18 UNL     1      17.525  10.166  37.764  0.00  0.00    +0.025 A 
BRANCH  16  25
ATOM     22  N1  UNL     1      21.665   7.176  36.404  0.00  0.00    -0.300 NA
ATOM     23  C3  UNL     1      21.804   8.640  36.171  0.00  0.00    +0.103 C 
ATOM     24  C4  UNL     1      20.486   9.319  35.766  0.00  0.00    +0.120 C 
ATOM     25  N2  UNL     1      19.412   8.984  36.707  0.00  0.00    -0.327 N 
ATOM     26  C19 UNL     1      19.606   7.878  37.647  0.00  0.00    +0.120 C 
ATOM     27  C20 UNL     1      20.342   6.749  36.923  0.00  0.00    +0.103 C 
BRANCH  22  29
ATOM     28  C1  UNL     1      23.583   6.264  35.143  0.00  0.00    +0.020 C 
ATOM     29  C2  UNL     1      22.063   6.378  35.224  0.00  0.00    +0.081 C 
ENDBRANCH  22  29
ENDBRANCH  16  25
ENDBRANCH   1  19
TORSDOF 6
ENDMDL
MODEL 9
REMARK VINA RESULT:    -5.808     15.558     18.673
REMARK INTER + INTRA:          -8.213
REMARK INTER:                  -7.500
REMARK INTRA:                  -0.714
REMARK UNBOUND:                -0.707
REMARK  Name = /home/qwerty/github/datacon2025hack/step_04_hit_selection/docking/ligands/lig_34.pdb
REMARK  8 active torsions:
REMARK  status: ('A' for Active; 'I' for Inactive)
REMARK    1  A    between atoms: C1_1  and  C2_2
REMARK    2  A    between atoms: C2_2  and  N1_3
REMARK    3  A    between atoms: N2_6  and  C5_7
REMARK    4  A    between atoms: C8_10  and  N3_11
REMARK    5  A    between atoms: C9_12  and  C10_14
REMARK    6  A    between atoms: C12_16  and  C13_17
REMARK    7  A    between atoms: C12_16  and  O2_18
REMARK    8  A    between atoms: C16_21  and  O3_22
REMARK                            x       y       z     vdW  Elec       q    Type
REMARK                         _______ _______ _______ _____ _____    ______ ____
ROOT
ATOM      1  N3  UNL     1      21.031  10.501  34.504  0.00  0.00    -0.282 N 
ATOM      2  C9  UNL     1      21.695   9.332  35.018  0.00  0.00    +0.247 C 
ATOM      3  O1  UNL     1      21.384   8.906  36.164  0.00  0.00    -0.270 OA
ATOM      4  H12 UNL     1      21.547  11.136  33.856  0.00  0.00    +0.155 HD
ENDROOT
BRANCH   2   5
ATOM      5  C10 UNL     1      22.745   8.622  34.230  0.00  0.00    +0.046 C 
ATOM      6  C11 UNL     1      23.073   7.353  34.554  0.00  0.00    +0.022 C 
ATOM      7  C12 UNL     1      24.049   6.529  33.739  0.00  0.00    +0.100 C 
ATOM      8  C13 UNL     1      23.267   5.672  32.739  0.00  0.00    +0.050 C 
ATOM      9  C14 UNL     1      25.021   7.410  32.983  0.00  0.00    +0.010 C 
ATOM     10  C15 UNL     1      24.709   8.669  32.653  0.00  0.00    +0.008 C 
ATOM     11  C16 UNL     1      23.372   9.272  33.003  0.00  0.00    +0.172 C 
BRANCH   7  12
ATOM     12  O2  UNL     1      24.764   5.668  34.593  0.00  0.00    -0.381 OA
ATOM     13  H17 UNL     1      25.667   5.534  34.201  0.00  0.00    +0.211 HD
ENDBRANCH   7  12
BRANCH  11  14
ATOM     14  O3  UNL     1      22.517   9.135  31.901  0.00  0.00    -0.383 OA
ATOM     15  H21 UNL     1      23.085   9.166  31.087  0.00  0.00    +0.211 HD
ENDBRANCH  11  14
ENDBRANCH   2   5
BRANCH   1  19
ATOM     16  C5  UNL     1      17.152  11.680  35.803  0.00  0.00    +0.030 A 
ATOM     17  C6  UNL     1      17.309  10.679  34.833  0.00  0.00    +0.025 A 
ATOM     18  C7  UNL     1      18.586  10.299  34.410  0.00  0.00    +0.025 A 
ATOM     19  C8  UNL     1      19.727  10.925  34.937  0.00  0.00    +0.034 A 
ATOM     20  C17 UNL     1      19.567  11.917  35.922  0.00  0.00    +0.025 A 
ATOM     21  C18 UNL     1      18.290  12.296  36.344  0.00  0.00    +0.025 A 
BRANCH  16  25
ATOM     22  N1  UNL     1      13.141  13.141  36.415  0.00  0.00    -0.300 NA
ATOM     23  C3  UNL     1      13.435  11.711  36.705  0.00  0.00    +0.103 C 
ATOM     24  C4  UNL     1      14.693  11.192  35.990  0.00  0.00    +0.120 C 
ATOM     25  N2  UNL     1      15.838  12.076  36.233  0.00  0.00    -0.327 N 
ATOM     26  C19 UNL     1      15.602  13.409  36.796  0.00  0.00    +0.120 C 
ATOM     27  C20 UNL     1      14.336  13.986  36.164  0.00  0.00    +0.103 C 
BRANCH  22  29
ATOM     28  C1  UNL     1      10.750  13.546  35.945  0.00  0.00    +0.020 C 
ATOM     29  C2  UNL     1      12.133  13.304  35.346  0.00  0.00    +0.081 C 
ENDBRANCH  22  29
ENDBRANCH  16  25
ENDBRANCH   1  19
TORSDOF 6
ENDMDL
