REMARK  Name = /home/qwerty/github/datacon2025hack/step_04_hit_selection/docking/ligands/lig_758.pdb
REMARK  6 active torsions:
REMARK  status: ('A' for Active; 'I' for Inactive)
REMARK    1  A    between atoms: C1_1  and  C2_2
REMARK    2  A    between atoms: C3_4  and  C4_5
REMARK    3  A    between atoms: C7_10  and  N3_11
REMARK    4  A    between atoms: C8_12  and  C9_14
REMARK    5  A    between atoms: N4_17  and  C12_18
REMARK    6  A    between atoms: C13_20  and  C14_21
REMARK                            x       y       z     vdW  Elec       q    Type
REMARK                         _______ _______ _______ _____ _____    ______ ____
ROOT
ATOM      1  C4  UNL     1       3.072   1.382  -0.811  0.00  0.00    +0.266 C 
ATOM      2  O1  UNL     1       2.972   2.474  -1.436  0.00  0.00    -0.268 OA
ATOM      3  N2  UNL     1       1.872   0.761  -0.296  0.00  0.00    -0.292 N 
ATOM      4  C5  UNL     1       1.840  -0.402   0.582  0.00  0.00    +0.110 C 
ATOM      5  C6  UNL     1       0.374  -0.618   0.940  0.00  0.00    +0.043 C 
ATOM      6  C7  UNL     1      -0.305   0.717   0.639  0.00  0.00    +0.095 C 
ATOM      7  C13 UNL     1       0.543   1.334  -0.495  0.00  0.00    +0.094 C 
ATOM      8  C14 UNL     1       0.066   1.005  -1.920  0.00  0.00    +0.030 C 
ENDROOT
BRANCH   1  12
ATOM      9  C1  UNL     1       6.467  -1.983   0.621  0.00  0.00    +0.073 C 
ATOM     10  C2  UNL     1       5.952  -0.727   0.007  0.00  0.00    +0.076 A 
ATOM     11  N1  UNL     1       4.644  -0.394  -0.017  0.00  0.00    -0.240 NA
ATOM     12  C3  UNL     1       4.424   0.794  -0.643  0.00  0.00    +0.133 A 
ATOM     13  C15 UNL     1       5.578   1.412  -1.129  0.00  0.00    +0.080 A 
ATOM     14  S1  UNL     1       6.895   0.435  -0.756  0.00  0.00    -0.080 S 
ENDBRANCH   1  12
BRANCH   6  15
ATOM     15  N3  UNL     1      -1.736   0.551   0.344  0.00  0.00    -0.305 N 
ATOM     16  C8  UNL     1      -2.667   0.123   1.351  0.00  0.00    +0.264 C 
ATOM     17  O2  UNL     1      -2.276  -0.075   2.533  0.00  0.00    -0.268 OA
ATOM     18  H9  UNL     1      -2.124   0.809  -0.588  0.00  0.00    +0.149 HD
BRANCH  16  19
ATOM     19  C9  UNL     1      -4.085  -0.086   1.016  0.00  0.00    +0.147 A 
ATOM     20  C10 UNL     1      -5.079  -0.477   1.897  0.00  0.00    +0.054 A 
ATOM     21  C11 UNL     1      -6.221  -0.531   1.126  0.00  0.00    +0.109 A 
ATOM     22  N4  UNL     1      -5.896  -0.198  -0.137  0.00  0.00    -0.274 N 
ATOM     23  C12 UNL     1      -6.824  -0.079  -1.252  0.00  0.00    +0.172 C 
ATOM     24  N5  UNL     1      -4.606   0.086  -0.216  0.00  0.00    -0.167 NA
ENDBRANCH  16  19
ENDBRANCH   6  15
TORSDOF 3
