MODEL 1
REMARK VINA RESULT:    -6.815      0.000      0.000
REMARK INTER + INTRA:          -9.349
REMARK INTER:                  -8.807
REMARK INTRA:                  -0.541
REMARK UNBOUND:                -0.541
REMARK  Name = /home/qwerty/github/datacon2025hack/step_04_hit_selection/docking/ligands/lig_328.pdb
REMARK  7 active torsions:
REMARK  status: ('A' for Active; 'I' for Inactive)
REMARK    1  A    between atoms: C1_1  and  C2_2
REMARK    2  A    between atoms: C2_2  and  C3_3
REMARK    3  A    between atoms: C2_2  and  N1_4
REMARK    4  A    between atoms: C4_5  and  C5_7
REMARK    5  A    between atoms: C5_7  and  N2_8
REMARK    6  A    between atoms: C8_12  and  C9_14
REMARK    7  A    between atoms: C12_17  and  C13_18
REMARK                            x       y       z     vdW  Elec       q    Type
REMARK                         _______ _______ _______ _____ _____    ______ ____
ROOT
ATOM      1  N2  UNL     1      15.094   0.853  21.269  0.00  0.00    -0.291 NA
ATOM      2  C6  UNL     1      16.019  -0.111  20.622  0.00  0.00    +0.104 C 
ATOM      3  C7  UNL     1      16.533  -1.209  21.580  0.00  0.00    +0.123 C 
ATOM      4  N3  UNL     1      16.341  -0.838  22.989  0.00  0.00    -0.293 N 
ATOM      5  C8  UNL     1      17.231  -1.385  23.975  0.00  0.00    +0.282 C 
ATOM      6  O2  UNL     1      17.596  -2.587  23.889  0.00  0.00    -0.267 OA
ATOM      7  C19 UNL     1      15.055  -0.282  23.428  0.00  0.00    +0.123 C 
ATOM      8  C20 UNL     1      14.215   0.171  22.235  0.00  0.00    +0.104 C 
ENDROOT
BRANCH   5   9
ATOM      9  C9  UNL     1      17.736  -0.564  25.087  0.00  0.00    +0.190 A 
ATOM     10  C10 UNL     1      17.017  -0.145  26.190  0.00  0.00    +0.055 A 
ATOM     11  C11 UNL     1      17.892   0.611  26.942  0.00  0.00    +0.050 A 
ATOM     12  C12 UNL     1      19.092   0.610  26.249  0.00  0.00    +0.136 A 
ATOM     13  O3  UNL     1      18.960  -0.097  25.147  0.00  0.00    -0.450 OA
BRANCH  12  14
ATOM     14  C13 UNL     1      20.352   1.284  26.642  0.00  0.00    +0.020 A 
ATOM     15  C14 UNL     1      20.968   2.239  25.810  0.00  0.00    +0.031 A 
ATOM     16  C15 UNL     1      22.162   2.855  26.203  0.00  0.00    +0.043 A 
ATOM     17 CL1  UNL     1      22.927   4.036  25.154  0.00  0.00    -0.083 Cl
ATOM     18  C16 UNL     1      22.749   2.527  27.429  0.00  0.00    +0.040 A 
ATOM     19  C17 UNL     1      22.146   1.582  28.263  0.00  0.00    +0.043 A 
ATOM     20 CL2  UNL     1      22.880   1.182  29.804  0.00  0.00    -0.083 Cl
ATOM     21  C18 UNL     1      20.955   0.961  27.872  0.00  0.00    +0.031 A 
ENDBRANCH  12  14
ENDBRANCH   5   9
BRANCH   1  22
ATOM     22  C5  UNL     1      14.292   1.584  20.267  0.00  0.00    +0.180 C 
BRANCH  22  24
ATOM     23  N1  UNL     1      11.967   2.454  20.818  0.00  0.00    -0.312 N 
ATOM     24  C4  UNL     1      13.391   2.581  20.934  0.00  0.00    +0.227 C 
ATOM     25  O1  UNL     1      13.895   3.516  21.615  0.00  0.00    -0.274 OA
ATOM     26  H8  UNL     1      11.585   1.705  20.196  0.00  0.00    +0.149 HD
BRANCH  23  28
ATOM     27  C1  UNL     1       9.943   2.415  22.197  0.00  0.00    +0.027 C 
ATOM     28  C2  UNL     1      11.044   3.286  21.592  0.00  0.00    +0.067 C 
ATOM     29  C3  UNL     1      10.439   4.379  20.704  0.00  0.00    +0.027 C 
ENDBRANCH  23  28
ENDBRANCH  22  24
ENDBRANCH   1  22
TORSDOF 5
ENDMDL
MODEL 2
REMARK VINA RESULT:    -6.792      8.264     12.222
REMARK INTER + INTRA:          -9.318
REMARK INTER:                  -8.598
REMARK INTRA:                  -0.720
REMARK UNBOUND:                -0.541
REMARK  Name = /home/qwerty/github/datacon2025hack/step_04_hit_selection/docking/ligands/lig_328.pdb
REMARK  7 active torsions:
REMARK  status: ('A' for Active; 'I' for Inactive)
REMARK    1  A    between atoms: C1_1  and  C2_2
REMARK    2  A    between atoms: C2_2  and  C3_3
REMARK    3  A    between atoms: C2_2  and  N1_4
REMARK    4  A    between atoms: C4_5  and  C5_7
REMARK    5  A    between atoms: C5_7  and  N2_8
REMARK    6  A    between atoms: C8_12  and  C9_14
REMARK    7  A    between atoms: C12_17  and  C13_18
REMARK                            x       y       z     vdW  Elec       q    Type
REMARK                         _______ _______ _______ _____ _____    ______ ____
ROOT
ATOM      1  N2  UNL     1      10.654   5.725  21.249  0.00  0.00    -0.291 NA
ATOM      2  C6  UNL     1      10.922   6.767  20.227  0.00  0.00    +0.104 C 
ATOM      3  C7  UNL     1      11.270   8.146  20.830  0.00  0.00    +0.123 C 
ATOM      4  N3  UNL     1      10.863   8.245  22.238  0.00  0.00    -0.293 N 
ATOM      5  C8  UNL     1      10.552   9.539  22.779  0.00  0.00    +0.282 C 
ATOM      6  O2  UNL     1      11.255  10.535  22.460  0.00  0.00    -0.267 OA
ATOM      7  C19 UNL     1      11.166   7.146  23.164  0.00  0.00    +0.123 C 
ATOM      8  C20 UNL     1      11.553   5.878  22.404  0.00  0.00    +0.104 C 
ENDROOT
BRANCH   5   9
ATOM      9  C9  UNL     1       9.419   9.731  23.697  0.00  0.00    +0.190 A 
ATOM     10  C10 UNL     1       8.078   9.676  23.370  0.00  0.00    +0.055 A 
ATOM     11  C11 UNL     1       7.395   9.938  24.539  0.00  0.00    +0.050 A 
ATOM     12  C12 UNL     1       8.363  10.142  25.510  0.00  0.00    +0.136 A 
ATOM     13  O3  UNL     1       9.556  10.014  24.971  0.00  0.00    -0.450 OA
BRANCH  12  14
ATOM     14  C13 UNL     1       8.141  10.458  26.941  0.00  0.00    +0.020 A 
ATOM     15  C14 UNL     1       7.612   9.505  27.833  0.00  0.00    +0.031 A 
ATOM     16  C15 UNL     1       7.406   9.833  29.178  0.00  0.00    +0.043 A 
ATOM     17 CL1  UNL     1       6.735   8.642  30.278  0.00  0.00    -0.083 Cl
ATOM     18  C16 UNL     1       7.730  11.111  29.645  0.00  0.00    +0.040 A 
ATOM     19  C17 UNL     1       8.256  12.063  28.769  0.00  0.00    +0.043 A 
ATOM     20 CL2  UNL     1       8.672  13.660  29.362  0.00  0.00    -0.083 Cl
ATOM     21  C18 UNL     1       8.460  11.740  27.423  0.00  0.00    +0.031 A 
ENDBRANCH  12  14
ENDBRANCH   5   9
BRANCH   1  22
ATOM     22  C5  UNL     1      10.772   4.368  20.677  0.00  0.00    +0.180 C 
BRANCH  22  24
ATOM     23  N1  UNL     1      11.038   2.250  22.058  0.00  0.00    -0.312 N 
ATOM     24  C4  UNL     1      10.219   3.344  21.624  0.00  0.00    +0.227 C 
ATOM     25  O1  UNL     1       9.038   3.467  22.053  0.00  0.00    -0.274 OA
ATOM     26  H8  UNL     1      11.989   2.144  21.636  0.00  0.00    +0.149 HD
BRANCH  23  28
ATOM     27  C1  UNL     1      11.838   0.792  23.857  0.00  0.00    +0.027 C 
ATOM     28  C2  UNL     1      10.614   1.328  23.114  0.00  0.00    +0.067 C 
ATOM     29  C3  UNL     1       9.796   0.176  22.520  0.00  0.00    +0.027 C 
ENDBRANCH  23  28
ENDBRANCH  22  24
ENDBRANCH   1  22
TORSDOF 5
ENDMDL
MODEL 3
REMARK VINA RESULT:    -6.603     10.300     13.817
REMARK INTER + INTRA:          -9.074
REMARK INTER:                  -8.483
REMARK INTRA:                  -0.592
REMARK UNBOUND:                -0.541
REMARK  Name = /home/qwerty/github/datacon2025hack/step_04_hit_selection/docking/ligands/lig_328.pdb
REMARK  7 active torsions:
REMARK  status: ('A' for Active; 'I' for Inactive)
REMARK    1  A    between atoms: C1_1  and  C2_2
REMARK    2  A    between atoms: C2_2  and  C3_3
REMARK    3  A    between atoms: C2_2  and  N1_4
REMARK    4  A    between atoms: C4_5  and  C5_7
REMARK    5  A    between atoms: C5_7  and  N2_8
REMARK    6  A    between atoms: C8_12  and  C9_14
REMARK    7  A    between atoms: C12_17  and  C13_18
REMARK                            x       y       z     vdW  Elec       q    Type
REMARK                         _______ _______ _______ _____ _____    ______ ____
ROOT
ATOM      1  N2  UNL     1      20.798   7.869  36.921  0.00  0.00    -0.291 NA
ATOM      2  C6  UNL     1      21.886   7.134  37.613  0.00  0.00    +0.104 C 
ATOM      3  C7  UNL     1      23.116   6.868  36.717  0.00  0.00    +0.123 C 
ATOM      4  N3  UNL     1      22.797   7.019  35.291  0.00  0.00    -0.293 N 
ATOM      5  C8  UNL     1      23.563   6.278  34.328  0.00  0.00    +0.282 C 
ATOM      6  O2  UNL     1      24.807   6.152  34.483  0.00  0.00    -0.267 OA
ATOM      7  C19 UNL     1      22.025   8.182  34.836  0.00  0.00    +0.123 C 
ATOM      8  C20 UNL     1      21.348   8.887  36.010  0.00  0.00    +0.104 C 
ENDROOT
BRANCH   5   9
ATOM      9  C9  UNL     1      22.923   5.651  33.162  0.00  0.00    +0.190 A 
ATOM     10  C10 UNL     1      22.492   6.293  32.018  0.00  0.00    +0.055 A 
ATOM     11  C11 UNL     1      21.941   5.312  31.220  0.00  0.00    +0.050 A 
ATOM     12  C12 UNL     1      22.067   4.128  31.930  0.00  0.00    +0.136 A 
ATOM     13  O3  UNL     1      22.652   4.369  33.083  0.00  0.00    -0.450 OA
BRANCH  12  14
ATOM     14  C13 UNL     1      21.626   2.779  31.504  0.00  0.00    +0.020 A 
ATOM     15  C14 UNL     1      22.152   2.160  30.353  0.00  0.00    +0.031 A 
ATOM     16  C15 UNL     1      21.712   0.888  29.969  0.00  0.00    +0.043 A 
ATOM     17 CL1  UNL     1      22.366   0.131  28.527  0.00  0.00    -0.083 Cl
ATOM     18  C16 UNL     1      20.747   0.221  30.731  0.00  0.00    +0.040 A 
ATOM     19  C17 UNL     1      20.218   0.825  31.874  0.00  0.00    +0.043 A 
ATOM     20 CL2  UNL     1      19.017  -0.019  32.832  0.00  0.00    -0.083 Cl
ATOM     21  C18 UNL     1      20.654   2.098  32.259  0.00  0.00    +0.031 A 
ENDBRANCH  12  14
ENDBRANCH   5   9
BRANCH   1  22
ATOM     22  C5  UNL     1      19.867   8.487  37.887  0.00  0.00    +0.180 C 
BRANCH  22  24
ATOM     23  N1  UNL     1      18.448  10.530  37.360  0.00  0.00    -0.312 N 
ATOM     24  C4  UNL     1      18.716   9.133  37.175  0.00  0.00    +0.227 C 
ATOM     25  O1  UNL     1      18.002   8.445  36.394  0.00  0.00    -0.274 OA
ATOM     26  H8  UNL     1      19.020  11.056  38.060  0.00  0.00    +0.149 HD
BRANCH  23  28
ATOM     27  C1  UNL     1      18.051  12.565  36.055  0.00  0.00    +0.027 C 
ATOM     28  C2  UNL     1      17.457  11.248  36.557  0.00  0.00    +0.067 C 
ATOM     29  C3  UNL     1      16.190  11.508  37.380  0.00  0.00    +0.027 C 
ENDBRANCH  23  28
ENDBRANCH  22  24
ENDBRANCH   1  22
TORSDOF 5
ENDMDL
MODEL 4
REMARK VINA RESULT:    -6.461     14.606     17.600
REMARK INTER + INTRA:          -8.891
REMARK INTER:                  -8.141
REMARK INTRA:                  -0.750
REMARK UNBOUND:                -0.541
REMARK  Name = /home/qwerty/github/datacon2025hack/step_04_hit_selection/docking/ligands/lig_328.pdb
REMARK  7 active torsions:
REMARK  status: ('A' for Active; 'I' for Inactive)
REMARK    1  A    between atoms: C1_1  and  C2_2
REMARK    2  A    between atoms: C2_2  and  C3_3
REMARK    3  A    between atoms: C2_2  and  N1_4
REMARK    4  A    between atoms: C4_5  and  C5_7
REMARK    5  A    between atoms: C5_7  and  N2_8
REMARK    6  A    between atoms: C8_12  and  C9_14
REMARK    7  A    between atoms: C12_17  and  C13_18
REMARK                            x       y       z     vdW  Elec       q    Type
REMARK                         _______ _______ _______ _____ _____    ______ ____
ROOT
ATOM      1  N2  UNL     1      15.141  10.768  35.854  0.00  0.00    -0.291 NA
ATOM      2  C6  UNL     1      14.544  11.438  37.035  0.00  0.00    +0.104 C 
ATOM      3  C7  UNL     1      13.086  11.899  36.810  0.00  0.00    +0.123 C 
ATOM      4  N3  UNL     1      12.746  11.957  35.383  0.00  0.00    -0.293 N 
ATOM      5  C8  UNL     1      11.729  12.875  34.950  0.00  0.00    +0.282 C 
ATOM      6  O2  UNL     1      10.693  13.034  35.649  0.00  0.00    -0.267 OA
ATOM      7  C19 UNL     1      13.114  10.842  34.500  0.00  0.00    +0.123 C 
ATOM      8  C20 UNL     1      14.145   9.931  35.164  0.00  0.00    +0.104 C 
ENDROOT
BRANCH   5   9
ATOM      9  C9  UNL     1      11.874  13.644  33.704  0.00  0.00    +0.190 A 
ATOM     10  C10 UNL     1      12.506  14.863  33.561  0.00  0.00    +0.055 A 
ATOM     11  C11 UNL     1      12.370  15.202  32.231  0.00  0.00    +0.050 A 
ATOM     12  C12 UNL     1      11.659  14.168  31.644  0.00  0.00    +0.136 A 
ATOM     13  O3  UNL     1      11.377  13.259  32.552  0.00  0.00    -0.450 OA
BRANCH  12  14
ATOM     14  C13 UNL     1      11.253  14.057  30.222  0.00  0.00    +0.020 A 
ATOM     15  C14 UNL     1      12.080  14.520  29.181  0.00  0.00    +0.031 A 
ATOM     16  C15 UNL     1      11.668  14.409  27.848  0.00  0.00    +0.043 A 
ATOM     17 CL1  UNL     1      12.701  15.001  26.558  0.00  0.00    -0.083 Cl
ATOM     18  C16 UNL     1      10.432  13.832  27.542  0.00  0.00    +0.040 A 
ATOM     19  C17 UNL     1       9.604  13.368  28.567  0.00  0.00    +0.043 A 
ATOM     20 CL2  UNL     1       8.059  12.634  28.179  0.00  0.00    -0.083 Cl
ATOM     21  C18 UNL     1      10.010  13.481  29.901  0.00  0.00    +0.031 A 
ENDBRANCH  12  14
ENDBRANCH   5   9
BRANCH   1  22
ATOM     22  C5  UNL     1      16.321   9.963  36.231  0.00  0.00    +0.180 C 
BRANCH  22  24
ATOM     23  N1  UNL     1      18.814  10.461  36.216  0.00  0.00    -0.312 N 
ATOM     24  C4  UNL     1      17.551  10.467  35.536  0.00  0.00    +0.227 C 
ATOM     25  O1  UNL     1      17.470  10.872  34.344  0.00  0.00    -0.274 OA
ATOM     26  H8  UNL     1      18.835  10.176  37.222  0.00  0.00    +0.149 HD
BRANCH  23  28
ATOM     27  C1  UNL     1      21.152   9.775  35.956  0.00  0.00    +0.027 C 
ATOM     28  C2  UNL     1      20.071  10.769  35.531  0.00  0.00    +0.067 C 
ATOM     29  C3  UNL     1      20.508  12.205  35.839  0.00  0.00    +0.027 C 
ENDBRANCH  23  28
ENDBRANCH  22  24
ENDBRANCH   1  22
TORSDOF 5
ENDMDL
MODEL 5
REMARK VINA RESULT:    -6.406      9.083     10.876
REMARK INTER + INTRA:          -8.820
REMARK INTER:                  -7.929
REMARK INTRA:                  -0.891
REMARK UNBOUND:                -0.541
REMARK  Name = /home/qwerty/github/datacon2025hack/step_04_hit_selection/docking/ligands/lig_328.pdb
REMARK  7 active torsions:
REMARK  status: ('A' for Active; 'I' for Inactive)
REMARK    1  A    between atoms: C1_1  and  C2_2
REMARK    2  A    between atoms: C2_2  and  C3_3
REMARK    3  A    between atoms: C2_2  and  N1_4
REMARK    4  A    between atoms: C4_5  and  C5_7
REMARK    5  A    between atoms: C5_7  and  N2_8
REMARK    6  A    between atoms: C8_12  and  C9_14
REMARK    7  A    between atoms: C12_17  and  C13_18
REMARK                            x       y       z     vdW  Elec       q    Type
REMARK                         _______ _______ _______ _____ _____    ______ ____
ROOT
ATOM      1  N2  UNL     1      10.147   4.905  21.261  0.00  0.00    -0.291 NA
ATOM      2  C6  UNL     1      11.078   3.791  21.572  0.00  0.00    +0.104 C 
ATOM      3  C7  UNL     1      10.460   2.708  22.484  0.00  0.00    +0.123 C 
ATOM      4  N3  UNL     1       9.261   3.197  23.177  0.00  0.00    -0.293 N 
ATOM      5  C8  UNL     1       8.907   2.615  24.442  0.00  0.00    +0.282 C 
ATOM      6  O2  UNL     1       9.031   1.373  24.614  0.00  0.00    -0.267 OA
ATOM      7  C19 UNL     1       8.237   3.937  22.429  0.00  0.00    +0.123 C 
ATOM      8  C20 UNL     1       8.774   4.406  21.078  0.00  0.00    +0.104 C 
ENDROOT
BRANCH   5   9
ATOM      9  C9  UNL     1       8.406   3.442  25.550  0.00  0.00    +0.190 A 
ATOM     10  C10 UNL     1       7.835   2.985  26.722  0.00  0.00    +0.055 A 
ATOM     11  C11 UNL     1       7.503   4.113  27.442  0.00  0.00    +0.050 A 
ATOM     12  C12 UNL     1       7.889   5.192  26.662  0.00  0.00    +0.136 A 
ATOM     13  O3  UNL     1       8.419   4.753  25.541  0.00  0.00    -0.450 OA
BRANCH  12  14
ATOM     14  C13 UNL     1       7.746   6.630  26.991  0.00  0.00    +0.020 A 
ATOM     15  C14 UNL     1       7.872   7.629  26.006  0.00  0.00    +0.031 A 
ATOM     16  C15 UNL     1       7.739   8.980  26.346  0.00  0.00    +0.043 A 
ATOM     17 CL1  UNL     1       7.910  10.216  25.112  0.00  0.00    -0.083 Cl
ATOM     18  C16 UNL     1       7.476   9.346  27.669  0.00  0.00    +0.040 A 
ATOM     19  C17 UNL     1       7.348   8.364  28.655  0.00  0.00    +0.043 A 
ATOM     20 CL2  UNL     1       7.007   8.828  30.311  0.00  0.00    -0.083 Cl
ATOM     21  C18 UNL     1       7.484   7.013  28.319  0.00  0.00    +0.031 A 
ENDBRANCH  12  14
ENDBRANCH   5   9
BRANCH   1  22
ATOM     22  C5  UNL     1      10.588   5.659  20.070  0.00  0.00    +0.180 C 
BRANCH  22  24
ATOM     23  N1  UNL     1      10.127   8.158  20.023  0.00  0.00    -0.312 N 
ATOM     24  C4  UNL     1      10.957   7.065  20.438  0.00  0.00    +0.227 C 
ATOM     25  O1  UNL     1      11.988   7.275  21.135  0.00  0.00    -0.274 OA
ATOM     26  H8  UNL     1       9.315   7.955  19.395  0.00  0.00    +0.149 HD
BRANCH  23  28
ATOM     27  C1  UNL     1       9.048  10.062  21.125  0.00  0.00    +0.027 C 
ATOM     28  C2  UNL     1      10.338   9.525  20.504  0.00  0.00    +0.067 C 
ATOM     29  C3  UNL     1      10.800  10.429  19.355  0.00  0.00    +0.027 C 
ENDBRANCH  23  28
ENDBRANCH  22  24
ENDBRANCH   1  22
TORSDOF 5
ENDMDL
MODEL 6
REMARK VINA RESULT:    -6.353     10.295     13.678
REMARK INTER + INTRA:          -8.752
REMARK INTER:                  -8.177
REMARK INTRA:                  -0.575
REMARK UNBOUND:                -0.541
REMARK  Name = /home/qwerty/github/datacon2025hack/step_04_hit_selection/docking/ligands/lig_328.pdb
REMARK  7 active torsions:
REMARK  status: ('A' for Active; 'I' for Inactive)
REMARK    1  A    between atoms: C1_1  and  C2_2
REMARK    2  A    between atoms: C2_2  and  C3_3
REMARK    3  A    between atoms: C2_2  and  N1_4
REMARK    4  A    between atoms: C4_5  and  C5_7
REMARK    5  A    between atoms: C5_7  and  N2_8
REMARK    6  A    between atoms: C8_12  and  C9_14
REMARK    7  A    between atoms: C12_17  and  C13_18
REMARK                            x       y       z     vdW  Elec       q    Type
REMARK                         _______ _______ _______ _____ _____    ______ ____
ROOT
ATOM      1  N2  UNL     1      20.482   8.376  36.551  0.00  0.00    -0.291 NA
ATOM      2  C6  UNL     1      21.352   7.568  37.442  0.00  0.00    +0.104 C 
ATOM      3  C7  UNL     1      22.656   7.093  36.764  0.00  0.00    +0.123 C 
ATOM      4  N3  UNL     1      22.572   7.176  35.300  0.00  0.00    -0.293 N 
ATOM      5  C8  UNL     1      23.369   6.281  34.509  0.00  0.00    +0.282 C 
ATOM      6  O2  UNL     1      24.550   6.020  34.861  0.00  0.00    -0.267 OA
ATOM      7  C19 UNL     1      22.032   8.387  34.668  0.00  0.00    +0.123 C 
ATOM      8  C20 UNL     1      21.287   9.252  35.684  0.00  0.00    +0.104 C 
ENDROOT
BRANCH   5   9
ATOM      9  C9  UNL     1      22.833   5.651  33.293  0.00  0.00    +0.190 A 
ATOM     10  C10 UNL     1      22.570   6.279  32.091  0.00  0.00    +0.055 A 
ATOM     11  C11 UNL     1      22.061   5.303  31.261  0.00  0.00    +0.050 A 
ATOM     12  C12 UNL     1      22.040   4.137  32.010  0.00  0.00    +0.136 A 
ATOM     13  O3  UNL     1      22.503   4.383  33.216  0.00  0.00    -0.450 OA
BRANCH  12  14
ATOM     14  C13 UNL     1      21.577   2.799  31.570  0.00  0.00    +0.020 A 
ATOM     15  C14 UNL     1      20.578   2.097  32.271  0.00  0.00    +0.031 A 
ATOM     16  C15 UNL     1      20.165   0.832  31.837  0.00  0.00    +0.043 A 
ATOM     17 CL1  UNL     1      18.928  -0.039  32.726  0.00  0.00    -0.083 Cl
ATOM     18  C16 UNL     1      20.740   0.259  30.699  0.00  0.00    +0.040 A 
ATOM     19  C17 UNL     1      21.731   0.947  29.995  0.00  0.00    +0.043 A 
ATOM     20 CL2  UNL     1      22.442   0.230  28.561  0.00  0.00    -0.083 Cl
ATOM     21  C18 UNL     1      22.150   2.210  30.428  0.00  0.00    +0.031 A 
ENDBRANCH  12  14
ENDBRANCH   5   9
BRANCH   1  22
ATOM     22  C5  UNL     1      19.506   9.169  37.326  0.00  0.00    +0.180 C 
BRANCH  22  24
ATOM     23  N1  UNL     1      18.220  11.158  36.402  0.00  0.00    -0.312 N 
ATOM     24  C4  UNL     1      18.454   9.743  36.424  0.00  0.00    +0.227 C 
ATOM     25  O1  UNL     1      17.794   8.975  35.671  0.00  0.00    -0.274 OA
ATOM     26  H8  UNL     1      18.740  11.758  37.082  0.00  0.00    +0.149 HD
BRANCH  23  28
ATOM     27  C1  UNL     1      17.880  13.167  35.041  0.00  0.00    +0.027 C 
ATOM     28  C2  UNL     1      17.338  11.787  35.417  0.00  0.00    +0.067 C 
ATOM     29  C3  UNL     1      15.914  11.901  35.972  0.00  0.00    +0.027 C 
ENDBRANCH  23  28
ENDBRANCH  22  24
ENDBRANCH   1  22
TORSDOF 5
ENDMDL
MODEL 7
REMARK VINA RESULT:    -6.351     13.418     15.287
REMARK INTER + INTRA:          -8.749
REMARK INTER:                  -7.908
REMARK INTRA:                  -0.841
REMARK UNBOUND:                -0.541
REMARK  Name = /home/qwerty/github/datacon2025hack/step_04_hit_selection/docking/ligands/lig_328.pdb
REMARK  7 active torsions:
REMARK  status: ('A' for Active; 'I' for Inactive)
REMARK    1  A    between atoms: C1_1  and  C2_2
REMARK    2  A    between atoms: C2_2  and  C3_3
REMARK    3  A    between atoms: C2_2  and  N1_4
REMARK    4  A    between atoms: C4_5  and  C5_7
REMARK    5  A    between atoms: C5_7  and  N2_8
REMARK    6  A    between atoms: C8_12  and  C9_14
REMARK    7  A    between atoms: C12_17  and  C13_18
REMARK                            x       y       z     vdW  Elec       q    Type
REMARK                         _______ _______ _______ _____ _____    ______ ____
ROOT
ATOM      1  N2  UNL     1       8.730  11.343  28.323  0.00  0.00    -0.291 NA
ATOM      2  C6  UNL     1       8.211  12.690  27.982  0.00  0.00    +0.104 C 
ATOM      3  C7  UNL     1       9.321  13.738  27.749  0.00  0.00    +0.123 C 
ATOM      4  N3  UNL     1      10.608  13.304  28.309  0.00  0.00    -0.293 N 
ATOM      5  C8  UNL     1      11.555  14.302  28.721  0.00  0.00    +0.282 C 
ATOM      6  O2  UNL     1      11.714  15.339  28.023  0.00  0.00    -0.267 OA
ATOM      7  C19 UNL     1      11.083  11.936  28.070  0.00  0.00    +0.123 C 
ATOM      8  C20 UNL     1       9.953  11.042  27.560  0.00  0.00    +0.104 C 
ENDROOT
BRANCH   5   9
ATOM      9  C9  UNL     1      12.344  14.145  29.953  0.00  0.00    +0.190 A 
ATOM     10  C10 UNL     1      13.721  14.160  30.053  0.00  0.00    +0.055 A 
ATOM     11  C11 UNL     1      14.003  13.954  31.387  0.00  0.00    +0.050 A 
ATOM     12  C12 UNL     1      12.778  13.821  32.020  0.00  0.00    +0.136 A 
ATOM     13  O3  UNL     1      11.812  13.937  31.134  0.00  0.00    -0.450 OA
BRANCH  12  14
ATOM     14  C13 UNL     1      12.538  13.583  33.463  0.00  0.00    +0.020 A 
ATOM     15  C14 UNL     1      13.507  12.966  34.280  0.00  0.00    +0.031 A 
ATOM     16  C15 UNL     1      13.252  12.747  35.638  0.00  0.00    +0.043 A 
ATOM     17 CL1  UNL     1      14.461  11.968  36.643  0.00  0.00    -0.083 Cl
ATOM     18  C16 UNL     1      12.032  13.143  36.195  0.00  0.00    +0.040 A 
ATOM     19  C17 UNL     1      11.064  13.756  35.395  0.00  0.00    +0.043 A 
ATOM     20 CL2  UNL     1       9.540  14.261  36.099  0.00  0.00    -0.083 Cl
ATOM     21  C18 UNL     1      11.314  13.974  34.035  0.00  0.00    +0.031 A 
ENDBRANCH  12  14
ENDBRANCH   5   9
BRANCH   1  22
ATOM     22  C5  UNL     1       7.710  10.299  28.098  0.00  0.00    +0.180 C 
BRANCH  22  24
ATOM     23  N1  UNL     1       7.255   7.968  29.005  0.00  0.00    -0.312 N 
ATOM     24  C4  UNL     1       7.702   9.312  29.228  0.00  0.00    +0.227 C 
ATOM     25  O1  UNL     1       8.113   9.668  30.367  0.00  0.00    -0.274 OA
ATOM     26  H8  UNL     1       6.863   7.724  28.066  0.00  0.00    +0.149 HD
BRANCH  23  28
ATOM     27  C1  UNL     1       8.787   6.294  29.930  0.00  0.00    +0.027 C 
ATOM     28  C2  UNL     1       7.395   6.921  30.019  0.00  0.00    +0.067 C 
ATOM     29  C3  UNL     1       6.310   5.853  29.836  0.00  0.00    +0.027 C 
ENDBRANCH  23  28
ENDBRANCH  22  24
ENDBRANCH   1  22
TORSDOF 5
ENDMDL
MODEL 8
REMARK VINA RESULT:    -6.291      1.455      2.607
REMARK INTER + INTRA:          -8.671
REMARK INTER:                  -8.074
REMARK INTRA:                  -0.597
REMARK UNBOUND:                -0.541
REMARK  Name = /home/qwerty/github/datacon2025hack/step_04_hit_selection/docking/ligands/lig_328.pdb
REMARK  7 active torsions:
REMARK  status: ('A' for Active; 'I' for Inactive)
REMARK    1  A    between atoms: C1_1  and  C2_2
REMARK    2  A    between atoms: C2_2  and  C3_3
REMARK    3  A    between atoms: C2_2  and  N1_4
REMARK    4  A    between atoms: C4_5  and  C5_7
REMARK    5  A    between atoms: C5_7  and  N2_8
REMARK    6  A    between atoms: C8_12  and  C9_14
REMARK    7  A    between atoms: C12_17  and  C13_18
REMARK                            x       y       z     vdW  Elec       q    Type
REMARK                         _______ _______ _______ _____ _____    ______ ____
ROOT
ATOM      1  N2  UNL     1      13.583   2.021  21.430  0.00  0.00    -0.291 NA
ATOM      2  C6  UNL     1      14.485   1.888  20.259  0.00  0.00    +0.104 C 
ATOM      3  C7  UNL     1      15.432   0.670  20.346  0.00  0.00    +0.123 C 
ATOM      4  N3  UNL     1      15.534   0.154  21.717  0.00  0.00    -0.293 N 
ATOM      5  C8  UNL     1      16.734  -0.529  22.112  0.00  0.00    +0.282 C 
ATOM      6  O2  UNL     1      17.296  -1.320  21.308  0.00  0.00    -0.267 OA
ATOM      7  C19 UNL     1      14.317  -0.036  22.517  0.00  0.00    +0.123 C 
ATOM      8  C20 UNL     1      13.130   0.699  21.896  0.00  0.00    +0.104 C 
ENDROOT
BRANCH   5   9
ATOM      9  C9  UNL     1      17.332  -0.319  23.439  0.00  0.00    +0.190 A 
ATOM     10  C10 UNL     1      16.855  -0.807  24.640  0.00  0.00    +0.055 A 
ATOM     11  C11 UNL     1      17.721  -0.338  25.606  0.00  0.00    +0.050 A 
ATOM     12  C12 UNL     1      18.673   0.412  24.934  0.00  0.00    +0.136 A 
ATOM     13  O3  UNL     1      18.407   0.404  23.645  0.00  0.00    -0.450 OA
BRANCH  12  14
ATOM     14  C13 UNL     1      19.826   1.131  25.526  0.00  0.00    +0.020 A 
ATOM     15  C14 UNL     1      20.434   0.694  26.719  0.00  0.00    +0.031 A 
ATOM     16  C15 UNL     1      21.517   1.397  27.260  0.00  0.00    +0.043 A 
ATOM     17 CL1  UNL     1      22.259   0.850  28.753  0.00  0.00    -0.083 Cl
ATOM     18  C16 UNL     1      22.005   2.537  26.615  0.00  0.00    +0.040 A 
ATOM     19  C17 UNL     1      21.410   2.980  25.430  0.00  0.00    +0.043 A 
ATOM     20 CL2  UNL     1      22.032   4.403  24.619  0.00  0.00    -0.083 Cl
ATOM     21  C18 UNL     1      20.325   2.282  24.888  0.00  0.00    +0.031 A 
ENDBRANCH  12  14
ENDBRANCH   5   9
BRANCH   1  22
ATOM     22  C5  UNL     1      12.425   2.885  21.122  0.00  0.00    +0.180 C 
BRANCH  22  24
ATOM     23  N1  UNL     1      10.230   2.954  22.404  0.00  0.00    -0.312 N 
ATOM     24  C4  UNL     1      11.645   3.189  22.366  0.00  0.00    +0.227 C 
ATOM     25  O1  UNL     1      12.245   3.630  23.385  0.00  0.00    -0.274 OA
ATOM     26  H8  UNL     1       9.755   2.647  21.524  0.00  0.00    +0.149 HD
BRANCH  23  28
ATOM     27  C1  UNL     1       9.386   1.698  24.331  0.00  0.00    +0.027 C 
ATOM     28  C2  UNL     1       9.454   3.061  23.640  0.00  0.00    +0.067 C 
ATOM     29  C3  UNL     1       8.044   3.584  23.342  0.00  0.00    +0.027 C 
ENDBRANCH  23  28
ENDBRANCH  22  24
ENDBRANCH   1  22
TORSDOF 5
ENDMDL
MODEL 9
REMARK VINA RESULT:    -6.260      9.369     13.094
REMARK INTER + INTRA:          -8.631
REMARK INTER:                  -7.786
REMARK INTRA:                  -0.845
REMARK UNBOUND:                -0.541
REMARK  Name = /home/qwerty/github/datacon2025hack/step_04_hit_selection/docking/ligands/lig_328.pdb
REMARK  7 active torsions:
REMARK  status: ('A' for Active; 'I' for Inactive)
REMARK    1  A    between atoms: C1_1  and  C2_2
REMARK    2  A    between atoms: C2_2  and  C3_3
REMARK    3  A    between atoms: C2_2  and  N1_4
REMARK    4  A    between atoms: C4_5  and  C5_7
REMARK    5  A    between atoms: C5_7  and  N2_8
REMARK    6  A    between atoms: C8_12  and  C9_14
REMARK    7  A    between atoms: C12_17  and  C13_18
REMARK                            x       y       z     vdW  Elec       q    Type
REMARK                         _______ _______ _______ _____ _____    ______ ____
ROOT
ATOM      1  N2  UNL     1      20.627   8.742  35.162  0.00  0.00    -0.291 NA
ATOM      2  C6  UNL     1      21.805   8.524  36.038  0.00  0.00    +0.104 C 
ATOM      3  C7  UNL     1      22.975   7.806  35.330  0.00  0.00    +0.123 C 
ATOM      4  N3  UNL     1      22.538   7.131  34.101  0.00  0.00    -0.293 N 
ATOM      5  C8  UNL     1      23.267   5.980  33.646  0.00  0.00    +0.282 C 
ATOM      6  O2  UNL     1      24.525   5.967  33.724  0.00  0.00    -0.267 OA
ATOM      7  C19 UNL     1      21.669   7.838  33.151  0.00  0.00    +0.123 C 
ATOM      8  C20 UNL     1      21.047   9.077  33.791  0.00  0.00    +0.104 C 
ENDROOT
BRANCH   5   9
ATOM      9  C9  UNL     1      22.575   4.805  33.094  0.00  0.00    +0.190 A 
ATOM     10  C10 UNL     1      21.738   3.948  33.781  0.00  0.00    +0.055 A 
ATOM     11  C11 UNL     1      21.347   2.993  32.868  0.00  0.00    +0.050 A 
ATOM     12  C12 UNL     1      21.973   3.324  31.676  0.00  0.00    +0.136 A 
ATOM     13  O3  UNL     1      22.700   4.407  31.851  0.00  0.00    -0.450 OA
BRANCH  12  14
ATOM     14  C13 UNL     1      21.876   2.604  30.384  0.00  0.00    +0.020 A 
ATOM     15  C14 UNL     1      22.274   1.259  30.258  0.00  0.00    +0.031 A 
ATOM     16  C15 UNL     1      22.178   0.605  29.024  0.00  0.00    +0.043 A 
ATOM     17 CL1  UNL     1      22.689  -1.067  28.875  0.00  0.00    -0.083 Cl
ATOM     18  C16 UNL     1      21.681   1.285  27.908  0.00  0.00    +0.040 A 
ATOM     19  C17 UNL     1      21.282   2.619  28.022  0.00  0.00    +0.043 A 
ATOM     20 CL2  UNL     1      20.648   3.464  26.623  0.00  0.00    -0.083 Cl
ATOM     21  C18 UNL     1      21.380   3.277  29.253  0.00  0.00    +0.031 A 
ENDBRANCH  12  14
ENDBRANCH   5   9
BRANCH   1  22
ATOM     22  C5  UNL     1      19.741   9.792  35.704  0.00  0.00    +0.180 C 
BRANCH  22  24
ATOM     23  N1  UNL     1      18.059   8.064  36.510  0.00  0.00    -0.312 N 
ATOM     24  C4  UNL     1      18.847   9.234  36.771  0.00  0.00    +0.227 C 
ATOM     25  O1  UNL     1      18.812   9.786  37.905  0.00  0.00    -0.274 OA
ATOM     26  H8  UNL     1      18.065   7.668  35.541  0.00  0.00    +0.149 HD
BRANCH  23  28
ATOM     27  C1  UNL     1      18.086   6.138  38.023  0.00  0.00    +0.027 C 
ATOM     28  C2  UNL     1      17.313   7.374  37.563  0.00  0.00    +0.067 C 
ATOM     29  C3  UNL     1      15.919   6.981  37.060  0.00  0.00    +0.027 C 
ENDBRANCH  23  28
ENDBRANCH  22  24
ENDBRANCH   1  22
TORSDOF 5
ENDMDL
