MODEL 1
REMARK VINA RESULT:    -5.973      0.000      0.000
REMARK INTER + INTRA:          -9.238
REMARK INTER:                  -8.417
REMARK INTRA:                  -0.822
REMARK UNBOUND:                -0.822
REMARK  Name = /home/qwerty/github/datacon2025hack/step_04_hit_selection/docking/ligands/lig_92.pdb
REMARK  10 active torsions:
REMARK  status: ('A' for Active; 'I' for Inactive)
REMARK    1  A    between atoms: C1_1  and  C2_2
REMARK    2  A    between atoms: C2_2  and  C3_3
REMARK    3  A    between atoms: C2_2  and  C4_4
REMARK    4  A    between atoms: C6_8  and  C7_9
REMARK    5  A    between atoms: N2_11  and  C8_12
REMARK    6  A    between atoms: C8_12  and  C9_13
REMARK    7  A    between atoms: C9_13  and  C10_14
REMARK    8  A    between atoms: C9_13  and  N3_15
REMARK    9  A    between atoms: C11_16  and  C12_18
REMARK   10  A    between atoms: C15_21  and  C16_22
REMARK                            x       y       z     vdW  Elec       q    Type
REMARK                         _______ _______ _______ _____ _____    ______ ____
ROOT
ATOM      1  C9  UNL     1      12.344  13.681  29.141  0.00  0.00    +0.087 C 
ATOM      2  C10 UNL     1      13.255  12.581  28.580  0.00  0.00    +0.029 C 
ENDROOT
BRANCH   1   3
ATOM      3  N3  UNL     1      11.907  13.331  30.497  0.00  0.00    -0.305 N 
ATOM      4  C11 UNL     1      12.113  14.211  31.615  0.00  0.00    +0.280 C 
ATOM      5  O3  UNL     1      12.741  15.293  31.457  0.00  0.00    -0.267 OA
ATOM      6  H16 UNL     1      11.459  12.401  30.657  0.00  0.00    +0.149 HD
BRANCH   4   7
ATOM      7  C12 UNL     1      11.608  13.877  32.958  0.00  0.00    +0.190 A 
ATOM      8  C13 UNL     1      11.950  12.778  33.729  0.00  0.00    +0.055 A 
ATOM      9  C14 UNL     1      11.224  12.895  34.895  0.00  0.00    +0.055 A 
ATOM     10  C15 UNL     1      10.485  14.056  34.763  0.00  0.00    +0.190 A 
ATOM     11  O5  UNL     1      10.735  14.617  33.602  0.00  0.00    -0.446 OA
BRANCH  10  12
ATOM     12  C16 UNL     1       9.553  14.603  35.759  0.00  0.00    +0.277 C 
ATOM     13  N4  UNL     1       9.046  15.931  35.623  0.00  0.00    -0.323 N 
ATOM     14  O4  UNL     1       9.194  13.898  36.740  0.00  0.00    -0.267 OA
ATOM     15  H19 UNL     1       8.385  16.317  36.332  0.00  0.00    +0.145 HD
ATOM     16  H20 UNL     1       9.329  16.534  34.818  0.00  0.00    +0.145 HD
ENDBRANCH  10  12
ENDBRANCH   4   7
ENDBRANCH   1   3
BRANCH   1  17
ATOM     17  C8  UNL     1      11.113  13.892  28.238  0.00  0.00    +0.126 C 
BRANCH  17  20
ATOM     18  C7  UNL     1       9.039  12.501  27.771  0.00  0.00    +0.266 C 
ATOM     19  O2  UNL     1       8.302  13.502  27.976  0.00  0.00    -0.268 OA
ATOM     20  N2  UNL     1      10.461  12.621  27.926  0.00  0.00    -0.308 N 
ATOM     21  H9  UNL     1      11.060  11.767  27.858  0.00  0.00    +0.149 HD
BRANCH  18  26
ATOM     22  C4  UNL     1       7.932  10.206  28.177  0.00  0.00    +0.140 A 
ATOM     23  O1  UNL     1       7.476   9.261  27.392  0.00  0.00    -0.446 OA
ATOM     24  C5  UNL     1       7.697   9.636  26.153  0.00  0.00    +0.308 A 
ATOM     25  N1  UNL     1       8.297  10.841  26.079  0.00  0.00    -0.211 NA
ATOM     26  C6  UNL     1       8.445  11.210  27.366  0.00  0.00    +0.167 A 
BRANCH  22  28
ATOM     27  C1  UNL     1       6.859   9.080  30.123  0.00  0.00    +0.015 C 
ATOM     28  C2  UNL     1       7.840  10.170  29.683  0.00  0.00    +0.051 C 
ATOM     29  C3  UNL     1       9.219   9.937  30.308  0.00  0.00    +0.015 C 
ENDBRANCH  22  28
ENDBRANCH  18  26
ENDBRANCH  17  20
ENDBRANCH   1  17
TORSDOF 7
ENDMDL
MODEL 2
REMARK VINA RESULT:    -5.912     13.452     14.896
REMARK INTER + INTRA:          -9.154
REMARK INTER:                  -8.161
REMARK INTRA:                  -0.992
REMARK UNBOUND:                -0.822
REMARK  Name = /home/qwerty/github/datacon2025hack/step_04_hit_selection/docking/ligands/lig_92.pdb
REMARK  10 active torsions:
REMARK  status: ('A' for Active; 'I' for Inactive)
REMARK    1  A    between atoms: C1_1  and  C2_2
REMARK    2  A    between atoms: C2_2  and  C3_3
REMARK    3  A    between atoms: C2_2  and  C4_4
REMARK    4  A    between atoms: C6_8  and  C7_9
REMARK    5  A    between atoms: N2_11  and  C8_12
REMARK    6  A    between atoms: C8_12  and  C9_13
REMARK    7  A    between atoms: C9_13  and  C10_14
REMARK    8  A    between atoms: C9_13  and  N3_15
REMARK    9  A    between atoms: C11_16  and  C12_18
REMARK   10  A    between atoms: C15_21  and  C16_22
REMARK                            x       y       z     vdW  Elec       q    Type
REMARK                         _______ _______ _______ _____ _____    ______ ____
ROOT
ATOM      1  C9  UNL     1      19.665   2.752  33.205  0.00  0.00    +0.087 C 
ATOM      2  C10 UNL     1      18.636   1.976  34.037  0.00  0.00    +0.029 C 
ENDROOT
BRANCH   1   3
ATOM      3  N3  UNL     1      20.188   3.884  33.979  0.00  0.00    -0.305 N 
ATOM      4  C11 UNL     1      21.540   4.350  33.829  0.00  0.00    +0.280 C 
ATOM      5  O3  UNL     1      22.334   3.742  33.062  0.00  0.00    -0.267 OA
ATOM      6  H16 UNL     1      19.565   4.345  34.679  0.00  0.00    +0.149 HD
BRANCH   4   7
ATOM      7  C12 UNL     1      22.030   5.530  34.562  0.00  0.00    +0.190 A 
ATOM      8  C13 UNL     1      23.351   5.892  34.772  0.00  0.00    +0.055 A 
ATOM      9  C14 UNL     1      23.309   7.059  35.506  0.00  0.00    +0.055 A 
ATOM     10  C15 UNL     1      21.968   7.335  35.697  0.00  0.00    +0.190 A 
ATOM     11  O5  UNL     1      21.234   6.409  35.125  0.00  0.00    -0.446 OA
BRANCH  10  12
ATOM     12  C16 UNL     1      21.420   8.487  36.428  0.00  0.00    +0.277 C 
ATOM     13  N4  UNL     1      21.267   8.437  37.846  0.00  0.00    -0.323 N 
ATOM     14  O4  UNL     1      21.085   9.527  35.802  0.00  0.00    -0.267 OA
ATOM     15  H19 UNL     1      20.877   9.257  38.363  0.00  0.00    +0.145 HD
ATOM     16  H20 UNL     1      21.539   7.586  38.386  0.00  0.00    +0.145 HD
ENDBRANCH  10  12
ENDBRANCH   4   7
ENDBRANCH   1   3
BRANCH   1  17
ATOM     17  C8  UNL     1      19.041   3.264  31.893  0.00  0.00    +0.126 C 
BRANCH  17  20
ATOM     18  C7  UNL     1      20.259   2.326  29.871  0.00  0.00    +0.266 C 
ATOM     19  O2  UNL     1      19.617   1.246  29.965  0.00  0.00    -0.268 OA
ATOM     20  N2  UNL     1      20.046   3.368  30.835  0.00  0.00    -0.308 N 
ATOM     21  H9  UNL     1      20.653   4.218  30.816  0.00  0.00    +0.149 HD
BRANCH  18  26
ATOM     22  C4  UNL     1      22.406   1.836  28.526  0.00  0.00    +0.140 A 
ATOM     23  O1  UNL     1      22.922   2.318  27.421  0.00  0.00    -0.446 OA
ATOM     24  C5  UNL     1      22.121   3.266  26.994  0.00  0.00    +0.308 A 
ATOM     25  N1  UNL     1      21.049   3.436  27.794  0.00  0.00    -0.211 NA
ATOM     26  C6  UNL     1      21.225   2.524  28.769  0.00  0.00    +0.167 A 
BRANCH  22  28
ATOM     27  C1  UNL     1      22.493  -0.639  28.794  0.00  0.00    +0.015 C 
ATOM     28  C2  UNL     1      23.014   0.703  29.316  0.00  0.00    +0.051 C 
ATOM     29  C3  UNL     1      24.544   0.749  29.247  0.00  0.00    +0.015 C 
ENDBRANCH  22  28
ENDBRANCH  18  26
ENDBRANCH  17  20
ENDBRANCH   1  17
TORSDOF 7
ENDMDL
MODEL 3
REMARK VINA RESULT:    -5.902      3.029      8.713
REMARK INTER + INTRA:          -9.139
REMARK INTER:                  -8.320
REMARK INTRA:                  -0.819
REMARK UNBOUND:                -0.822
REMARK  Name = /home/qwerty/github/datacon2025hack/step_04_hit_selection/docking/ligands/lig_92.pdb
REMARK  10 active torsions:
REMARK  status: ('A' for Active; 'I' for Inactive)
REMARK    1  A    between atoms: C1_1  and  C2_2
REMARK    2  A    between atoms: C2_2  and  C3_3
REMARK    3  A    between atoms: C2_2  and  C4_4
REMARK    4  A    between atoms: C6_8  and  C7_9
REMARK    5  A    between atoms: N2_11  and  C8_12
REMARK    6  A    between atoms: C8_12  and  C9_13
REMARK    7  A    between atoms: C9_13  and  C10_14
REMARK    8  A    between atoms: C9_13  and  N3_15
REMARK    9  A    between atoms: C11_16  and  C12_18
REMARK   10  A    between atoms: C15_21  and  C16_22
REMARK                            x       y       z     vdW  Elec       q    Type
REMARK                         _______ _______ _______ _____ _____    ______ ____
ROOT
ATOM      1  C9  UNL     1       7.666   9.708  28.932  0.00  0.00    +0.087 C 
ATOM      2  C10 UNL     1       8.512   8.655  29.660  0.00  0.00    +0.029 C 
ENDROOT
BRANCH   1   3
ATOM      3  N3  UNL     1       8.154   9.886  27.560  0.00  0.00    -0.305 N 
ATOM      4  C11 UNL     1       7.654   9.101  26.465  0.00  0.00    +0.280 C 
ATOM      5  O3  UNL     1       6.816   8.183  26.680  0.00  0.00    -0.267 OA
ATOM      6  H16 UNL     1       8.908  10.587  27.381  0.00  0.00    +0.149 HD
BRANCH   4   7
ATOM      7  C12 UNL     1       8.103   9.338  25.082  0.00  0.00    +0.190 A 
ATOM      8  C13 UNL     1       9.171   8.737  24.437  0.00  0.00    +0.055 A 
ATOM      9  C14 UNL     1       9.197   9.278  23.168  0.00  0.00    +0.055 A 
ATOM     10  C15 UNL     1       8.146  10.173  23.120  0.00  0.00    +0.190 A 
ATOM     11  O5  UNL     1       7.514  10.187  24.271  0.00  0.00    -0.446 OA
BRANCH  10  12
ATOM     12  C16 UNL     1       7.769  10.999  21.963  0.00  0.00    +0.277 C 
ATOM     13  N4  UNL     1       6.680  11.918  22.055  0.00  0.00    -0.323 N 
ATOM     14  O4  UNL     1       8.409  10.899  20.883  0.00  0.00    -0.267 OA
ATOM     15  H19 UNL     1       6.415  12.503  21.232  0.00  0.00    +0.145 HD
ATOM     16  H20 UNL     1       6.136  12.019  22.940  0.00  0.00    +0.145 HD
ENDBRANCH  10  12
ENDBRANCH   4   7
ENDBRANCH   1   3
BRANCH   1  17
ATOM     17  C8  UNL     1       7.703  11.057  29.676  0.00  0.00    +0.126 C 
BRANCH  17  20
ATOM     18  C7  UNL     1       9.035  13.146  29.114  0.00  0.00    +0.266 C 
ATOM     19  O2  UNL     1       7.971  13.796  28.937  0.00  0.00    -0.268 OA
ATOM     20  N2  UNL     1       8.970  11.751  29.448  0.00  0.00    -0.308 N 
ATOM     21  H9  UNL     1       9.851  11.191  29.493  0.00  0.00    +0.149 HD
BRANCH  18  26
ATOM     22  C4  UNL     1      11.271  14.098  29.983  0.00  0.00    +0.140 A 
ATOM     23  O1  UNL     1      12.307  14.662  29.412  0.00  0.00    -0.446 OA
ATOM     24  C5  UNL     1      12.051  14.745  28.127  0.00  0.00    +0.308 A 
ATOM     25  N1  UNL     1      10.846  14.232  27.806  0.00  0.00    -0.211 NA
ATOM     26  C6  UNL     1      10.347  13.815  28.986  0.00  0.00    +0.167 A 
BRANCH  22  28
ATOM     27  C1  UNL     1      11.691  12.375  31.733  0.00  0.00    +0.015 C 
ATOM     28  C2  UNL     1      11.184  13.793  31.459  0.00  0.00    +0.051 C 
ATOM     29  C3  UNL     1      11.981  14.816  32.275  0.00  0.00    +0.015 C 
ENDBRANCH  22  28
ENDBRANCH  18  26
ENDBRANCH  17  20
ENDBRANCH   1  17
TORSDOF 7
ENDMDL
MODEL 4
REMARK VINA RESULT:    -5.793     10.072     14.037
REMARK INTER + INTRA:          -8.985
REMARK INTER:                  -8.249
REMARK INTRA:                  -0.736
REMARK UNBOUND:                -0.822
REMARK  Name = /home/qwerty/github/datacon2025hack/step_04_hit_selection/docking/ligands/lig_92.pdb
REMARK  10 active torsions:
REMARK  status: ('A' for Active; 'I' for Inactive)
REMARK    1  A    between atoms: C1_1  and  C2_2
REMARK    2  A    between atoms: C2_2  and  C3_3
REMARK    3  A    between atoms: C2_2  and  C4_4
REMARK    4  A    between atoms: C6_8  and  C7_9
REMARK    5  A    between atoms: N2_11  and  C8_12
REMARK    6  A    between atoms: C8_12  and  C9_13
REMARK    7  A    between atoms: C9_13  and  C10_14
REMARK    8  A    between atoms: C9_13  and  N3_15
REMARK    9  A    between atoms: C11_16  and  C12_18
REMARK   10  A    between atoms: C15_21  and  C16_22
REMARK                            x       y       z     vdW  Elec       q    Type
REMARK                         _______ _______ _______ _____ _____    ______ ____
ROOT
ATOM      1  C9  UNL     1       8.768   3.866  21.949  0.00  0.00    +0.087 C 
ATOM      2  C10 UNL     1       8.648   4.315  23.411  0.00  0.00    +0.029 C 
ENDROOT
BRANCH   1   3
ATOM      3  N3  UNL     1      10.168   3.927  21.516  0.00  0.00    -0.305 N 
ATOM      4  C11 UNL     1      10.996   2.755  21.444  0.00  0.00    +0.280 C 
ATOM      5  O3  UNL     1      10.543   1.640  21.820  0.00  0.00    -0.267 OA
ATOM      6  H16 UNL     1      10.581   4.858  21.281  0.00  0.00    +0.149 HD
BRANCH   4   7
ATOM      7  C12 UNL     1      12.380   2.822  20.942  0.00  0.00    +0.190 A 
ATOM      8  C13 UNL     1      13.119   3.964  20.680  0.00  0.00    +0.055 A 
ATOM      9  C14 UNL     1      14.345   3.524  20.228  0.00  0.00    +0.055 A 
ATOM     10  C15 UNL     1      14.278   2.143  20.243  0.00  0.00    +0.190 A 
ATOM     11  O5  UNL     1      13.099   1.756  20.672  0.00  0.00    -0.446 OA
BRANCH  10  12
ATOM     12  C16 UNL     1      15.353   1.223  19.845  0.00  0.00    +0.277 C 
ATOM     13  N4  UNL     1      15.089   0.152  18.939  0.00  0.00    -0.323 N 
ATOM     14  O4  UNL     1      16.516   1.379  20.302  0.00  0.00    -0.267 OA
ATOM     15  H19 UNL     1      15.855  -0.500  18.658  0.00  0.00    +0.145 HD
ATOM     16  H20 UNL     1      14.133   0.004  18.547  0.00  0.00    +0.145 HD
ENDBRANCH  10  12
ENDBRANCH   4   7
ENDBRANCH   1   3
BRANCH   1  17
ATOM     17  C8  UNL     1       7.900   4.744  21.027  0.00  0.00    +0.126 C 
BRANCH  17  20
ATOM     18  C7  UNL     1       8.853   7.097  20.936  0.00  0.00    +0.266 C 
ATOM     19  O2  UNL     1       9.744   6.722  20.128  0.00  0.00    -0.268 OA
ATOM     20  N2  UNL     1       7.918   6.141  21.458  0.00  0.00    -0.308 N 
ATOM     21  H9  UNL     1       7.248   6.432  22.205  0.00  0.00    +0.149 HD
BRANCH  18  26
ATOM     22  C4  UNL     1       9.721   9.513  21.202  0.00  0.00    +0.140 A 
ATOM     23  O1  UNL     1       9.201  10.624  21.663  0.00  0.00    -0.446 OA
ATOM     24  C5  UNL     1       7.988  10.347  22.083  0.00  0.00    +0.308 A 
ATOM     25  N1  UNL     1       7.664   9.051  21.906  0.00  0.00    -0.211 NA
ATOM     26  C6  UNL     1       8.764   8.516  21.341  0.00  0.00    +0.167 A 
BRANCH  22  28
ATOM     27  C1  UNL     1      11.108  10.049  19.203  0.00  0.00    +0.015 C 
ATOM     28  C2  UNL     1      11.099   9.414  20.596  0.00  0.00    +0.051 C 
ATOM     29  C3  UNL     1      12.141  10.084  21.499  0.00  0.00    +0.015 C 
ENDBRANCH  22  28
ENDBRANCH  18  26
ENDBRANCH  17  20
ENDBRANCH   1  17
TORSDOF 7
ENDMDL
MODEL 5
REMARK VINA RESULT:    -5.727     14.284     16.995
REMARK INTER + INTRA:          -8.893
REMARK INTER:                  -7.767
REMARK INTRA:                  -1.126
REMARK UNBOUND:                -0.822
REMARK  Name = /home/qwerty/github/datacon2025hack/step_04_hit_selection/docking/ligands/lig_92.pdb
REMARK  10 active torsions:
REMARK  status: ('A' for Active; 'I' for Inactive)
REMARK    1  A    between atoms: C1_1  and  C2_2
REMARK    2  A    between atoms: C2_2  and  C3_3
REMARK    3  A    between atoms: C2_2  and  C4_4
REMARK    4  A    between atoms: C6_8  and  C7_9
REMARK    5  A    between atoms: N2_11  and  C8_12
REMARK    6  A    between atoms: C8_12  and  C9_13
REMARK    7  A    between atoms: C9_13  and  C10_14
REMARK    8  A    between atoms: C9_13  and  N3_15
REMARK    9  A    between atoms: C11_16  and  C12_18
REMARK   10  A    between atoms: C15_21  and  C16_22
REMARK                            x       y       z     vdW  Elec       q    Type
REMARK                         _______ _______ _______ _____ _____    ______ ____
ROOT
ATOM      1  C9  UNL     1      18.781   1.850  33.044  0.00  0.00    +0.087 C 
ATOM      2  C10 UNL     1      17.973   0.737  33.722  0.00  0.00    +0.029 C 
ENDROOT
BRANCH   1   3
ATOM      3  N3  UNL     1      19.709   1.274  32.064  0.00  0.00    -0.305 N 
ATOM      4  C11 UNL     1      19.681   1.646  30.676  0.00  0.00    +0.280 C 
ATOM      5  O3  UNL     1      18.799   2.444  30.256  0.00  0.00    -0.267 OA
ATOM      6  H16 UNL     1      20.391   0.550  32.383  0.00  0.00    +0.149 HD
BRANCH   4   7
ATOM      7  C12 UNL     1      20.663   1.111  29.718  0.00  0.00    +0.190 A 
ATOM      8  C13 UNL     1      20.585   1.147  28.335  0.00  0.00    +0.055 A 
ATOM      9  C14 UNL     1      21.727   0.524  27.877  0.00  0.00    +0.055 A 
ATOM     10  C15 UNL     1      22.429   0.148  29.006  0.00  0.00    +0.190 A 
ATOM     11  O5  UNL     1      21.772   0.511  30.084  0.00  0.00    -0.446 OA
BRANCH  10  12
ATOM     12  C16 UNL     1      23.721  -0.553  29.025  0.00  0.00    +0.277 C 
ATOM     13  N4  UNL     1      23.778  -1.968  28.844  0.00  0.00    -0.323 N 
ATOM     14  O4  UNL     1      24.787   0.096  29.200  0.00  0.00    -0.267 OA
ATOM     15  H19 UNL     1      24.698  -2.463  28.859  0.00  0.00    +0.145 HD
ATOM     16  H20 UNL     1      22.908  -2.526  28.698  0.00  0.00    +0.145 HD
ENDBRANCH  10  12
ENDBRANCH   4   7
ENDBRANCH   1   3
BRANCH   1  17
ATOM     17  C8  UNL     1      19.568   2.674  34.082  0.00  0.00    +0.126 C 
BRANCH  17  20
ATOM     18  C7  UNL     1      21.432   3.924  32.893  0.00  0.00    +0.266 C 
ATOM     19  O2  UNL     1      22.171   2.905  32.946  0.00  0.00    -0.268 OA
ATOM     20  N2  UNL     1      20.124   3.886  33.483  0.00  0.00    -0.308 N 
ATOM     21  H9  UNL     1      19.555   4.762  33.530  0.00  0.00    +0.149 HD
BRANCH  18  26
ATOM     22  C4  UNL     1      23.033   5.911  32.508  0.00  0.00    +0.140 A 
ATOM     23  O1  UNL     1      23.082   6.889  31.637  0.00  0.00    -0.446 OA
ATOM     24  C5  UNL     1      22.038   6.768  30.850  0.00  0.00    +0.308 A 
ATOM     25  N1  UNL     1      21.273   5.704  31.168  0.00  0.00    -0.211 NA
ATOM     26  C6  UNL     1      21.906   5.153  32.222  0.00  0.00    +0.167 A 
BRANCH  22  28
ATOM     27  C1  UNL     1      25.427   6.235  33.118  0.00  0.00    +0.015 C 
ATOM     28  C2  UNL     1      24.076   5.679  33.574  0.00  0.00    +0.051 C 
ATOM     29  C3  UNL     1      23.651   6.319  34.901  0.00  0.00    +0.015 C 
ENDBRANCH  22  28
ENDBRANCH  18  26
ENDBRANCH  17  20
ENDBRANCH   1  17
TORSDOF 7
ENDMDL
MODEL 6
REMARK VINA RESULT:    -5.713      9.463     12.550
REMARK INTER + INTRA:          -8.872
REMARK INTER:                  -8.166
REMARK INTRA:                  -0.706
REMARK UNBOUND:                -0.822
REMARK  Name = /home/qwerty/github/datacon2025hack/step_04_hit_selection/docking/ligands/lig_92.pdb
REMARK  10 active torsions:
REMARK  status: ('A' for Active; 'I' for Inactive)
REMARK    1  A    between atoms: C1_1  and  C2_2
REMARK    2  A    between atoms: C2_2  and  C3_3
REMARK    3  A    between atoms: C2_2  and  C4_4
REMARK    4  A    between atoms: C6_8  and  C7_9
REMARK    5  A    between atoms: N2_11  and  C8_12
REMARK    6  A    between atoms: C8_12  and  C9_13
REMARK    7  A    between atoms: C9_13  and  C10_14
REMARK    8  A    between atoms: C9_13  and  N3_15
REMARK    9  A    between atoms: C11_16  and  C12_18
REMARK   10  A    between atoms: C15_21  and  C16_22
REMARK                            x       y       z     vdW  Elec       q    Type
REMARK                         _______ _______ _______ _____ _____    ______ ____
ROOT
ATOM      1  C9  UNL     1      18.913  10.310  36.814  0.00  0.00    +0.087 C 
ATOM      2  C10 UNL     1      18.139   9.989  38.099  0.00  0.00    +0.029 C 
ENDROOT
BRANCH   1   3
ATOM      3  N3  UNL     1      20.171   9.556  36.781  0.00  0.00    -0.305 N 
ATOM      4  C11 UNL     1      20.401   8.497  35.837  0.00  0.00    +0.280 C 
ATOM      5  O3  UNL     1      19.483   8.147  35.046  0.00  0.00    -0.267 OA
ATOM      6  H16 UNL     1      20.909   9.780  37.485  0.00  0.00    +0.149 HD
BRANCH   4   7
ATOM      7  C12 UNL     1      21.694   7.795  35.771  0.00  0.00    +0.190 A 
ATOM      8  C13 UNL     1      22.304   7.070  36.781  0.00  0.00    +0.055 A 
ATOM      9  C14 UNL     1      23.490   6.608  36.251  0.00  0.00    +0.055 A 
ATOM     10  C15 UNL     1      23.530   7.080  34.953  0.00  0.00    +0.190 A 
ATOM     11  O5  UNL     1      22.450   7.781  34.696  0.00  0.00    -0.446 OA
BRANCH  10  12
ATOM     12  C16 UNL     1      24.610   6.844  33.983  0.00  0.00    +0.277 C 
ATOM     13  N4  UNL     1      25.313   5.602  33.971  0.00  0.00    -0.323 N 
ATOM     14  O4  UNL     1      24.918   7.741  33.154  0.00  0.00    -0.267 OA
ATOM     15  H19 UNL     1      26.079   5.438  33.281  0.00  0.00    +0.145 HD
ATOM     16  H20 UNL     1      25.075   4.844  34.648  0.00  0.00    +0.145 HD
ENDBRANCH  10  12
ENDBRANCH   4   7
ENDBRANCH   1   3
BRANCH   1  17
ATOM     17  C8  UNL     1      19.208  11.818  36.708  0.00  0.00    +0.126 C 
BRANCH  17  20
ATOM     18  C7  UNL     1      17.152  12.953  35.738  0.00  0.00    +0.266 C 
ATOM     19  O2  UNL     1      17.507  12.634  34.572  0.00  0.00    -0.268 OA
ATOM     20  N2  UNL     1      17.985  12.608  36.855  0.00  0.00    -0.308 N 
ATOM     21  H9  UNL     1      17.743  12.963  37.807  0.00  0.00    +0.149 HD
BRANCH  18  26
ATOM     22  C4  UNL     1      14.599  13.151  36.052  0.00  0.00    +0.140 A 
ATOM     23  O1  UNL     1      13.782  14.149  36.290  0.00  0.00    -0.446 OA
ATOM     24  C5  UNL     1      14.503  15.245  36.333  0.00  0.00    +0.308 A 
ATOM     25  N1  UNL     1      15.816  15.009  36.135  0.00  0.00    -0.211 NA
ATOM     26  C6  UNL     1      15.881  13.675  35.959  0.00  0.00    +0.167 A 
BRANCH  22  28
ATOM     27  C1  UNL     1      13.077  11.419  36.997  0.00  0.00    +0.015 C 
ATOM     28  C2  UNL     1      14.163  11.709  35.958  0.00  0.00    +0.051 C 
ATOM     29  C3  UNL     1      13.659  11.383  34.547  0.00  0.00    +0.015 C 
ENDBRANCH  22  28
ENDBRANCH  18  26
ENDBRANCH  17  20
ENDBRANCH   1  17
TORSDOF 7
ENDMDL
MODEL 7
REMARK VINA RESULT:    -5.675     12.529     15.531
REMARK INTER + INTRA:          -8.820
REMARK INTER:                  -8.008
REMARK INTRA:                  -0.811
REMARK UNBOUND:                -0.822
REMARK  Name = /home/qwerty/github/datacon2025hack/step_04_hit_selection/docking/ligands/lig_92.pdb
REMARK  10 active torsions:
REMARK  status: ('A' for Active; 'I' for Inactive)
REMARK    1  A    between atoms: C1_1  and  C2_2
REMARK    2  A    between atoms: C2_2  and  C3_3
REMARK    3  A    between atoms: C2_2  and  C4_4
REMARK    4  A    between atoms: C6_8  and  C7_9
REMARK    5  A    between atoms: N2_11  and  C8_12
REMARK    6  A    between atoms: C8_12  and  C9_13
REMARK    7  A    between atoms: C9_13  and  C10_14
REMARK    8  A    between atoms: C9_13  and  N3_15
REMARK    9  A    between atoms: C11_16  and  C12_18
REMARK   10  A    between atoms: C15_21  and  C16_22
REMARK                            x       y       z     vdW  Elec       q    Type
REMARK                         _______ _______ _______ _____ _____    ______ ____
ROOT
ATOM      1  C9  UNL     1      23.416   6.748  35.071  0.00  0.00    +0.087 C 
ATOM      2  C10 UNL     1      23.045   8.037  34.326  0.00  0.00    +0.029 C 
ENDROOT
BRANCH   1   3
ATOM      3  N3  UNL     1      22.633   5.622  34.550  0.00  0.00    -0.305 N 
ATOM      4  C11 UNL     1      23.026   4.900  33.372  0.00  0.00    +0.280 C 
ATOM      5  O3  UNL     1      24.037   5.270  32.715  0.00  0.00    -0.267 OA
ATOM      6  H16 UNL     1      21.748   5.357  35.038  0.00  0.00    +0.149 HD
BRANCH   4   7
ATOM      7  C12 UNL     1      22.268   3.728  32.900  0.00  0.00    +0.190 A 
ATOM      8  C13 UNL     1      21.253   3.066  33.570  0.00  0.00    +0.055 A 
ATOM      9  C14 UNL     1      20.858   2.040  32.737  0.00  0.00    +0.055 A 
ATOM     10  C15 UNL     1      21.656   2.141  31.613  0.00  0.00    +0.190 A 
ATOM     11  O5  UNL     1      22.484   3.153  31.739  0.00  0.00    -0.446 OA
BRANCH  10  12
ATOM     12  C16 UNL     1      21.606   1.259  30.438  0.00  0.00    +0.277 C 
ATOM     13  N4  UNL     1      20.922   0.008  30.502  0.00  0.00    -0.323 N 
ATOM     14  O4  UNL     1      22.167   1.607  29.365  0.00  0.00    -0.267 OA
ATOM     15  H19 UNL     1      20.888  -0.617  29.665  0.00  0.00    +0.145 HD
ATOM     16  H20 UNL     1      20.449  -0.302  31.380  0.00  0.00    +0.145 HD
ENDBRANCH  10  12
ENDBRANCH   4   7
ENDBRANCH   1   3
BRANCH   1  17
ATOM     17  C8  UNL     1      23.171   6.895  36.585  0.00  0.00    +0.126 C 
BRANCH  17  20
ATOM     18  C7  UNL     1      20.764   7.686  36.776  0.00  0.00    +0.266 C 
ATOM     19  O2  UNL     1      20.347   6.564  36.381  0.00  0.00    -0.268 OA
ATOM     20  N2  UNL     1      22.176   7.931  36.862  0.00  0.00    -0.308 N 
ATOM     21  H9  UNL     1      22.518   8.892  37.088  0.00  0.00    +0.149 HD
BRANCH  18  26
ATOM     22  C4  UNL     1      19.701  10.034  36.648  0.00  0.00    +0.140 A 
ATOM     23  O1  UNL     1      18.687  10.611  37.246  0.00  0.00    -0.446 OA
ATOM     24  C5  UNL     1      18.183   9.743  38.093  0.00  0.00    +0.308 A 
ATOM     25  N1  UNL     1      18.839   8.565  38.077  0.00  0.00    -0.211 NA
ATOM     26  C6  UNL     1      19.805   8.745  37.155  0.00  0.00    +0.167 A 
BRANCH  22  28
ATOM     27  C1  UNL     1      20.022  10.284  34.191  0.00  0.00    +0.015 C 
ATOM     28  C2  UNL     1      20.533  10.692  35.575  0.00  0.00    +0.051 C 
ATOM     29  C3  UNL     1      20.513  12.217  35.728  0.00  0.00    +0.015 C 
ENDBRANCH  22  28
ENDBRANCH  18  26
ENDBRANCH  17  20
ENDBRANCH   1  17
TORSDOF 7
ENDMDL
MODEL 8
REMARK VINA RESULT:    -5.647     14.447     16.145
REMARK INTER + INTRA:          -8.779
REMARK INTER:                  -8.092
REMARK INTRA:                  -0.688
REMARK UNBOUND:                -0.822
REMARK  Name = /home/qwerty/github/datacon2025hack/step_04_hit_selection/docking/ligands/lig_92.pdb
REMARK  10 active torsions:
REMARK  status: ('A' for Active; 'I' for Inactive)
REMARK    1  A    between atoms: C1_1  and  C2_2
REMARK    2  A    between atoms: C2_2  and  C3_3
REMARK    3  A    between atoms: C2_2  and  C4_4
REMARK    4  A    between atoms: C6_8  and  C7_9
REMARK    5  A    between atoms: N2_11  and  C8_12
REMARK    6  A    between atoms: C8_12  and  C9_13
REMARK    7  A    between atoms: C9_13  and  C10_14
REMARK    8  A    between atoms: C9_13  and  N3_15
REMARK    9  A    between atoms: C11_16  and  C12_18
REMARK   10  A    between atoms: C15_21  and  C16_22
REMARK                            x       y       z     vdW  Elec       q    Type
REMARK                         _______ _______ _______ _____ _____    ______ ____
ROOT
ATOM      1  C9  UNL     1      19.820   3.864  24.979  0.00  0.00    +0.087 C 
ATOM      2  C10 UNL     1      20.595   3.786  23.657  0.00  0.00    +0.029 C 
ENDROOT
BRANCH   1   3
ATOM      3  N3  UNL     1      20.438   2.984  25.978  0.00  0.00    -0.305 N 
ATOM      4  C11 UNL     1      21.281   3.493  27.024  0.00  0.00    +0.280 C 
ATOM      5  O3  UNL     1      21.561   4.722  27.066  0.00  0.00    -0.267 OA
ATOM      6  H16 UNL     1      20.281   1.954  25.906  0.00  0.00    +0.149 HD
BRANCH   4   7
ATOM      7  C12 UNL     1      21.838   2.607  28.061  0.00  0.00    +0.190 A 
ATOM      8  C13 UNL     1      21.684   2.725  29.432  0.00  0.00    +0.055 A 
ATOM      9  C14 UNL     1      22.385   1.674  29.983  0.00  0.00    +0.055 A 
ATOM     10  C15 UNL     1      22.923   0.980  28.915  0.00  0.00    +0.190 A 
ATOM     11  O5  UNL     1      22.581   1.559  27.787  0.00  0.00    -0.446 OA
BRANCH  10  12
ATOM     12  C16 UNL     1      23.757  -0.227  29.003  0.00  0.00    +0.277 C 
ATOM     13  N4  UNL     1      25.168  -0.119  29.188  0.00  0.00    -0.323 N 
ATOM     14  O4  UNL     1      23.226  -1.366  28.916  0.00  0.00    -0.267 OA
ATOM     15  H19 UNL     1      25.758  -0.979  29.249  0.00  0.00    +0.145 HD
ATOM     16  H20 UNL     1      25.631   0.814  29.263  0.00  0.00    +0.145 HD
ENDBRANCH  10  12
ENDBRANCH   4   7
ENDBRANCH   1   3
BRANCH   1  17
ATOM     17  C8  UNL     1      18.345   3.467  24.779  0.00  0.00    +0.126 C 
BRANCH  17  20
ATOM     18  C7  UNL     1      16.974   1.530  23.873  0.00  0.00    +0.266 C 
ATOM     19  O2  UNL     1      15.928   2.010  24.385  0.00  0.00    -0.268 OA
ATOM     20  N2  UNL     1      18.232   2.194  24.069  0.00  0.00    -0.308 N 
ATOM     21  H9  UNL     1      19.110   1.740  23.732  0.00  0.00    +0.149 HD
BRANCH  18  26
ATOM     22  C4  UNL     1      17.169  -1.012  23.471  0.00  0.00    +0.140 A 
ATOM     23  O1  UNL     1      16.949  -1.793  22.441  0.00  0.00    -0.446 OA
ATOM     24  C5  UNL     1      16.582  -1.029  21.439  0.00  0.00    +0.308 A 
ATOM     25  N1  UNL     1      16.539   0.277  21.773  0.00  0.00    -0.211 NA
ATOM     26  C6  UNL     1      16.908   0.291  23.068  0.00  0.00    +0.167 A 
BRANCH  22  28
ATOM     27  C1  UNL     1      16.476  -1.223  25.854  0.00  0.00    +0.015 C 
ATOM     28  C2  UNL     1      17.581  -1.509  24.834  0.00  0.00    +0.051 C 
ATOM     29  C3  UNL     1      17.900  -3.008  24.794  0.00  0.00    +0.015 C 
ENDBRANCH  22  28
ENDBRANCH  18  26
ENDBRANCH  17  20
ENDBRANCH   1  17
TORSDOF 7
ENDMDL
MODEL 9
REMARK VINA RESULT:    -5.578     13.968     16.896
REMARK INTER + INTRA:          -8.683
REMARK INTER:                  -7.869
REMARK INTRA:                  -0.814
REMARK UNBOUND:                -0.822
REMARK  Name = /home/qwerty/github/datacon2025hack/step_04_hit_selection/docking/ligands/lig_92.pdb
REMARK  10 active torsions:
REMARK  status: ('A' for Active; 'I' for Inactive)
REMARK    1  A    between atoms: C1_1  and  C2_2
REMARK    2  A    between atoms: C2_2  and  C3_3
REMARK    3  A    between atoms: C2_2  and  C4_4
REMARK    4  A    between atoms: C6_8  and  C7_9
REMARK    5  A    between atoms: N2_11  and  C8_12
REMARK    6  A    between atoms: C8_12  and  C9_13
REMARK    7  A    between atoms: C9_13  and  C10_14
REMARK    8  A    between atoms: C9_13  and  N3_15
REMARK    9  A    between atoms: C11_16  and  C12_18
REMARK   10  A    between atoms: C15_21  and  C16_22
REMARK                            x       y       z     vdW  Elec       q    Type
REMARK                         _______ _______ _______ _____ _____    ______ ____
ROOT
ATOM      1  C9  UNL     1      18.909   3.133  32.674  0.00  0.00    +0.087 C 
ATOM      2  C10 UNL     1      18.881   2.285  33.953  0.00  0.00    +0.029 C 
ENDROOT
BRANCH   1   3
ATOM      3  N3  UNL     1      19.912   2.606  31.742  0.00  0.00    -0.305 N 
ATOM      4  C11 UNL     1      19.582   1.635  30.736  0.00  0.00    +0.280 C 
ATOM      5  O3  UNL     1      18.414   1.162  30.676  0.00  0.00    -0.267 OA
ATOM      6  H16 UNL     1      20.902   2.928  31.834  0.00  0.00    +0.149 HD
BRANCH   4   7
ATOM      7  C12 UNL     1      20.584   1.167  29.763  0.00  0.00    +0.190 A 
ATOM      8  C13 UNL     1      20.504   1.240  28.382  0.00  0.00    +0.055 A 
ATOM      9  C14 UNL     1      21.669   0.675  27.907  0.00  0.00    +0.055 A 
ATOM     10  C15 UNL     1      22.385   0.293  29.026  0.00  0.00    +0.190 A 
ATOM     11  O5  UNL     1      21.715   0.598  30.113  0.00  0.00    -0.446 OA
BRANCH  10  12
ATOM     12  C16 UNL     1      23.703  -0.358  29.025  0.00  0.00    +0.277 C 
ATOM     13  N4  UNL     1      24.890   0.412  29.215  0.00  0.00    -0.323 N 
ATOM     14  O4  UNL     1      23.789  -1.604  28.858  0.00  0.00    -0.267 OA
ATOM     15  H19 UNL     1      25.825  -0.054  29.214  0.00  0.00    +0.145 HD
ATOM     16  H20 UNL     1      24.843   1.445  29.356  0.00  0.00    +0.145 HD
ENDBRANCH  10  12
ENDBRANCH   4   7
ENDBRANCH   1   3
BRANCH   1  17
ATOM     17  C8  UNL     1      19.223   4.607  32.996  0.00  0.00    +0.126 C 
BRANCH  17  20
ATOM     18  C7  UNL     1      21.334   6.019  33.043  0.00  0.00    +0.266 C 
ATOM     19  O2  UNL     1      20.736   6.961  32.458  0.00  0.00    -0.268 OA
ATOM     20  N2  UNL     1      20.640   4.791  33.307  0.00  0.00    -0.308 N 
ATOM     21  H9  UNL     1      21.166   3.977  33.697  0.00  0.00    +0.149 HD
BRANCH  18  26
ATOM     22  C4  UNL     1      23.233   6.558  34.704  0.00  0.00    +0.140 A 
ATOM     23  O1  UNL     1      24.542   6.528  34.636  0.00  0.00    -0.446 OA
ATOM     24  C5  UNL     1      24.865   6.162  33.417  0.00  0.00    +0.308 A 
ATOM     25  N1  UNL     1      23.784   5.930  32.645  0.00  0.00    -0.211 NA
ATOM     26  C6  UNL     1      22.742   6.178  33.463  0.00  0.00    +0.167 A 
BRANCH  22  28
ATOM     27  C1  UNL     1      23.318   6.629  37.193  0.00  0.00    +0.015 C 
ATOM     28  C2  UNL     1      22.462   6.904  35.954  0.00  0.00    +0.051 C 
ATOM     29  C3  UNL     1      22.009   8.369  35.928  0.00  0.00    +0.015 C 
ENDBRANCH  22  28
ENDBRANCH  18  26
ENDBRANCH  17  20
ENDBRANCH   1  17
TORSDOF 7
ENDMDL
