MODEL 1
REMARK VINA RESULT:    -6.071      0.000      0.000
REMARK INTER + INTRA:          -7.598
REMARK INTER:                  -7.136
REMARK INTRA:                  -0.462
REMARK UNBOUND:                -0.462
REMARK  Name = /home/qwerty/github/datacon2025hack/step_04_hit_selection/docking/ligands/lig_121.pdb
REMARK  7 active torsions:
REMARK  status: ('A' for Active; 'I' for Inactive)
REMARK    1  A    between atoms: C1_1  and  C2_2
REMARK    2  A    between atoms: C7_7  and  C8_8
REMARK    3  A    between atoms: C8_8  and  C9_9
REMARK    4  A    between atoms: C8_8  and  C10_10
REMARK    5  A    between atoms: C13_16  and  C14_18
REMARK    6  A    between atoms: C14_18  and  C15_19
REMARK    7  A    between atoms: C14_18  and  C16_20
REMARK                            x       y       z     vdW  Elec       q    Type
REMARK                         _______ _______ _______ _____ _____    ______ ____
ROOT
ATOM      1  C10 UNL     1      13.543  13.781  33.779  0.00  0.00    +0.223 C 
ATOM      2  O1  UNL     1      14.740  13.381  33.766  0.00  0.00    -0.275 OA
ATOM      3  N1  UNL     1      12.813  13.839  32.537  0.00  0.00    -0.298 N 
ATOM      4  C11 UNL     1      11.360  13.636  32.502  0.00  0.00    +0.127 C 
ATOM      5  C12 UNL     1      10.933  12.966  31.193  0.00  0.00    +0.126 C 
ATOM      6  N2  UNL     1      11.580  13.613  30.045  0.00  0.00    -0.298 N 
ATOM      7  C13 UNL     1      10.878  13.830  28.803  0.00  0.00    +0.218 C 
ATOM      8  O2  UNL     1      11.225  14.788  28.058  0.00  0.00    -0.275 OA
ATOM      9  C17 UNL     1      13.037  13.776  30.090  0.00  0.00    +0.126 C 
ATOM     10  C18 UNL     1      13.447  14.482  31.380  0.00  0.00    +0.127 C 
ENDROOT
BRANCH   7  11
ATOM     11  C14 UNL     1       9.732  12.944  28.369  0.00  0.00    +0.069 C 
ATOM     12  C15 UNL     1      10.215  11.881  27.377  0.00  0.00    +0.017 C 
ATOM     13  C16 UNL     1       8.610  13.788  27.755  0.00  0.00    +0.017 C 
ENDBRANCH   7  11
BRANCH   1  14
ATOM     14  C8  UNL     1      12.950  14.316  35.066  0.00  0.00    +0.102 C 
ATOM     15  C9  UNL     1      13.985  15.187  35.793  0.00  0.00    +0.022 C 
BRANCH  14  22
ATOM     16  C1  UNL     1      10.032  14.153  35.835  0.00  0.00    +0.044 C 
ATOM     17  C2  UNL     1      11.025  13.115  36.292  0.00  0.00    -0.047 A 
ATOM     18  C3  UNL     1      10.565  12.053  37.091  0.00  0.00    +0.003 A 
ATOM     19  C4  UNL     1      11.436  11.050  37.511  0.00  0.00    +0.000 A 
ATOM     20  C5  UNL     1      12.776  11.086  37.134  0.00  0.00    +0.000 A 
ATOM     21  C6  UNL     1      13.256  12.135  36.350  0.00  0.00    +0.004 A 
ATOM     22  C7  UNL     1      12.403  13.185  35.941  0.00  0.00    -0.033 A 
ENDBRANCH  14  22
ENDBRANCH   1  14
TORSDOF 3
ENDMDL
MODEL 2
REMARK VINA RESULT:    -5.943     12.642     14.255
REMARK INTER + INTRA:          -7.448
REMARK INTER:                  -7.008
REMARK INTRA:                  -0.439
REMARK UNBOUND:                -0.462
REMARK  Name = /home/qwerty/github/datacon2025hack/step_04_hit_selection/docking/ligands/lig_121.pdb
REMARK  7 active torsions:
REMARK  status: ('A' for Active; 'I' for Inactive)
REMARK    1  A    between atoms: C1_1  and  C2_2
REMARK    2  A    between atoms: C7_7  and  C8_8
REMARK    3  A    between atoms: C8_8  and  C9_9
REMARK    4  A    between atoms: C8_8  and  C10_10
REMARK    5  A    between atoms: C13_16  and  C14_18
REMARK    6  A    between atoms: C14_18  and  C15_19
REMARK    7  A    between atoms: C14_18  and  C16_20
REMARK                            x       y       z     vdW  Elec       q    Type
REMARK                         _______ _______ _______ _____ _____    ______ ____
ROOT
ATOM      1  C10 UNL     1      21.590   5.684  34.633  0.00  0.00    +0.223 C 
ATOM      2  O1  UNL     1      20.537   6.152  35.148  0.00  0.00    -0.275 OA
ATOM      3  N1  UNL     1      21.487   4.568  33.726  0.00  0.00    -0.298 N 
ATOM      4  C11 UNL     1      22.447   4.392  32.629  0.00  0.00    +0.127 C 
ATOM      5  C12 UNL     1      21.777   3.738  31.417  0.00  0.00    +0.126 C 
ATOM      6  N2  UNL     1      20.965   2.588  31.832  0.00  0.00    -0.298 N 
ATOM      7  C13 UNL     1      20.909   1.377  31.048  0.00  0.00    +0.218 C 
ATOM      8  O2  UNL     1      20.663   0.281  31.623  0.00  0.00    -0.275 OA
ATOM      9  C17 UNL     1      19.991   2.797  32.909  0.00  0.00    +0.126 C 
ATOM     10  C18 UNL     1      20.678   3.411  34.126  0.00  0.00    +0.127 C 
ENDROOT
BRANCH   7  11
ATOM     11  C14 UNL     1      21.142   1.384  29.554  0.00  0.00    +0.069 C 
ATOM     12  C15 UNL     1      19.809   1.365  28.798  0.00  0.00    +0.017 C 
ATOM     13  C16 UNL     1      22.013   0.191  29.146  0.00  0.00    +0.017 C 
ENDBRANCH   7  11
BRANCH   1  14
ATOM     14  C8  UNL     1      22.937   6.212  35.082  0.00  0.00    +0.102 C 
ATOM     15  C9  UNL     1      22.855   6.674  36.544  0.00  0.00    +0.022 C 
BRANCH  14  22
ATOM     16  C1  UNL     1      25.536   5.928  33.564  0.00  0.00    +0.044 C 
ATOM     17  C2  UNL     1      24.674   7.157  33.425  0.00  0.00    -0.047 A 
ATOM     18  C3  UNL     1      25.102   8.182  32.563  0.00  0.00    +0.003 A 
ATOM     19  C4  UNL     1      24.324   9.323  32.373  0.00  0.00    +0.000 A 
ATOM     20  C5  UNL     1      23.106   9.455  33.033  0.00  0.00    +0.000 A 
ATOM     21  C6  UNL     1      22.666   8.454  33.899  0.00  0.00    +0.004 A 
ATOM     22  C7  UNL     1      23.450   7.304  34.139  0.00  0.00    -0.033 A 
ENDBRANCH  14  22
ENDBRANCH   1  14
TORSDOF 3
ENDMDL
MODEL 3
REMARK VINA RESULT:    -5.807      6.164     12.245
REMARK INTER + INTRA:          -7.287
REMARK INTER:                  -6.862
REMARK INTRA:                  -0.426
REMARK UNBOUND:                -0.462
REMARK  Name = /home/qwerty/github/datacon2025hack/step_04_hit_selection/docking/ligands/lig_121.pdb
REMARK  7 active torsions:
REMARK  status: ('A' for Active; 'I' for Inactive)
REMARK    1  A    between atoms: C1_1  and  C2_2
REMARK    2  A    between atoms: C7_7  and  C8_8
REMARK    3  A    between atoms: C8_8  and  C9_9
REMARK    4  A    between atoms: C8_8  and  C10_10
REMARK    5  A    between atoms: C13_16  and  C14_18
REMARK    6  A    between atoms: C14_18  and  C15_19
REMARK    7  A    between atoms: C14_18  and  C16_20
REMARK                            x       y       z     vdW  Elec       q    Type
REMARK                         _______ _______ _______ _____ _____    ______ ____
ROOT
ATOM      1  C10 UNL     1       8.652   7.724  23.434  0.00  0.00    +0.223 C 
ATOM      2  O1  UNL     1       9.239   6.607  23.480  0.00  0.00    -0.275 OA
ATOM      3  N1  UNL     1       8.464   8.464  24.656  0.00  0.00    -0.298 N 
ATOM      4  C11 UNL     1       8.433   9.932  24.656  0.00  0.00    +0.127 C 
ATOM      5  C12 UNL     1       9.011  10.491  25.959  0.00  0.00    +0.126 C 
ATOM      6  N2  UNL     1       8.462   9.776  27.118  0.00  0.00    -0.298 N 
ATOM      7  C13 UNL     1       8.121  10.463  28.340  0.00  0.00    +0.218 C 
ATOM      8  O2  UNL     1       7.222   9.986  29.086  0.00  0.00    -0.275 OA
ATOM      9  C17 UNL     1       8.534   8.311  27.109  0.00  0.00    +0.126 C 
ATOM     10  C18 UNL     1       7.917   7.764  25.824  0.00  0.00    +0.127 C 
ENDROOT
BRANCH   7  11
ATOM     11  C14 UNL     1       8.807  11.747  28.752  0.00  0.00    +0.069 C 
ATOM     12  C15 UNL     1       9.920  11.463  29.767  0.00  0.00    +0.017 C 
ATOM     13  C16 UNL     1       7.788  12.734  29.329  0.00  0.00    +0.017 C 
ENDBRANCH   7  11
BRANCH   1  14
ATOM     14  C8  UNL     1       8.045   8.193  22.128  0.00  0.00    +0.102 C 
ATOM     15  C9  UNL     1       7.315   7.027  21.445  0.00  0.00    +0.022 C 
BRANCH  14  22
ATOM     16  C1  UNL     1       7.938  11.128  21.413  0.00  0.00    +0.044 C 
ATOM     17  C2  UNL     1       9.038  10.233  20.902  0.00  0.00    -0.047 A 
ATOM     18  C3  UNL     1      10.030  10.794  20.078  0.00  0.00    +0.003 A 
ATOM     19  C4  UNL     1      11.088  10.018  19.607  0.00  0.00    +0.000 A 
ATOM     20  C5  UNL     1      11.176   8.674  19.958  0.00  0.00    +0.000 A 
ATOM     21  C6  UNL     1      10.198   8.094  20.766  0.00  0.00    +0.004 A 
ATOM     22  C7  UNL     1       9.096   8.848  21.227  0.00  0.00    -0.033 A 
ENDBRANCH  14  22
ENDBRANCH   1  14
TORSDOF 3
ENDMDL
MODEL 4
REMARK VINA RESULT:    -5.798     14.914     17.430
REMARK INTER + INTRA:          -7.276
REMARK INTER:                  -6.777
REMARK INTRA:                  -0.499
REMARK UNBOUND:                -0.462
REMARK  Name = /home/qwerty/github/datacon2025hack/step_04_hit_selection/docking/ligands/lig_121.pdb
REMARK  7 active torsions:
REMARK  status: ('A' for Active; 'I' for Inactive)
REMARK    1  A    between atoms: C1_1  and  C2_2
REMARK    2  A    between atoms: C7_7  and  C8_8
REMARK    3  A    between atoms: C8_8  and  C9_9
REMARK    4  A    between atoms: C8_8  and  C10_10
REMARK    5  A    between atoms: C13_16  and  C14_18
REMARK    6  A    between atoms: C14_18  and  C15_19
REMARK    7  A    between atoms: C14_18  and  C16_20
REMARK                            x       y       z     vdW  Elec       q    Type
REMARK                         _______ _______ _______ _____ _____    ______ ____
ROOT
ATOM      1  C10 UNL     1      17.286   0.986  23.507  0.00  0.00    +0.223 C 
ATOM      2  O1  UNL     1      16.662   1.969  23.018  0.00  0.00    -0.275 OA
ATOM      3  N1  UNL     1      18.400   1.235  24.386  0.00  0.00    -0.298 N 
ATOM      4  C11 UNL     1      18.737   0.297  25.465  0.00  0.00    +0.127 C 
ATOM      5  C12 UNL     1      19.325   1.039  26.669  0.00  0.00    +0.126 C 
ATOM      6  N2  UNL     1      20.340   2.007  26.236  0.00  0.00    -0.298 N 
ATOM      7  C13 UNL     1      21.551   2.223  26.990  0.00  0.00    +0.218 C 
ATOM      8  O2  UNL     1      22.587   2.624  26.391  0.00  0.00    -0.275 OA
ATOM      9  C17 UNL     1      19.968   2.954  25.179  0.00  0.00    +0.126 C 
ATOM     10  C18 UNL     1      19.423   2.200  23.968  0.00  0.00    +0.127 C 
ENDROOT
BRANCH   7  11
ATOM     11  C14 UNL     1      21.617   1.976  28.481  0.00  0.00    +0.069 C 
ATOM     12  C15 UNL     1      21.488   3.294  29.254  0.00  0.00    +0.017 C 
ATOM     13  C16 UNL     1      22.923   1.262  28.845  0.00  0.00    +0.017 C 
ENDBRANCH   7  11
BRANCH   1  14
ATOM     14  C8  UNL     1      16.937  -0.416  23.053  0.00  0.00    +0.102 C 
ATOM     15  C9  UNL     1      16.508  -0.396  21.579  0.00  0.00    +0.022 C 
BRANCH  14  22
ATOM     16  C1  UNL     1      17.398  -3.085  24.396  0.00  0.00    +0.044 C 
ATOM     17  C2  UNL     1      16.121  -2.311  24.602  0.00  0.00    -0.047 A 
ATOM     18  C3  UNL     1      15.134  -2.856  25.443  0.00  0.00    +0.003 A 
ATOM     19  C4  UNL     1      13.951  -2.164  25.693  0.00  0.00    +0.000 A 
ATOM     20  C5  UNL     1      13.737  -0.915  25.116  0.00  0.00    +0.000 A 
ATOM     21  C6  UNL     1      14.698  -0.360  24.271  0.00  0.00    +0.004 A 
ATOM     22  C7  UNL     1      15.891  -1.055  23.970  0.00  0.00    -0.033 A 
ENDBRANCH  14  22
ENDBRANCH   1  14
TORSDOF 3
ENDMDL
MODEL 5
REMARK VINA RESULT:    -5.497     11.685     13.493
REMARK INTER + INTRA:          -6.923
REMARK INTER:                  -6.586
REMARK INTRA:                  -0.337
REMARK UNBOUND:                -0.462
REMARK  Name = /home/qwerty/github/datacon2025hack/step_04_hit_selection/docking/ligands/lig_121.pdb
REMARK  7 active torsions:
REMARK  status: ('A' for Active; 'I' for Inactive)
REMARK    1  A    between atoms: C1_1  and  C2_2
REMARK    2  A    between atoms: C7_7  and  C8_8
REMARK    3  A    between atoms: C8_8  and  C9_9
REMARK    4  A    between atoms: C8_8  and  C10_10
REMARK    5  A    between atoms: C13_16  and  C14_18
REMARK    6  A    between atoms: C14_18  and  C15_19
REMARK    7  A    between atoms: C14_18  and  C16_20
REMARK                            x       y       z     vdW  Elec       q    Type
REMARK                         _______ _______ _______ _____ _____    ______ ____
ROOT
ATOM      1  C10 UNL     1      23.095  14.379  24.049  0.00  0.00    +0.223 C 
ATOM      2  O1  UNL     1      24.327  14.118  23.966  0.00  0.00    -0.275 OA
ATOM      3  N1  UNL     1      22.216  13.938  22.995  0.00  0.00    -0.298 N 
ATOM      4  C11 UNL     1      20.815  13.593  23.272  0.00  0.00    +0.127 C 
ATOM      5  C12 UNL     1      20.334  12.477  22.340  0.00  0.00    +0.126 C 
ATOM      6  N2  UNL     1      20.729  12.754  20.954  0.00  0.00    -0.298 N 
ATOM      7  C13 UNL     1      19.853  12.464  19.844  0.00  0.00    +0.218 C 
ATOM      8  O2  UNL     1      19.958  13.139  18.783  0.00  0.00    -0.275 OA
ATOM      9  C17 UNL     1      22.139  13.065  20.698  0.00  0.00    +0.126 C 
ATOM     10  C18 UNL     1      22.597  14.206  21.604  0.00  0.00    +0.127 C 
ENDROOT
BRANCH   7  11
ATOM     11  C14 UNL     1      18.806  11.375  19.917  0.00  0.00    +0.069 C 
ATOM     12  C15 UNL     1      19.318  10.088  19.261  0.00  0.00    +0.017 C 
ATOM     13  C16 UNL     1      17.506  11.841  19.254  0.00  0.00    +0.017 C 
ENDBRANCH   7  11
BRANCH   1  14
ATOM     14  C8  UNL     1      22.594  15.260  25.175  0.00  0.00    +0.102 C 
ATOM     15  C9  UNL     1      23.312  16.618  25.133  0.00  0.00    +0.022 C 
BRANCH  14  22
ATOM     16  C1  UNL     1      20.185  14.629  26.888  0.00  0.00    +0.044 C 
ATOM     17  C2  UNL     1      21.580  14.263  27.326  0.00  0.00    -0.047 A 
ATOM     18  C3  UNL     1      21.745  13.611  28.561  0.00  0.00    +0.003 A 
ATOM     19  C4  UNL     1      23.011  13.220  28.997  0.00  0.00    +0.000 A 
ATOM     20  C5  UNL     1      24.128  13.466  28.204  0.00  0.00    +0.000 A 
ATOM     21  C6  UNL     1      23.989  14.120  26.980  0.00  0.00    +0.004 A 
ATOM     22  C7  UNL     1      22.723  14.560  26.530  0.00  0.00    -0.033 A 
ENDBRANCH  14  22
ENDBRANCH   1  14
TORSDOF 3
ENDMDL
MODEL 6
REMARK VINA RESULT:    -5.452     12.518     13.649
REMARK INTER + INTRA:          -6.871
REMARK INTER:                  -6.833
REMARK INTRA:                  -0.038
REMARK UNBOUND:                -0.462
REMARK  Name = /home/qwerty/github/datacon2025hack/step_04_hit_selection/docking/ligands/lig_121.pdb
REMARK  7 active torsions:
REMARK  status: ('A' for Active; 'I' for Inactive)
REMARK    1  A    between atoms: C1_1  and  C2_2
REMARK    2  A    between atoms: C7_7  and  C8_8
REMARK    3  A    between atoms: C8_8  and  C9_9
REMARK    4  A    between atoms: C8_8  and  C10_10
REMARK    5  A    between atoms: C13_16  and  C14_18
REMARK    6  A    between atoms: C14_18  and  C15_19
REMARK    7  A    between atoms: C14_18  and  C16_20
REMARK                            x       y       z     vdW  Elec       q    Type
REMARK                         _______ _______ _______ _____ _____    ______ ____
ROOT
ATOM      1  C10 UNL     1      21.622   4.797  33.257  0.00  0.00    +0.223 C 
ATOM      2  O1  UNL     1      21.189   4.078  34.200  0.00  0.00    -0.275 OA
ATOM      3  N1  UNL     1      21.819   4.202  31.959  0.00  0.00    -0.298 N 
ATOM      4  C11 UNL     1      21.664   4.992  30.732  0.00  0.00    +0.127 C 
ATOM      5  C12 UNL     1      21.134   4.124  29.587  0.00  0.00    +0.126 C 
ATOM      6  N2  UNL     1      21.868   2.854  29.518  0.00  0.00    -0.298 N 
ATOM      7  C13 UNL     1      22.224   2.252  28.255  0.00  0.00    +0.218 C 
ATOM      8  O2  UNL     1      23.237   1.503  28.193  0.00  0.00    -0.275 OA
ATOM      9  C17 UNL     1      21.983   2.068  30.750  0.00  0.00    +0.126 C 
ATOM     10  C18 UNL     1      22.550   2.933  31.873  0.00  0.00    +0.127 C 
ENDROOT
BRANCH   7  11
ATOM     11  C14 UNL     1      21.417   2.498  26.999  0.00  0.00    +0.069 C 
ATOM     12  C15 UNL     1      20.720   1.212  26.543  0.00  0.00    +0.017 C 
ATOM     13  C16 UNL     1      22.317   3.049  25.888  0.00  0.00    +0.017 C 
ENDBRANCH   7  11
BRANCH   1  14
ATOM     14  C8  UNL     1      22.049   6.222  33.543  0.00  0.00    +0.102 C 
ATOM     15  C9  UNL     1      23.406   6.502  32.881  0.00  0.00    +0.022 C 
BRANCH  14  22
ATOM     16  C1  UNL     1      19.573   7.182  34.987  0.00  0.00    +0.044 C 
ATOM     17  C2  UNL     1      20.873   6.961  35.717  0.00  0.00    -0.047 A 
ATOM     18  C3  UNL     1      20.916   7.208  37.101  0.00  0.00    +0.003 A 
ATOM     19  C4  UNL     1      22.084   6.986  37.828  0.00  0.00    +0.000 A 
ATOM     20  C5  UNL     1      23.223   6.507  37.188  0.00  0.00    +0.000 A 
ATOM     21  C6  UNL     1      23.206   6.263  35.815  0.00  0.00    +0.004 A 
ATOM     22  C7  UNL     1      22.047   6.514  35.046  0.00  0.00    -0.033 A 
ENDBRANCH  14  22
ENDBRANCH   1  14
TORSDOF 3
ENDMDL
MODEL 7
REMARK VINA RESULT:    -5.440      4.672      7.931
REMARK INTER + INTRA:          -6.856
REMARK INTER:                  -6.612
REMARK INTRA:                  -0.244
REMARK UNBOUND:                -0.462
REMARK  Name = /home/qwerty/github/datacon2025hack/step_04_hit_selection/docking/ligands/lig_121.pdb
REMARK  7 active torsions:
REMARK  status: ('A' for Active; 'I' for Inactive)
REMARK    1  A    between atoms: C1_1  and  C2_2
REMARK    2  A    between atoms: C7_7  and  C8_8
REMARK    3  A    between atoms: C8_8  and  C9_9
REMARK    4  A    between atoms: C8_8  and  C10_10
REMARK    5  A    between atoms: C13_16  and  C14_18
REMARK    6  A    between atoms: C14_18  and  C15_19
REMARK    7  A    between atoms: C14_18  and  C16_20
REMARK                            x       y       z     vdW  Elec       q    Type
REMARK                         _______ _______ _______ _____ _____    ______ ____
ROOT
ATOM      1  C10 UNL     1       8.433  11.747  28.536  0.00  0.00    +0.223 C 
ATOM      2  O1  UNL     1       8.006  12.043  27.385  0.00  0.00    -0.275 OA
ATOM      3  N1  UNL     1       8.490  10.359  28.923  0.00  0.00    -0.298 N 
ATOM      4  C11 UNL     1       9.511   9.876  29.861  0.00  0.00    +0.127 C 
ATOM      5  C12 UNL     1       9.911   8.433  29.536  0.00  0.00    +0.126 C 
ATOM      6  N2  UNL     1       8.721   7.606  29.304  0.00  0.00    -0.298 N 
ATOM      7  C13 UNL     1       8.641   6.244  29.775  0.00  0.00    +0.218 C 
ATOM      8  O2  UNL     1       7.511   5.745  30.031  0.00  0.00    -0.275 OA
ATOM      9  C17 UNL     1       7.730   8.095  28.339  0.00  0.00    +0.126 C 
ATOM     10  C18 UNL     1       7.309   9.519  28.697  0.00  0.00    +0.127 C 
ENDROOT
BRANCH   7  11
ATOM     11  C14 UNL     1       9.878   5.397  29.977  0.00  0.00    +0.069 C 
ATOM     12  C15 UNL     1      10.501   5.020  28.629  0.00  0.00    +0.017 C 
ATOM     13  C16 UNL     1       9.536   4.141  30.785  0.00  0.00    +0.017 C 
ENDBRANCH   7  11
BRANCH   1  14
ATOM     14  C8  UNL     1       8.745  12.853  29.523  0.00  0.00    +0.102 C 
ATOM     15  C9  UNL     1       7.547  13.808  29.629  0.00  0.00    +0.022 C 
BRANCH  14  22
ATOM     16  C1  UNL     1      10.885  13.415  31.582  0.00  0.00    +0.044 C 
ATOM     17  C2  UNL     1      11.053  13.825  30.141  0.00  0.00    -0.047 A 
ATOM     18  C3  UNL     1      12.239  14.479  29.763  0.00  0.00    +0.003 A 
ATOM     19  C4  UNL     1      12.458  14.848  28.437  0.00  0.00    +0.000 A 
ATOM     20  C5  UNL     1      11.501  14.562  27.467  0.00  0.00    +0.000 A 
ATOM     21  C6  UNL     1      10.313  13.922  27.820  0.00  0.00    +0.004 A 
ATOM     22  C7  UNL     1      10.049  13.570  29.163  0.00  0.00    -0.033 A 
ENDBRANCH  14  22
ENDBRANCH   1  14
TORSDOF 3
ENDMDL
MODEL 8
REMARK VINA RESULT:    -5.385     12.932     15.252
REMARK INTER + INTRA:          -6.791
REMARK INTER:                  -6.383
REMARK INTRA:                  -0.408
REMARK UNBOUND:                -0.462
REMARK  Name = /home/qwerty/github/datacon2025hack/step_04_hit_selection/docking/ligands/lig_121.pdb
REMARK  7 active torsions:
REMARK  status: ('A' for Active; 'I' for Inactive)
REMARK    1  A    between atoms: C1_1  and  C2_2
REMARK    2  A    between atoms: C7_7  and  C8_8
REMARK    3  A    between atoms: C8_8  and  C9_9
REMARK    4  A    between atoms: C8_8  and  C10_10
REMARK    5  A    between atoms: C13_16  and  C14_18
REMARK    6  A    between atoms: C14_18  and  C15_19
REMARK    7  A    between atoms: C14_18  and  C16_20
REMARK                            x       y       z     vdW  Elec       q    Type
REMARK                         _______ _______ _______ _____ _____    ______ ____
ROOT
ATOM      1  C10 UNL     1      19.260   2.429  31.411  0.00  0.00    +0.223 C 
ATOM      2  O1  UNL     1      18.445   1.620  31.933  0.00  0.00    -0.275 OA
ATOM      3  N1  UNL     1      19.914   3.401  32.251  0.00  0.00    -0.298 N 
ATOM      4  C11 UNL     1      21.263   3.888  31.937  0.00  0.00    +0.127 C 
ATOM      5  C12 UNL     1      22.037   4.214  33.218  0.00  0.00    +0.126 C 
ATOM      6  N2  UNL     1      21.205   4.994  34.142  0.00  0.00    -0.298 N 
ATOM      7  C13 UNL     1      21.752   6.075  34.927  0.00  0.00    +0.218 C 
ATOM      8  O2  UNL     1      20.997   7.018  35.288  0.00  0.00    -0.275 OA
ATOM      9  C17 UNL     1      19.873   4.470  34.464  0.00  0.00    +0.126 C 
ATOM     10  C18 UNL     1      19.096   4.189  33.180  0.00  0.00    +0.127 C 
ENDROOT
BRANCH   7  11
ATOM     11  C14 UNL     1      23.211   6.112  35.324  0.00  0.00    +0.069 C 
ATOM     12  C15 UNL     1      23.362   6.547  36.786  0.00  0.00    +0.017 C 
ATOM     13  C16 UNL     1      23.992   7.049  34.398  0.00  0.00    +0.017 C 
ENDBRANCH   7  11
BRANCH   1  14
ATOM     14  C8  UNL     1      19.428   2.449  29.905  0.00  0.00    +0.102 C 
ATOM     15  C9  UNL     1      18.179   1.862  29.234  0.00  0.00    +0.022 C 
BRANCH  14  22
ATOM     16  C1  UNL     1      21.489   3.806  28.159  0.00  0.00    +0.044 C 
ATOM     17  C2  UNL     1      21.687   2.398  28.660  0.00  0.00    -0.047 A 
ATOM     18  C3  UNL     1      22.863   1.717  28.300  0.00  0.00    +0.003 A 
ATOM     19  C4  UNL     1      23.110   0.427  28.765  0.00  0.00    +0.000 A 
ATOM     20  C5  UNL     1      22.192  -0.199  29.603  0.00  0.00    +0.000 A 
ATOM     21  C6  UNL     1      21.014   0.453  29.966  0.00  0.00    +0.004 A 
ATOM     22  C7  UNL     1      20.720   1.747  29.479  0.00  0.00    -0.033 A 
ENDBRANCH  14  22
ENDBRANCH   1  14
TORSDOF 3
ENDMDL
MODEL 9
REMARK VINA RESULT:    -5.257     12.339     15.168
REMARK INTER + INTRA:          -6.641
REMARK INTER:                  -6.626
REMARK INTRA:                  -0.015
REMARK UNBOUND:                -0.462
REMARK  Name = /home/qwerty/github/datacon2025hack/step_04_hit_selection/docking/ligands/lig_121.pdb
REMARK  7 active torsions:
REMARK  status: ('A' for Active; 'I' for Inactive)
REMARK    1  A    between atoms: C1_1  and  C2_2
REMARK    2  A    between atoms: C7_7  and  C8_8
REMARK    3  A    between atoms: C8_8  and  C9_9
REMARK    4  A    between atoms: C8_8  and  C10_10
REMARK    5  A    between atoms: C13_16  and  C14_18
REMARK    6  A    between atoms: C14_18  and  C15_19
REMARK    7  A    between atoms: C14_18  and  C16_20
REMARK                            x       y       z     vdW  Elec       q    Type
REMARK                         _______ _______ _______ _____ _____    ______ ____
ROOT
ATOM      1  C10 UNL     1      10.904   6.600  20.982  0.00  0.00    +0.223 C 
ATOM      2  O1  UNL     1       9.741   6.493  20.504  0.00  0.00    -0.275 OA
ATOM      3  N1  UNL     1      11.771   5.448  20.973  0.00  0.00    -0.298 N 
ATOM      4  C11 UNL     1      13.228   5.597  20.864  0.00  0.00    +0.127 C 
ATOM      5  C12 UNL     1      13.842   4.417  20.106  0.00  0.00    +0.126 C 
ATOM      6  N2  UNL     1      13.300   3.146  20.599  0.00  0.00    -0.298 N 
ATOM      7  C13 UNL     1      14.130   1.974  20.747  0.00  0.00    +0.218 C 
ATOM      8  O2  UNL     1      13.822   1.104  21.606  0.00  0.00    -0.275 OA
ATOM      9  C17 UNL     1      11.841   3.010  20.669  0.00  0.00    +0.126 C 
ATOM     10  C18 UNL     1      11.244   4.170  21.463  0.00  0.00    +0.127 C 
ENDROOT
BRANCH   7  11
ATOM     11  C14 UNL     1      15.367   1.762  19.902  0.00  0.00    +0.069 C 
ATOM     12  C15 UNL     1      15.676   0.268  19.761  0.00  0.00    +0.017 C 
ATOM     13  C16 UNL     1      16.561   2.507  20.510  0.00  0.00    +0.017 C 
ENDBRANCH   7  11
BRANCH   1  14
ATOM     14  C8  UNL     1      11.311   7.886  21.672  0.00  0.00    +0.102 C 
ATOM     15  C9  UNL     1      11.792   7.583  23.098  0.00  0.00    +0.022 C 
BRANCH  14  22
ATOM     16  C1  UNL     1      11.067   9.904  19.435  0.00  0.00    +0.044 C 
ATOM     17  C2  UNL     1      10.076   9.864  20.569  0.00  0.00    -0.047 A 
ATOM     18  C3  UNL     1       9.018  10.791  20.569  0.00  0.00    +0.003 A 
ATOM     19  C4  UNL     1       8.055  10.773  21.576  0.00  0.00    +0.000 A 
ATOM     20  C5  UNL     1       8.128   9.826  22.593  0.00  0.00    +0.000 A 
ATOM     21  C6  UNL     1       9.173   8.903  22.619  0.00  0.00    +0.004 A 
ATOM     22  C7  UNL     1      10.183   8.921  21.631  0.00  0.00    -0.033 A 
ENDBRANCH  14  22
ENDBRANCH   1  14
TORSDOF 3
ENDMDL
