MODEL 1
REMARK VINA RESULT:    -6.887      0.000      0.000
REMARK INTER + INTRA:          -9.224
REMARK INTER:                  -8.498
REMARK INTRA:                  -0.726
REMARK UNBOUND:                -0.726
REMARK  Name = /home/qwerty/github/datacon2025hack/step_04_hit_selection/docking/ligands/lig_152.pdb
REMARK  7 active torsions:
REMARK  status: ('A' for Active; 'I' for Inactive)
REMARK    1  A    between atoms: C1_1  and  O1_2
REMARK    2  A    between atoms: O1_2  and  C2_3
REMARK    3  A    between atoms: C8_9  and  C9_10
REMARK    4  A    between atoms: N1_12  and  C10_13
REMARK    5  A    between atoms: C14_17  and  C15_18
REMARK    6  A    between atoms: C17_23  and  C18_24
REMARK    7  A    between atoms: N2_25  and  C19_26
REMARK                            x       y       z     vdW  Elec       q    Type
REMARK                         _______ _______ _______ _____ _____    ______ ____
ROOT
ATOM      1  C9  UNL     1       9.542   9.998  25.396  0.00  0.00    +0.251 C 
ATOM      2  O2  UNL     1      10.754   9.660  25.315  0.00  0.00    -0.270 OA
ATOM      3  N1  UNL     1       8.762  10.175  24.204  0.00  0.00    -0.281 N 
ATOM      4  H7  UNL     1       7.963  10.848  24.242  0.00  0.00    +0.155 HD
ENDROOT
BRANCH   1  11
ATOM      5  C2  UNL     1      10.085  13.412  28.427  0.00  0.00    +0.121 A 
ATOM      6  C3  UNL     1       9.293  13.233  29.582  0.00  0.00    +0.047 A 
ATOM      7  C4  UNL     1       8.446  12.121  29.711  0.00  0.00    +0.030 A 
ATOM      8  C5  UNL     1       8.415  11.190  28.669  0.00  0.00    +0.050 A 
ATOM      9  C6  UNL     1       9.202  11.340  27.554  0.00  0.00    +0.016 A 
ATOM     10  C7  UNL     1      10.034  12.451  27.389  0.00  0.00    +0.056 A 
ATOM     11  C8  UNL     1       8.947  10.262  26.722  0.00  0.00    +0.065 A 
ATOM     12  C17 UNL     1       7.998   9.487  27.396  0.00  0.00    +0.029 A 
ATOM     13  C18 UNL     1       7.417   8.193  26.898  0.00  0.00    +0.064 C 
ATOM     14  N2  UNL     1       7.655  10.076  28.572  0.00  0.00    -0.346 N 
ATOM     15  C19 UNL     1       6.714   9.566  29.571  0.00  0.00    +0.149 C 
BRANCH   5  17
ATOM     16  C1  UNL     1      12.086  14.641  27.569  0.00  0.00    +0.277 C 
ATOM     17  O1  UNL     1      10.899  14.552  28.351  0.00  0.00    -0.495 OA
ENDBRANCH   5  17
ENDBRANCH   1  11
BRANCH   3  18
ATOM     18  C10 UNL     1       9.086   9.578  22.937  0.00  0.00    +0.034 A 
ATOM     19  C11 UNL     1       8.761   8.234  22.707  0.00  0.00    +0.023 A 
ATOM     20  C12 UNL     1       9.072   7.630  21.487  0.00  0.00    +0.002 A 
ATOM     21  C13 UNL     1       9.732   8.355  20.492  0.00  0.00    +0.012 A 
ATOM     22  C14 UNL     1      10.114   9.688  20.720  0.00  0.00    +0.057 A 
ATOM     23  C16 UNL     1       9.772  10.298  21.941  0.00  0.00    +0.035 A 
BRANCH  22  24
ATOM     24  C15 UNL     1      10.801  10.484  19.638  0.00  0.00    +0.417 C 
ATOM     25  F1  UNL     1       9.914  11.411  19.123  0.00  0.00    -0.166 F 
ATOM     26  F2  UNL     1      11.903  11.149  20.149  0.00  0.00    -0.166 F 
ATOM     27  F3  UNL     1      11.232   9.656  18.616  0.00  0.00    -0.166 F 
ENDBRANCH  22  24
ENDBRANCH   3  18
TORSDOF 4
ENDMDL
MODEL 2
REMARK VINA RESULT:    -6.704      4.017      8.169
REMARK INTER + INTRA:          -8.998
REMARK INTER:                  -8.226
REMARK INTRA:                  -0.772
REMARK UNBOUND:                -0.726
REMARK  Name = /home/qwerty/github/datacon2025hack/step_04_hit_selection/docking/ligands/lig_152.pdb
REMARK  7 active torsions:
REMARK  status: ('A' for Active; 'I' for Inactive)
REMARK    1  A    between atoms: C1_1  and  O1_2
REMARK    2  A    between atoms: O1_2  and  C2_3
REMARK    3  A    between atoms: C8_9  and  C9_10
REMARK    4  A    between atoms: N1_12  and  C10_13
REMARK    5  A    between atoms: C14_17  and  C15_18
REMARK    6  A    between atoms: C17_23  and  C18_24
REMARK    7  A    between atoms: N2_25  and  C19_26
REMARK                            x       y       z     vdW  Elec       q    Type
REMARK                         _______ _______ _______ _____ _____    ______ ____
ROOT
ATOM      1  C9  UNL     1       8.974   8.333  25.637  0.00  0.00    +0.251 C 
ATOM      2  O2  UNL     1       9.973   8.140  26.382  0.00  0.00    -0.270 OA
ATOM      3  N1  UNL     1       7.828   9.037  26.139  0.00  0.00    -0.281 N 
ATOM      4  H7  UNL     1       6.898   8.812  25.716  0.00  0.00    +0.155 HD
ENDROOT
BRANCH   1  11
ATOM      5  C2  UNL     1       7.917   4.193  23.940  0.00  0.00    +0.121 A 
ATOM      6  C3  UNL     1       8.070   4.135  22.538  0.00  0.00    +0.047 A 
ATOM      7  C4  UNL     1       8.486   5.261  21.810  0.00  0.00    +0.030 A 
ATOM      8  C5  UNL     1       8.754   6.440  22.511  0.00  0.00    +0.050 A 
ATOM      9  C6  UNL     1       8.635   6.499  23.879  0.00  0.00    +0.016 A 
ATOM     10  C7  UNL     1       8.198   5.400  24.625  0.00  0.00    +0.056 A 
ATOM     11  C8  UNL     1       8.972   7.786  24.266  0.00  0.00    +0.065 A 
ATOM     12  C17 UNL     1       9.295   8.459  23.083  0.00  0.00    +0.029 A 
ATOM     13  C18 UNL     1       9.746   9.890  22.989  0.00  0.00    +0.064 C 
ATOM     14  N2  UNL     1       9.130   7.638  22.012  0.00  0.00    -0.346 N 
ATOM     15  C19 UNL     1       9.387   7.961  20.607  0.00  0.00    +0.149 C 
BRANCH   5  17
ATOM     16  C1  UNL     1       7.793   2.732  25.965  0.00  0.00    +0.277 C 
ATOM     17  O1  UNL     1       7.483   3.039  24.609  0.00  0.00    -0.495 OA
ENDBRANCH   5  17
ENDBRANCH   1  11
BRANCH   3  18
ATOM     18  C10 UNL     1       7.864   9.936  27.260  0.00  0.00    +0.034 A 
ATOM     19  C11 UNL     1       7.370   9.508  28.500  0.00  0.00    +0.023 A 
ATOM     20  C12 UNL     1       7.388  10.365  29.602  0.00  0.00    +0.002 A 
ATOM     21  C13 UNL     1       7.878  11.667  29.471  0.00  0.00    +0.012 A 
ATOM     22  C14 UNL     1       8.331  12.134  28.226  0.00  0.00    +0.057 A 
ATOM     23  C16 UNL     1       8.336  11.255  27.127  0.00  0.00    +0.035 A 
BRANCH  22  24
ATOM     24  C15 UNL     1       8.888  13.528  28.087  0.00  0.00    +0.417 C 
ATOM     25  F1  UNL     1       9.036  14.086  29.344  0.00  0.00    -0.166 F 
ATOM     26  F2  UNL     1      10.121  13.500  27.459  0.00  0.00    -0.166 F 
ATOM     27  F3  UNL     1       8.040  14.326  27.339  0.00  0.00    -0.166 F 
ENDBRANCH  22  24
ENDBRANCH   3  18
TORSDOF 4
ENDMDL
MODEL 3
REMARK VINA RESULT:    -6.628     15.381     16.004
REMARK INTER + INTRA:          -8.904
REMARK INTER:                  -8.175
REMARK INTRA:                  -0.729
REMARK UNBOUND:                -0.726
REMARK  Name = /home/qwerty/github/datacon2025hack/step_04_hit_selection/docking/ligands/lig_152.pdb
REMARK  7 active torsions:
REMARK  status: ('A' for Active; 'I' for Inactive)
REMARK    1  A    between atoms: C1_1  and  O1_2
REMARK    2  A    between atoms: O1_2  and  C2_3
REMARK    3  A    between atoms: C8_9  and  C9_10
REMARK    4  A    between atoms: N1_12  and  C10_13
REMARK    5  A    between atoms: C14_17  and  C15_18
REMARK    6  A    between atoms: C17_23  and  C18_24
REMARK    7  A    between atoms: N2_25  and  C19_26
REMARK                            x       y       z     vdW  Elec       q    Type
REMARK                         _______ _______ _______ _____ _____    ______ ____
ROOT
ATOM      1  C9  UNL     1      20.933   4.958  32.645  0.00  0.00    +0.251 C 
ATOM      2  O2  UNL     1      19.774   4.936  32.150  0.00  0.00    -0.270 OA
ATOM      3  N1  UNL     1      21.693   3.744  32.753  0.00  0.00    -0.281 N 
ATOM      4  H7  UNL     1      22.401   3.683  33.519  0.00  0.00    +0.155 HD
ENDROOT
BRANCH   1  11
ATOM      5  C2  UNL     1      20.392   7.193  36.626  0.00  0.00    +0.121 A 
ATOM      6  C3  UNL     1      21.127   8.398  36.667  0.00  0.00    +0.047 A 
ATOM      7  C4  UNL     1      21.924   8.794  35.582  0.00  0.00    +0.030 A 
ATOM      8  C5  UNL     1      21.965   7.968  34.455  0.00  0.00    +0.050 A 
ATOM      9  C6  UNL     1      21.232   6.808  34.394  0.00  0.00    +0.016 A 
ATOM     10  C7  UNL     1      20.450   6.378  35.470  0.00  0.00    +0.056 A 
ATOM     11  C8  UNL     1      21.481   6.228  33.160  0.00  0.00    +0.065 A 
ATOM     12  C17 UNL     1      22.370   7.093  32.514  0.00  0.00    +0.029 A 
ATOM     13  C18 UNL     1      22.922   6.901  31.129  0.00  0.00    +0.064 C 
ATOM     14  N2  UNL     1      22.685   8.139  33.324  0.00  0.00    -0.346 N 
ATOM     15  C19 UNL     1      23.562   9.267  33.004  0.00  0.00    +0.149 C 
BRANCH   5  17
ATOM     16  C1  UNL     1      18.521   5.947  37.719  0.00  0.00    +0.277 C 
ATOM     17  O1  UNL     1      19.626   6.844  37.749  0.00  0.00    -0.495 OA
ENDBRANCH   5  17
ENDBRANCH   1  11
BRANCH   3  18
ATOM     18  C10 UNL     1      21.455   2.574  31.953  0.00  0.00    +0.034 A 
ATOM     19  C11 UNL     1      20.517   1.626  32.384  0.00  0.00    +0.023 A 
ATOM     20  C12 UNL     1      20.273   0.478  31.628  0.00  0.00    +0.002 A 
ATOM     21  C13 UNL     1      20.981   0.253  30.445  0.00  0.00    +0.012 A 
ATOM     22  C14 UNL     1      21.962   1.164  30.020  0.00  0.00    +0.057 A 
ATOM     23  C16 UNL     1      22.182   2.332  30.773  0.00  0.00    +0.035 A 
BRANCH  22  24
ATOM     24  C15 UNL     1      22.709   0.939  28.729  0.00  0.00    +0.417 C 
ATOM     25  F1  UNL     1      21.990   0.065  27.934  0.00  0.00    -0.166 F 
ATOM     26  F2  UNL     1      22.874   2.134  28.048  0.00  0.00    -0.166 F 
ATOM     27  F3  UNL     1      23.961   0.403  28.970  0.00  0.00    -0.166 F 
ENDBRANCH  22  24
ENDBRANCH   3  18
TORSDOF 4
ENDMDL
MODEL 4
REMARK VINA RESULT:    -6.627      7.435     11.293
REMARK INTER + INTRA:          -8.904
REMARK INTER:                  -8.158
REMARK INTRA:                  -0.745
REMARK UNBOUND:                -0.726
REMARK  Name = /home/qwerty/github/datacon2025hack/step_04_hit_selection/docking/ligands/lig_152.pdb
REMARK  7 active torsions:
REMARK  status: ('A' for Active; 'I' for Inactive)
REMARK    1  A    between atoms: C1_1  and  O1_2
REMARK    2  A    between atoms: O1_2  and  C2_3
REMARK    3  A    between atoms: C8_9  and  C9_10
REMARK    4  A    between atoms: N1_12  and  C10_13
REMARK    5  A    between atoms: C14_17  and  C15_18
REMARK    6  A    between atoms: C17_23  and  C18_24
REMARK    7  A    between atoms: N2_25  and  C19_26
REMARK                            x       y       z     vdW  Elec       q    Type
REMARK                         _______ _______ _______ _____ _____    ______ ____
ROOT
ATOM      1  C9  UNL     1      12.753  14.535  31.914  0.00  0.00    +0.251 C 
ATOM      2  O2  UNL     1      12.124  15.412  32.565  0.00  0.00    -0.270 OA
ATOM      3  N1  UNL     1      13.674  13.663  32.587  0.00  0.00    -0.281 N 
ATOM      4  H7  UNL     1      14.474  13.282  32.031  0.00  0.00    +0.155 HD
ENDROOT
BRANCH   1  11
ATOM      5  C2  UNL     1       9.278  13.070  29.285  0.00  0.00    +0.121 A 
ATOM      6  C3  UNL     1       9.569  13.174  27.908  0.00  0.00    +0.047 A 
ATOM      7  C4  UNL     1      10.797  13.693  27.466  0.00  0.00    +0.030 A 
ATOM      8  C5  UNL     1      11.728  14.095  28.428  0.00  0.00    +0.050 A 
ATOM      9  C6  UNL     1      11.466  13.972  29.770  0.00  0.00    +0.016 A 
ATOM     10  C7  UNL     1      10.242  13.483  30.236  0.00  0.00    +0.056 A 
ATOM     11  C8  UNL     1      12.576  14.447  30.451  0.00  0.00    +0.065 A 
ATOM     12  C17 UNL     1      13.483  14.837  29.461  0.00  0.00    +0.029 A 
ATOM     13  C18 UNL     1      14.853  15.403  29.708  0.00  0.00    +0.064 C 
ATOM     14  N2  UNL     1      12.945  14.647  28.227  0.00  0.00    -0.346 N 
ATOM     15  C19 UNL     1      13.587  14.910  26.937  0.00  0.00    +0.149 C 
BRANCH   5  17
ATOM     16  C1  UNL     1       7.675  11.180  29.610  0.00  0.00    +0.277 C 
ATOM     17  O1  UNL     1       8.028  12.559  29.663  0.00  0.00    -0.495 OA
ENDBRANCH   5  17
ENDBRANCH   1  11
BRANCH   3  18
ATOM     18  C10 UNL     1      13.632  13.382  33.996  0.00  0.00    +0.034 A 
ATOM     19  C11 UNL     1      14.686  13.812  34.814  0.00  0.00    +0.023 A 
ATOM     20  C12 UNL     1      14.672  13.545  36.185  0.00  0.00    +0.002 A 
ATOM     21  C13 UNL     1      13.615  12.826  36.748  0.00  0.00    +0.012 A 
ATOM     22  C14 UNL     1      12.574  12.341  35.939  0.00  0.00    +0.057 A 
ATOM     23  C16 UNL     1      12.582  12.638  34.564  0.00  0.00    +0.035 A 
BRANCH  22  24
ATOM     24  C15 UNL     1      11.417  11.589  36.549  0.00  0.00    +0.417 C 
ATOM     25  F1  UNL     1      11.872  10.852  37.626  0.00  0.00    -0.166 F 
ATOM     26  F2  UNL     1      10.440  12.468  36.984  0.00  0.00    -0.166 F 
ATOM     27  F3  UNL     1      10.846  10.731  35.625  0.00  0.00    -0.166 F 
ENDBRANCH  22  24
ENDBRANCH   3  18
TORSDOF 4
ENDMDL
MODEL 5
REMARK VINA RESULT:    -6.576     13.037     15.023
REMARK INTER + INTRA:          -8.840
REMARK INTER:                  -8.143
REMARK INTRA:                  -0.698
REMARK UNBOUND:                -0.726
REMARK  Name = /home/qwerty/github/datacon2025hack/step_04_hit_selection/docking/ligands/lig_152.pdb
REMARK  7 active torsions:
REMARK  status: ('A' for Active; 'I' for Inactive)
REMARK    1  A    between atoms: C1_1  and  O1_2
REMARK    2  A    between atoms: O1_2  and  C2_3
REMARK    3  A    between atoms: C8_9  and  C9_10
REMARK    4  A    between atoms: N1_12  and  C10_13
REMARK    5  A    between atoms: C14_17  and  C15_18
REMARK    6  A    between atoms: C17_23  and  C18_24
REMARK    7  A    between atoms: N2_25  and  C19_26
REMARK                            x       y       z     vdW  Elec       q    Type
REMARK                         _______ _______ _______ _____ _____    ______ ____
ROOT
ATOM      1  C9  UNL     1      18.195   1.613  25.380  0.00  0.00    +0.251 C 
ATOM      2  O2  UNL     1      18.034   2.776  25.841  0.00  0.00    -0.270 OA
ATOM      3  N1  UNL     1      19.510   1.041  25.315  0.00  0.00    -0.281 N 
ATOM      4  H7  UNL     1      19.692   0.329  24.570  0.00  0.00    +0.155 HD
ENDROOT
BRANCH   1  11
ATOM      5  C2  UNL     1      16.182   1.473  21.249  0.00  0.00    +0.121 A 
ATOM      6  C3  UNL     1      15.072   0.601  21.225  0.00  0.00    +0.047 A 
ATOM      7  C4  UNL     1      14.696  -0.123  22.368  0.00  0.00    +0.030 A 
ATOM      8  C5  UNL     1      15.445   0.051  23.536  0.00  0.00    +0.050 A 
ATOM      9  C6  UNL     1      16.509   0.919  23.578  0.00  0.00    +0.016 A 
ATOM     10  C7  UNL     1      16.920   1.631  22.447  0.00  0.00    +0.056 A 
ATOM     11  C8  UNL     1      17.030   0.869  24.861  0.00  0.00    +0.065 A 
ATOM     12  C17 UNL     1      16.230  -0.046  25.553  0.00  0.00    +0.029 A 
ATOM     13  C18 UNL     1      16.391  -0.425  26.999  0.00  0.00    +0.064 C 
ATOM     14  N2  UNL     1      15.282  -0.563  24.728  0.00  0.00    -0.346 N 
ATOM     15  C19 UNL     1      14.241  -1.531  25.080  0.00  0.00    +0.149 C 
BRANCH   5  17
ATOM     16  C1  UNL     1      16.016   3.441  19.717  0.00  0.00    +0.277 C 
ATOM     17  O1  UNL     1      16.516   2.155  20.070  0.00  0.00    -0.495 OA
ENDBRANCH   5  17
ENDBRANCH   1  11
BRANCH   3  18
ATOM     18  C10 UNL     1      20.615   1.471  26.126  0.00  0.00    +0.034 A 
ATOM     19  C11 UNL     1      21.394   2.559  25.706  0.00  0.00    +0.023 A 
ATOM     20  C12 UNL     1      22.476   2.992  26.474  0.00  0.00    +0.002 A 
ATOM     21  C13 UNL     1      22.808   2.328  27.658  0.00  0.00    +0.012 A 
ATOM     22  C14 UNL     1      22.073   1.204  28.072  0.00  0.00    +0.057 A 
ATOM     23  C16 UNL     1      20.966   0.791  27.307  0.00  0.00    +0.035 A 
BRANCH  22  24
ATOM     24  C15 UNL     1      22.410   0.503  29.364  0.00  0.00    +0.417 C 
ATOM     25  F1  UNL     1      22.885  -0.765  29.082  0.00  0.00    -0.166 F 
ATOM     26  F2  UNL     1      23.380   1.203  30.060  0.00  0.00    -0.166 F 
ATOM     27  F3  UNL     1      21.291   0.394  30.172  0.00  0.00    -0.166 F 
ENDBRANCH  22  24
ENDBRANCH   3  18
TORSDOF 4
ENDMDL
MODEL 6
REMARK VINA RESULT:    -6.485      3.622      7.392
REMARK INTER + INTRA:          -8.728
REMARK INTER:                  -7.905
REMARK INTRA:                  -0.823
REMARK UNBOUND:                -0.726
REMARK  Name = /home/qwerty/github/datacon2025hack/step_04_hit_selection/docking/ligands/lig_152.pdb
REMARK  7 active torsions:
REMARK  status: ('A' for Active; 'I' for Inactive)
REMARK    1  A    between atoms: C1_1  and  O1_2
REMARK    2  A    between atoms: O1_2  and  C2_3
REMARK    3  A    between atoms: C8_9  and  C9_10
REMARK    4  A    between atoms: N1_12  and  C10_13
REMARK    5  A    between atoms: C14_17  and  C15_18
REMARK    6  A    between atoms: C17_23  and  C18_24
REMARK    7  A    between atoms: N2_25  and  C19_26
REMARK                            x       y       z     vdW  Elec       q    Type
REMARK                         _______ _______ _______ _____ _____    ______ ____
ROOT
ATOM      1  C9  UNL     1       8.716   7.593  25.960  0.00  0.00    +0.251 C 
ATOM      2  O2  UNL     1       9.734   7.444  26.690  0.00  0.00    -0.270 OA
ATOM      3  N1  UNL     1       7.605   8.373  26.425  0.00  0.00    -0.281 N 
ATOM      4  H7  UNL     1       6.657   8.134  26.053  0.00  0.00    +0.155 HD
ENDROOT
BRANCH   1  11
ATOM      5  C2  UNL     1       9.481   9.053  21.668  0.00  0.00    +0.121 A 
ATOM      6  C3  UNL     1       9.296   8.030  20.714  0.00  0.00    +0.047 A 
ATOM      7  C4  UNL     1       8.936   6.731  21.108  0.00  0.00    +0.030 A 
ATOM      8  C5  UNL     1       8.756   6.481  22.472  0.00  0.00    +0.050 A 
ATOM      9  C6  UNL     1       8.906   7.477  23.406  0.00  0.00    +0.016 A 
ATOM     10  C7  UNL     1       9.289   8.771  23.042  0.00  0.00    +0.056 A 
ATOM     11  C8  UNL     1       8.657   6.916  24.649  0.00  0.00    +0.065 A 
ATOM     12  C17 UNL     1       8.353   5.574  24.399  0.00  0.00    +0.029 A 
ATOM     13  C18 UNL     1       7.989   4.554  25.441  0.00  0.00    +0.064 C 
ATOM     14  N2  UNL     1       8.445   5.309  23.068  0.00  0.00    -0.346 N 
ATOM     15  C19 UNL     1       8.180   4.030  22.405  0.00  0.00    +0.149 C 
BRANCH   5  17
ATOM     16  C1  UNL     1      10.438  10.583  19.938  0.00  0.00    +0.277 C 
ATOM     17  O1  UNL     1       9.856  10.326  21.212  0.00  0.00    -0.495 OA
ENDBRANCH   5  17
ENDBRANCH   1  11
BRANCH   3  18
ATOM     18  C10 UNL     1       7.699   9.374  27.451  0.00  0.00    +0.034 A 
ATOM     19  C11 UNL     1       7.188   9.099  28.728  0.00  0.00    +0.023 A 
ATOM     20  C12 UNL     1       7.262  10.057  29.740  0.00  0.00    +0.002 A 
ATOM     21  C13 UNL     1       7.825  11.310  29.482  0.00  0.00    +0.012 A 
ATOM     22  C14 UNL     1       8.296  11.625  28.197  0.00  0.00    +0.057 A 
ATOM     23  C16 UNL     1       8.244  10.644  27.189  0.00  0.00    +0.035 A 
BRANCH  22  24
ATOM     24  C15 UNL     1       8.930  12.966  27.921  0.00  0.00    +0.417 C 
ATOM     25  F1  UNL     1       8.018  13.775  27.270  0.00  0.00    -0.166 F 
ATOM     26  F2  UNL     1       9.311  13.576  29.104  0.00  0.00    -0.166 F 
ATOM     27  F3  UNL     1      10.054  12.825  27.126  0.00  0.00    -0.166 F 
ENDBRANCH  22  24
ENDBRANCH   3  18
TORSDOF 4
ENDMDL
MODEL 7
REMARK VINA RESULT:    -6.439     13.636     15.508
REMARK INTER + INTRA:          -8.671
REMARK INTER:                  -7.849
REMARK INTRA:                  -0.821
REMARK UNBOUND:                -0.726
REMARK  Name = /home/qwerty/github/datacon2025hack/step_04_hit_selection/docking/ligands/lig_152.pdb
REMARK  7 active torsions:
REMARK  status: ('A' for Active; 'I' for Inactive)
REMARK    1  A    between atoms: C1_1  and  O1_2
REMARK    2  A    between atoms: O1_2  and  C2_3
REMARK    3  A    between atoms: C8_9  and  C9_10
REMARK    4  A    between atoms: N1_12  and  C10_13
REMARK    5  A    between atoms: C14_17  and  C15_18
REMARK    6  A    between atoms: C17_23  and  C18_24
REMARK    7  A    between atoms: N2_25  and  C19_26
REMARK                            x       y       z     vdW  Elec       q    Type
REMARK                         _______ _______ _______ _____ _____    ______ ____
ROOT
ATOM      1  C9  UNL     1      19.759   9.304  35.604  0.00  0.00    +0.251 C 
ATOM      2  O2  UNL     1      19.240   8.234  35.185  0.00  0.00    -0.270 OA
ATOM      3  N1  UNL     1      21.123   9.314  36.052  0.00  0.00    -0.281 N 
ATOM      4  H7  UNL     1      21.391  10.023  36.773  0.00  0.00    +0.155 HD
ENDROOT
BRANCH   1  11
ATOM      5  C2  UNL     1      19.401  12.979  32.865  0.00  0.00    +0.121 A 
ATOM      6  C3  UNL     1      18.470  13.921  33.354  0.00  0.00    +0.047 A 
ATOM      7  C4  UNL     1      17.759  13.685  34.542  0.00  0.00    +0.030 A 
ATOM      8  C5  UNL     1      18.004  12.495  35.233  0.00  0.00    +0.050 A 
ATOM      9  C6  UNL     1      18.928  11.585  34.781  0.00  0.00    +0.016 A 
ATOM     10  C7  UNL     1      19.630  11.784  33.588  0.00  0.00    +0.056 A 
ATOM     11  C8  UNL     1      18.940  10.530  35.679  0.00  0.00    +0.065 A 
ATOM     12  C17 UNL     1      18.003  10.866  36.662  0.00  0.00    +0.029 A 
ATOM     13  C18 UNL     1      17.672  10.036  37.870  0.00  0.00    +0.064 C 
ATOM     14  N2  UNL     1      17.414  12.055  36.366  0.00  0.00    -0.346 N 
ATOM     15  C19 UNL     1      16.402  12.757  37.158  0.00  0.00    +0.149 C 
BRANCH   5  17
ATOM     16  C1  UNL     1      20.198  14.571  31.111  0.00  0.00    +0.277 C 
ATOM     17  O1  UNL     1      20.068  13.266  31.665  0.00  0.00    -0.495 OA
ENDBRANCH   5  17
ENDBRANCH   1  11
BRANCH   3  18
ATOM     18  C10 UNL     1      22.104   8.339  35.663  0.00  0.00    +0.034 A 
ATOM     19  C11 UNL     1      22.383   7.265  36.520  0.00  0.00    +0.023 A 
ATOM     20  C12 UNL     1      23.337   6.308  36.168  0.00  0.00    +0.002 A 
ATOM     21  C13 UNL     1      24.039   6.426  34.966  0.00  0.00    +0.012 A 
ATOM     22  C14 UNL     1      23.813   7.521  34.116  0.00  0.00    +0.057 A 
ATOM     23  C16 UNL     1      22.830   8.466  34.464  0.00  0.00    +0.035 A 
BRANCH  22  24
ATOM     24  C15 UNL     1      24.548   7.637  32.804  0.00  0.00    +0.417 C 
ATOM     25  F1  UNL     1      25.489   6.628  32.719  0.00  0.00    -0.166 F 
ATOM     26  F2  UNL     1      23.668   7.524  31.741  0.00  0.00    -0.166 F 
ATOM     27  F3  UNL     1      25.189   8.860  32.704  0.00  0.00    -0.166 F 
ENDBRANCH  22  24
ENDBRANCH   3  18
TORSDOF 4
ENDMDL
MODEL 8
REMARK VINA RESULT:    -6.395      9.079     11.901
REMARK INTER + INTRA:          -8.617
REMARK INTER:                  -7.808
REMARK INTRA:                  -0.809
REMARK UNBOUND:                -0.726
REMARK  Name = /home/qwerty/github/datacon2025hack/step_04_hit_selection/docking/ligands/lig_152.pdb
REMARK  7 active torsions:
REMARK  status: ('A' for Active; 'I' for Inactive)
REMARK    1  A    between atoms: C1_1  and  O1_2
REMARK    2  A    between atoms: O1_2  and  C2_3
REMARK    3  A    between atoms: C8_9  and  C9_10
REMARK    4  A    between atoms: N1_12  and  C10_13
REMARK    5  A    between atoms: C14_17  and  C15_18
REMARK    6  A    between atoms: C17_23  and  C18_24
REMARK    7  A    between atoms: N2_25  and  C19_26
REMARK                            x       y       z     vdW  Elec       q    Type
REMARK                         _______ _______ _______ _____ _____    ______ ____
ROOT
ATOM      1  C9  UNL     1      12.740   0.640  24.606  0.00  0.00    +0.251 C 
ATOM      2  O2  UNL     1      12.950   1.575  25.425  0.00  0.00    -0.270 OA
ATOM      3  N1  UNL     1      11.415   0.406  24.104  0.00  0.00    -0.281 N 
ATOM      4  H7  UNL     1      11.171  -0.569  23.816  0.00  0.00    +0.155 HD
ENDROOT
BRANCH   1  11
ATOM      5  C2  UNL     1      15.472   0.548  20.909  0.00  0.00    +0.121 A 
ATOM      6  C3  UNL     1      16.414  -0.502  20.967  0.00  0.00    +0.047 A 
ATOM      7  C4  UNL     1      16.461  -1.371  22.069  0.00  0.00    +0.030 A 
ATOM      8  C5  UNL     1      15.544  -1.173  23.106  0.00  0.00    +0.050 A 
ATOM      9  C6  UNL     1      14.606  -0.172  23.046  0.00  0.00    +0.016 A 
ATOM     10  C7  UNL     1      14.554   0.722  21.973  0.00  0.00    +0.056 A 
ATOM     11  C8  UNL     1      13.854  -0.244  24.209  0.00  0.00    +0.065 A 
ATOM     12  C17 UNL     1      14.384  -1.319  24.930  0.00  0.00    +0.029 A 
ATOM     13  C18 UNL     1      13.883  -1.807  26.260  0.00  0.00    +0.064 C 
ATOM     14  N2  UNL     1      15.436  -1.863  24.263  0.00  0.00    -0.346 N 
ATOM     15  C19 UNL     1      16.238  -3.016  24.675  0.00  0.00    +0.149 C 
BRANCH   5  17
ATOM     16  C1  UNL     1      15.838   2.770  19.825  0.00  0.00    +0.277 C 
ATOM     17  O1  UNL     1      15.485   1.391  19.788  0.00  0.00    -0.495 OA
ENDBRANCH   5  17
ENDBRANCH   1  11
BRANCH   3  18
ATOM     18  C10 UNL     1      10.375   1.398  24.089  0.00  0.00    +0.034 A 
ATOM     19  C11 UNL     1       9.488   1.482  25.171  0.00  0.00    +0.023 A 
ATOM     20  C12 UNL     1       8.466   2.432  25.177  0.00  0.00    +0.002 A 
ATOM     21  C13 UNL     1       8.304   3.295  24.090  0.00  0.00    +0.012 A 
ATOM     22  C14 UNL     1       9.149   3.196  22.972  0.00  0.00    +0.057 A 
ATOM     23  C16 UNL     1      10.194   2.254  22.986  0.00  0.00    +0.035 A 
BRANCH  22  24
ATOM     24  C15 UNL     1       8.995   4.144  21.809  0.00  0.00    +0.417 C 
ATOM     25  F1  UNL     1       7.702   4.065  21.326  0.00  0.00    -0.166 F 
ATOM     26  F2  UNL     1       9.249   5.445  22.206  0.00  0.00    -0.166 F 
ATOM     27  F3  UNL     1       9.876   3.823  20.791  0.00  0.00    -0.166 F 
ENDBRANCH  22  24
ENDBRANCH   3  18
TORSDOF 4
ENDMDL
MODEL 9
REMARK VINA RESULT:    -6.101      6.982      9.684
REMARK INTER + INTRA:          -8.254
REMARK INTER:                  -7.513
REMARK INTRA:                  -0.740
REMARK UNBOUND:                -0.726
REMARK  Name = /home/qwerty/github/datacon2025hack/step_04_hit_selection/docking/ligands/lig_152.pdb
REMARK  7 active torsions:
REMARK  status: ('A' for Active; 'I' for Inactive)
REMARK    1  A    between atoms: C1_1  and  O1_2
REMARK    2  A    between atoms: O1_2  and  C2_3
REMARK    3  A    between atoms: C8_9  and  C9_10
REMARK    4  A    between atoms: N1_12  and  C10_13
REMARK    5  A    between atoms: C14_17  and  C15_18
REMARK    6  A    between atoms: C17_23  and  C18_24
REMARK    7  A    between atoms: N2_25  and  C19_26
REMARK                            x       y       z     vdW  Elec       q    Type
REMARK                         _______ _______ _______ _____ _____    ______ ____
ROOT
ATOM      1  C9  UNL     1      12.998  13.499  32.380  0.00  0.00    +0.251 C 
ATOM      2  O2  UNL     1      12.636  14.704  32.466  0.00  0.00    -0.270 OA
ATOM      3  N1  UNL     1      12.331  12.611  31.471  0.00  0.00    -0.281 N 
ATOM      4  H7  UNL     1      12.316  11.593  31.712  0.00  0.00    +0.155 HD
ENDROOT
BRANCH   1  11
ATOM      5  C2  UNL     1      12.979  11.650  36.588  0.00  0.00    +0.121 A 
ATOM      6  C3  UNL     1      14.277  11.319  37.033  0.00  0.00    +0.047 A 
ATOM      7  C4  UNL     1      15.399  11.543  36.218  0.00  0.00    +0.030 A 
ATOM      8  C5  UNL     1      15.196  12.111  34.957  0.00  0.00    +0.050 A 
ATOM      9  C6  UNL     1      13.940  12.463  34.527  0.00  0.00    +0.016 A 
ATOM     10  C7  UNL     1      12.805  12.227  35.308  0.00  0.00    +0.056 A 
ATOM     11  C8  UNL     1      14.076  12.999  33.256  0.00  0.00    +0.065 A 
ATOM     12  C17 UNL     1      15.445  12.951  32.975  0.00  0.00    +0.029 A 
ATOM     13  C18 UNL     1      16.093  13.442  31.711  0.00  0.00    +0.064 C 
ATOM     14  N2  UNL     1      16.119  12.379  34.008  0.00  0.00    -0.346 N 
ATOM     15  C19 UNL     1      17.565  12.171  34.107  0.00  0.00    +0.149 C 
BRANCH   5  17
ATOM     16  C1  UNL     1      10.960  10.333  37.251  0.00  0.00    +0.277 C 
ATOM     17  O1  UNL     1      11.898  11.387  37.443  0.00  0.00    -0.495 OA
ENDBRANCH   5  17
ENDBRANCH   1  11
BRANCH   3  18
ATOM     18  C10 UNL     1      11.584  13.047  30.323  0.00  0.00    +0.034 A 
ATOM     19  C11 UNL     1      12.270  13.542  29.205  0.00  0.00    +0.023 A 
ATOM     20  C12 UNL     1      11.567  13.979  28.080  0.00  0.00    +0.002 A 
ATOM     21  C13 UNL     1      10.170  13.948  28.070  0.00  0.00    +0.012 A 
ATOM     22  C14 UNL     1       9.461  13.505  29.198  0.00  0.00    +0.057 A 
ATOM     23  C16 UNL     1      10.177  13.040  30.317  0.00  0.00    +0.035 A 
BRANCH  22  24
ATOM     24  C15 UNL     1       7.954  13.443  29.180  0.00  0.00    +0.417 C 
ATOM     25  F1  UNL     1       7.497  13.846  27.939  0.00  0.00    -0.166 F 
ATOM     26  F2  UNL     1       7.517  12.152  29.423  0.00  0.00    -0.166 F 
ATOM     27  F3  UNL     1       7.415  14.271  30.150  0.00  0.00    -0.166 F 
ENDBRANCH  22  24
ENDBRANCH   3  18
TORSDOF 4
ENDMDL
