MODEL 1
REMARK VINA RESULT:    -6.991      0.000      0.000
REMARK INTER + INTRA:          -9.462
REMARK INTER:                  -8.625
REMARK INTRA:                  -0.836
REMARK UNBOUND:                -0.836
REMARK  Name = /home/qwerty/github/datacon2025hack/step_04_hit_selection/docking/ligands/lig_608.pdb
REMARK  6 active torsions:
REMARK  status: ('A' for Active; 'I' for Inactive)
REMARK    1  A    between atoms: C1_1  and  C2_2
REMARK    2  A    between atoms: C2_2  and  C3_3
REMARK    3  A    between atoms: C2_2  and  C4_4
REMARK    4  A    between atoms: C10_12  and  N3_13
REMARK    5  A    between atoms: C15_20  and  C16_21
REMARK    6  A    between atoms: C17_24  and  C18_25
REMARK                            x       y       z     vdW  Elec       q    Type
REMARK                         _______ _______ _______ _____ _____    ______ ____
ROOT
ATOM      1  N3  UNL     1      21.614   5.243  32.264  0.00  0.00    -0.254 N 
ATOM      2  C11 UNL     1      22.065   3.901  32.019  0.00  0.00    +0.308 C 
ATOM      3  O1  UNL     1      22.994   3.426  32.727  0.00  0.00    -0.252 OA
ATOM      4  N4  UNL     1      21.474   3.096  30.971  0.00  0.00    -0.285 N 
ATOM      5  C12 UNL     1      22.069   1.800  30.603  0.00  0.00    +0.109 C 
ATOM      6  C13 UNL     1      21.008   0.687  30.539  0.00  0.00    +0.020 C 
ATOM      7  C14 UNL     1      19.611   1.179  30.107  0.00  0.00    +0.014 C 
ATOM      8  C15 UNL     1      19.655   2.512  29.340  0.00  0.00    +0.076 C 
ATOM      9  C21 UNL     1      20.295   3.593  30.240  0.00  0.00    +0.120 C 
ATOM     10  H12 UNL     1      21.106   5.759  31.515  0.00  0.00    +0.158 HD
ENDROOT
BRANCH   1  19
ATOM     11  C4  UNL     1      23.152   6.696  33.650  0.00  0.00    +0.085 A 
ATOM     12  N1  UNL     1      23.113   7.264  34.880  0.00  0.00    -0.231 NA
ATOM     13  C5  UNL     1      21.926   6.864  35.385  0.00  0.00    +0.139 A 
ATOM     14  C6  UNL     1      21.414   7.218  36.632  0.00  0.00    +0.047 A 
ATOM     15  C7  UNL     1      20.139   6.741  36.974  0.00  0.00    +0.005 A 
ATOM     16  C8  UNL     1      19.412   5.945  36.069  0.00  0.00    +0.018 A 
ATOM     17  C9  UNL     1      19.974   5.624  34.824  0.00  0.00    +0.094 A 
ATOM     18  N2  UNL     1      21.222   6.085  34.544  0.00  0.00    -0.287 N 
ATOM     19  C10 UNL     1      21.985   5.964  33.445  0.00  0.00    +0.134 A 
BRANCH  11  21
ATOM     20  C1  UNL     1      25.458   5.920  33.040  0.00  0.00    +0.014 C 
ATOM     21  C2  UNL     1      24.317   6.885  32.707  0.00  0.00    +0.035 C 
ATOM     22  C3  UNL     1      24.800   8.339  32.667  0.00  0.00    +0.014 C 
ENDBRANCH  11  21
ENDBRANCH   1  19
BRANCH   8  23
ATOM     23  C16 UNL     1      20.341   2.359  28.000  0.00  0.00    +0.156 A 
ATOM     24  N5  UNL     1      20.208   1.285  27.194  0.00  0.00    -0.157 NA
ATOM     25  N6  UNL     1      20.991   1.512  26.157  0.00  0.00    -0.262 N 
ATOM     26  C17 UNL     1      21.598   2.693  26.353  0.00  0.00    +0.128 A 
ATOM     27  N7  UNL     1      21.214   3.269  27.508  0.00  0.00    -0.216 NA
ATOM     28  H20 UNL     1      21.102   0.870  25.341  0.00  0.00    +0.190 HD
BRANCH  26  29
ATOM     29  C18 UNL     1      22.534   3.331  25.374  0.00  0.00    +0.056 C 
ATOM     30  C19 UNL     1      21.913   4.438  24.535  0.00  0.00    +0.012 C 
ATOM     31  C20 UNL     1      22.861   4.786  25.670  0.00  0.00    +0.012 C 
ENDBRANCH  26  29
ENDBRANCH   8  23
TORSDOF 4
ENDMDL
MODEL 2
REMARK VINA RESULT:    -6.902      4.758     10.647
REMARK INTER + INTRA:          -9.352
REMARK INTER:                  -8.515
REMARK INTRA:                  -0.837
REMARK UNBOUND:                -0.836
REMARK  Name = /home/qwerty/github/datacon2025hack/step_04_hit_selection/docking/ligands/lig_608.pdb
REMARK  6 active torsions:
REMARK  status: ('A' for Active; 'I' for Inactive)
REMARK    1  A    between atoms: C1_1  and  C2_2
REMARK    2  A    between atoms: C2_2  and  C3_3
REMARK    3  A    between atoms: C2_2  and  C4_4
REMARK    4  A    between atoms: C10_12  and  N3_13
REMARK    5  A    between atoms: C15_20  and  C16_21
REMARK    6  A    between atoms: C17_24  and  C18_25
REMARK                            x       y       z     vdW  Elec       q    Type
REMARK                         _______ _______ _______ _____ _____    ______ ____
ROOT
ATOM      1  N3  UNL     1      17.866   0.894  25.612  0.00  0.00    -0.254 N 
ATOM      2  C11 UNL     1      19.260   0.678  25.886  0.00  0.00    +0.308 C 
ATOM      3  O1  UNL     1      19.912  -0.122  25.161  0.00  0.00    -0.252 OA
ATOM      4  N4  UNL     1      19.917   1.357  26.982  0.00  0.00    -0.285 N 
ATOM      5  C12 UNL     1      21.288   0.985  27.373  0.00  0.00    +0.109 C 
ATOM      6  C13 UNL     1      22.192   2.223  27.514  0.00  0.00    +0.020 C 
ATOM      7  C14 UNL     1      21.447   3.491  27.981  0.00  0.00    +0.014 C 
ATOM      8  C15 UNL     1      20.122   3.180  28.699  0.00  0.00    +0.076 C 
ATOM      9  C21 UNL     1      19.199   2.397  27.739  0.00  0.00    +0.120 C 
ATOM     10  H12 UNL     1      17.247   1.271  26.360  0.00  0.00    +0.158 HD
ENDROOT
BRANCH   1  19
ATOM     11  C4  UNL     1      16.682  -0.793  24.146  0.00  0.00    +0.085 A 
ATOM     12  N1  UNL     1      16.176  -0.810  22.888  0.00  0.00    -0.231 NA
ATOM     13  C5  UNL     1      16.453   0.422  22.411  0.00  0.00    +0.139 A 
ATOM     14  C6  UNL     1      16.103   0.902  21.149  0.00  0.00    +0.047 A 
ATOM     15  C7  UNL     1      16.438   2.229  20.839  0.00  0.00    +0.005 A 
ATOM     16  C8  UNL     1      17.094   3.037  21.787  0.00  0.00    +0.018 A 
ATOM     17  C9  UNL     1      17.418   2.504  23.044  0.00  0.00    +0.094 A 
ATOM     18  N2  UNL     1      17.098   1.207  23.294  0.00  0.00    -0.287 N 
ATOM     19  C10 UNL     1      17.256   0.452  24.393  0.00  0.00    +0.134 A 
BRANCH  11  21
ATOM     20  C1  UNL     1      17.675  -3.014  24.757  0.00  0.00    +0.014 C 
ATOM     21  C2  UNL     1      16.589  -1.982  25.072  0.00  0.00    +0.035 C 
ATOM     22  C3  UNL     1      15.192  -2.614  25.065  0.00  0.00    +0.014 C 
ENDBRANCH  11  21
ENDBRANCH   1  19
BRANCH   8  23
ATOM     23  C16 UNL     1      20.358   2.476  30.016  0.00  0.00    +0.156 A 
ATOM     24  N5  UNL     1      21.429   2.685  30.812  0.00  0.00    -0.157 NA
ATOM     25  N6  UNL     1      21.290   1.857  31.830  0.00  0.00    -0.262 N 
ATOM     26  C17 UNL     1      20.166   1.151  31.633  0.00  0.00    +0.128 A 
ATOM     27  N7  UNL     1      19.539   1.512  30.497  0.00  0.00    -0.216 NA
ATOM     28  H20 UNL     1      21.953   1.783  32.634  0.00  0.00    +0.190 HD
BRANCH  26  29
ATOM     29  C18 UNL     1      19.630   0.136  32.594  0.00  0.00    +0.056 C 
ATOM     30  C19 UNL     1      18.413   0.593  33.383  0.00  0.00    +0.012 C 
ATOM     31  C20 UNL     1      18.251  -0.399  32.244  0.00  0.00    +0.012 C 
ENDBRANCH  26  29
ENDBRANCH   8  23
TORSDOF 4
ENDMDL
MODEL 3
REMARK VINA RESULT:    -6.891     13.775     16.464
REMARK INTER + INTRA:          -9.339
REMARK INTER:                  -8.457
REMARK INTRA:                  -0.882
REMARK UNBOUND:                -0.836
REMARK  Name = /home/qwerty/github/datacon2025hack/step_04_hit_selection/docking/ligands/lig_608.pdb
REMARK  6 active torsions:
REMARK  status: ('A' for Active; 'I' for Inactive)
REMARK    1  A    between atoms: C1_1  and  C2_2
REMARK    2  A    between atoms: C2_2  and  C3_3
REMARK    3  A    between atoms: C2_2  and  C4_4
REMARK    4  A    between atoms: C10_12  and  N3_13
REMARK    5  A    between atoms: C15_20  and  C16_21
REMARK    6  A    between atoms: C17_24  and  C18_25
REMARK                            x       y       z     vdW  Elec       q    Type
REMARK                         _______ _______ _______ _____ _____    ______ ____
ROOT
ATOM      1  N3  UNL     1       9.451   8.917  24.794  0.00  0.00    -0.254 N 
ATOM      2  C11 UNL     1       8.523   9.667  25.596  0.00  0.00    +0.308 C 
ATOM      3  O1  UNL     1       7.346   9.836  25.177  0.00  0.00    -0.252 OA
ATOM      4  N4  UNL     1       8.926  10.234  26.865  0.00  0.00    -0.285 N 
ATOM      5  C12 UNL     1       8.033  11.159  27.584  0.00  0.00    +0.109 C 
ATOM      6  C13 UNL     1       7.878  10.761  29.063  0.00  0.00    +0.020 C 
ATOM      7  C14 UNL     1       9.129  10.087  29.663  0.00  0.00    +0.014 C 
ATOM      8  C15 UNL     1      10.416  10.403  28.881  0.00  0.00    +0.076 C 
ATOM      9  C21 UNL     1      10.253   9.919  27.422  0.00  0.00    +0.120 C 
ATOM     10  H12 UNL     1      10.474   9.038  24.942  0.00  0.00    +0.158 HD
ENDROOT
BRANCH   1  19
ATOM     11  C4  UNL     1       9.011   8.507  22.337  0.00  0.00    +0.085 A 
ATOM     12  N1  UNL     1       8.573   7.468  21.583  0.00  0.00    -0.231 NA
ATOM     13  C5  UNL     1       8.335   6.491  22.483  0.00  0.00    +0.139 A 
ATOM     14  C6  UNL     1       7.889   5.204  22.186  0.00  0.00    +0.047 A 
ATOM     15  C7  UNL     1       7.736   4.303  23.251  0.00  0.00    +0.005 A 
ATOM     16  C8  UNL     1       8.039   4.701  24.568  0.00  0.00    +0.018 A 
ATOM     17  C9  UNL     1       8.489   6.007  24.809  0.00  0.00    +0.094 A 
ATOM     18  N2  UNL     1       8.599   6.855  23.752  0.00  0.00    -0.287 N 
ATOM     19  C10 UNL     1       9.021   8.128  23.677  0.00  0.00    +0.134 A 
BRANCH  11  21
ATOM     20  C1  UNL     1       8.208  10.773  21.621  0.00  0.00    +0.014 C 
ATOM     21  C2  UNL     1       9.411   9.832  21.734  0.00  0.00    +0.035 C 
ATOM     22  C3  UNL     1      10.126   9.665  20.389  0.00  0.00    +0.014 C 
ENDBRANCH  11  21
ENDBRANCH   1  19
BRANCH   8  23
ATOM     23  C16 UNL     1      10.787  11.865  28.993  0.00  0.00    +0.156 A 
ATOM     24  N5  UNL     1      10.565  12.626  30.085  0.00  0.00    -0.157 NA
ATOM     25  N6  UNL     1      10.984  13.838  29.773  0.00  0.00    -0.262 N 
ATOM     26  C17 UNL     1      11.429  13.803  28.507  0.00  0.00    +0.128 A 
ATOM     27  N7  UNL     1      11.326  12.571  27.973  0.00  0.00    -0.216 NA
ATOM     28  H20 UNL     1      10.962  14.661  30.415  0.00  0.00    +0.190 HD
BRANCH  26  29
ATOM     29  C18 UNL     1      12.033  14.973  27.795  0.00  0.00    +0.056 C 
ATOM     30  C19 UNL     1      13.553  15.026  27.842  0.00  0.00    +0.012 C 
ATOM     31  C20 UNL     1      12.846  14.611  26.563  0.00  0.00    +0.012 C 
ENDBRANCH  26  29
ENDBRANCH   8  23
TORSDOF 4
ENDMDL
MODEL 4
REMARK VINA RESULT:    -6.737     11.973     13.683
REMARK INTER + INTRA:          -9.149
REMARK INTER:                  -8.311
REMARK INTRA:                  -0.838
REMARK UNBOUND:                -0.836
REMARK  Name = /home/qwerty/github/datacon2025hack/step_04_hit_selection/docking/ligands/lig_608.pdb
REMARK  6 active torsions:
REMARK  status: ('A' for Active; 'I' for Inactive)
REMARK    1  A    between atoms: C1_1  and  C2_2
REMARK    2  A    between atoms: C2_2  and  C3_3
REMARK    3  A    between atoms: C2_2  and  C4_4
REMARK    4  A    between atoms: C10_12  and  N3_13
REMARK    5  A    between atoms: C15_20  and  C16_21
REMARK    6  A    between atoms: C17_24  and  C18_25
REMARK                            x       y       z     vdW  Elec       q    Type
REMARK                         _______ _______ _______ _____ _____    ______ ____
ROOT
ATOM      1  N3  UNL     1      12.398  12.413  33.061  0.00  0.00    -0.254 N 
ATOM      2  C11 UNL     1      11.671  13.308  32.203  0.00  0.00    +0.308 C 
ATOM      3  O1  UNL     1      11.359  14.452  32.633  0.00  0.00    -0.252 OA
ATOM      4  N4  UNL     1      11.288  12.911  30.865  0.00  0.00    -0.285 N 
ATOM      5  C12 UNL     1      10.381  13.755  30.069  0.00  0.00    +0.109 C 
ATOM      6  C13 UNL     1      10.932  13.997  28.652  0.00  0.00    +0.020 C 
ATOM      7  C14 UNL     1      11.772  12.827  28.099  0.00  0.00    +0.014 C 
ATOM      8  C15 UNL     1      11.476  11.490  28.801  0.00  0.00    +0.076 C 
ATOM      9  C21 UNL     1      11.774  11.635  30.311  0.00  0.00    +0.120 C 
ATOM     10  H12 UNL     1      12.379  11.389  32.870  0.00  0.00    +0.158 HD
ENDROOT
BRANCH   1  19
ATOM     11  C4  UNL     1      12.415  12.983  35.525  0.00  0.00    +0.085 A 
ATOM     12  N1  UNL     1      13.341  13.398  36.425  0.00  0.00    -0.231 NA
ATOM     13  C5  UNL     1      14.473  13.511  35.698  0.00  0.00    +0.139 A 
ATOM     14  C6  UNL     1      15.721  13.887  36.193  0.00  0.00    +0.047 A 
ATOM     15  C7  UNL     1      16.800  13.909  35.295  0.00  0.00    +0.005 A 
ATOM     16  C8  UNL     1      16.610  13.549  33.947  0.00  0.00    +0.018 A 
ATOM     17  C9  UNL     1      15.333  13.174  33.505  0.00  0.00    +0.094 A 
ATOM     18  N2  UNL     1      14.311  13.190  34.401  0.00  0.00    -0.287 N 
ATOM     19  C10 UNL     1      13.016  12.860  34.274  0.00  0.00    +0.134 A 
BRANCH  11  21
ATOM     20  C1  UNL     1      10.171  14.011  35.966  0.00  0.00    +0.014 C 
ATOM     21  C2  UNL     1      10.979  12.713  35.906  0.00  0.00    +0.035 C 
ATOM     22  C3  UNL     1      10.866  11.916  37.210  0.00  0.00    +0.014 C 
ENDBRANCH  11  21
ENDBRANCH   1  19
BRANCH   8  23
ATOM     23  C16 UNL     1      10.072  11.010  28.507  0.00  0.00    +0.156 A 
ATOM     24  N5  UNL     1       9.426  11.210  27.339  0.00  0.00    -0.157 NA
ATOM     25  N6  UNL     1       8.225  10.686  27.495  0.00  0.00    -0.262 N 
ATOM     26  C17 UNL     1       8.149  10.201  28.744  0.00  0.00    +0.128 A 
ATOM     27  N7  UNL     1       9.299  10.381  29.423  0.00  0.00    -0.216 NA
ATOM     28  H20 UNL     1       7.482  10.667  26.761  0.00  0.00    +0.190 HD
BRANCH  26  29
ATOM     29  C18 UNL     1       6.959   9.481  29.297  0.00  0.00    +0.056 C 
ATOM     30  C19 UNL     1       7.102   7.968  29.347  0.00  0.00    +0.012 C 
ATOM     31  C20 UNL     1       7.204   8.783  30.625  0.00  0.00    +0.012 C 
ENDBRANCH  26  29
ENDBRANCH   8  23
TORSDOF 4
ENDMDL
MODEL 5
REMARK VINA RESULT:    -6.665     14.055     15.153
REMARK INTER + INTRA:          -9.059
REMARK INTER:                  -8.297
REMARK INTRA:                  -0.762
REMARK UNBOUND:                -0.836
REMARK  Name = /home/qwerty/github/datacon2025hack/step_04_hit_selection/docking/ligands/lig_608.pdb
REMARK  6 active torsions:
REMARK  status: ('A' for Active; 'I' for Inactive)
REMARK    1  A    between atoms: C1_1  and  C2_2
REMARK    2  A    between atoms: C2_2  and  C3_3
REMARK    3  A    between atoms: C2_2  and  C4_4
REMARK    4  A    between atoms: C10_12  and  N3_13
REMARK    5  A    between atoms: C15_20  and  C16_21
REMARK    6  A    between atoms: C17_24  and  C18_25
REMARK                            x       y       z     vdW  Elec       q    Type
REMARK                         _______ _______ _______ _____ _____    ______ ____
ROOT
ATOM      1  N3  UNL     1       9.144   9.826  26.304  0.00  0.00    -0.254 N 
ATOM      2  C11 UNL     1       8.331   9.569  25.147  0.00  0.00    +0.308 C 
ATOM      3  O1  UNL     1       7.108   9.304  25.302  0.00  0.00    -0.252 OA
ATOM      4  N4  UNL     1       8.899   9.601  23.816  0.00  0.00    -0.285 N 
ATOM      5  C12 UNL     1       8.108   9.149  22.658  0.00  0.00    +0.109 C 
ATOM      6  C13 UNL     1       8.153  10.172  21.509  0.00  0.00    +0.020 C 
ATOM      7  C14 UNL     1       9.474  10.965  21.429  0.00  0.00    +0.014 C 
ATOM      8  C15 UNL     1      10.644  10.256  22.132  0.00  0.00    +0.076 C 
ATOM      9  C21 UNL     1      10.289  10.050  23.622  0.00  0.00    +0.120 C 
ATOM     10  H12 UNL     1      10.177   9.720  26.240  0.00  0.00    +0.158 HD
ENDROOT
BRANCH   1  19
ATOM     11  C4  UNL     1       8.334  11.295  28.197  0.00  0.00    +0.085 A 
ATOM     12  N1  UNL     1       7.742  11.099  29.402  0.00  0.00    -0.231 NA
ATOM     13  C5  UNL     1       7.634   9.756  29.495  0.00  0.00    +0.139 A 
ATOM     14  C6  UNL     1       7.058   9.060  30.557  0.00  0.00    +0.047 A 
ATOM     15  C7  UNL     1       6.994   7.661  30.463  0.00  0.00    +0.005 A 
ATOM     16  C8  UNL     1       7.489   7.002  29.322  0.00  0.00    +0.018 A 
ATOM     17  C9  UNL     1       8.054   7.753  28.280  0.00  0.00    +0.094 A 
ATOM     18  N2  UNL     1       8.119   9.103  28.423  0.00  0.00    -0.287 N 
ATOM     19  C10 UNL     1       8.570  10.061  27.596  0.00  0.00    +0.134 A 
BRANCH  11  21
ATOM     20  C1  UNL     1      10.140  12.987  27.788  0.00  0.00    +0.014 C 
ATOM     21  C2  UNL     1       8.647  12.673  27.664  0.00  0.00    +0.035 C 
ATOM     22  C3  UNL     1       7.784  13.758  28.319  0.00  0.00    +0.014 C 
ENDBRANCH  11  21
ENDBRANCH   1  19
BRANCH   8  23
ATOM     23  C16 UNL     1      11.025   8.977  21.421  0.00  0.00    +0.156 A 
ATOM     24  N5  UNL     1      10.958   8.798  20.084  0.00  0.00    -0.157 NA
ATOM     25  N6  UNL     1      11.327   7.550  19.867  0.00  0.00    -0.262 N 
ATOM     26  C17 UNL     1      11.589   6.988  21.057  0.00  0.00    +0.128 A 
ATOM     27  N7  UNL     1      11.415   7.856  22.072  0.00  0.00    -0.216 NA
ATOM     28  H20 UNL     1      11.394   7.102  18.926  0.00  0.00    +0.190 HD
BRANCH  26  29
ATOM     29  C18 UNL     1      12.086   5.587  21.235  0.00  0.00    +0.056 C 
ATOM     30  C19 UNL     1      11.023   4.512  21.068  0.00  0.00    +0.012 C 
ATOM     31  C20 UNL     1      12.052   4.740  19.973  0.00  0.00    +0.012 C 
ENDBRANCH  26  29
ENDBRANCH   8  23
TORSDOF 4
ENDMDL
MODEL 6
REMARK VINA RESULT:    -6.491     13.848     15.163
REMARK INTER + INTRA:          -8.845
REMARK INTER:                  -8.127
REMARK INTRA:                  -0.718
REMARK UNBOUND:                -0.836
REMARK  Name = /home/qwerty/github/datacon2025hack/step_04_hit_selection/docking/ligands/lig_608.pdb
REMARK  6 active torsions:
REMARK  status: ('A' for Active; 'I' for Inactive)
REMARK    1  A    between atoms: C1_1  and  C2_2
REMARK    2  A    between atoms: C2_2  and  C3_3
REMARK    3  A    between atoms: C2_2  and  C4_4
REMARK    4  A    between atoms: C10_12  and  N3_13
REMARK    5  A    between atoms: C15_20  and  C16_21
REMARK    6  A    between atoms: C17_24  and  C18_25
REMARK                            x       y       z     vdW  Elec       q    Type
REMARK                         _______ _______ _______ _____ _____    ______ ____
ROOT
ATOM      1  N3  UNL     1       9.593   9.774  26.495  0.00  0.00    -0.254 N 
ATOM      2  C11 UNL     1       8.675  10.113  25.443  0.00  0.00    +0.308 C 
ATOM      3  O1  UNL     1       7.649  10.794  25.719  0.00  0.00    -0.252 OA
ATOM      4  N4  UNL     1       8.906   9.677  24.083  0.00  0.00    -0.285 N 
ATOM      5  C12 UNL     1       7.867   9.862  23.054  0.00  0.00    +0.109 C 
ATOM      6  C13 UNL     1       8.442  10.503  21.779  0.00  0.00    +0.020 C 
ATOM      7  C14 UNL     1       9.913  10.131  21.500  0.00  0.00    +0.014 C 
ATOM      8  C15 UNL     1      10.349   8.836  22.206  0.00  0.00    +0.076 C 
ATOM      9  C21 UNL     1      10.171   9.006  23.731  0.00  0.00    +0.120 C 
ATOM     10  H12 UNL     1      10.241   8.968  26.371  0.00  0.00    +0.158 HD
ENDROOT
BRANCH   1  19
ATOM     11  C4  UNL     1       8.958   9.890  28.940  0.00  0.00    +0.085 A 
ATOM     12  N1  UNL     1       9.148  10.765  29.958  0.00  0.00    -0.231 NA
ATOM     13  C5  UNL     1       9.838  11.778  29.392  0.00  0.00    +0.139 A 
ATOM     14  C6  UNL     1      10.296  12.917  30.051  0.00  0.00    +0.047 A 
ATOM     15  C7  UNL     1      11.036  13.849  29.307  0.00  0.00    +0.005 A 
ATOM     16  C8  UNL     1      11.308  13.618  27.945  0.00  0.00    +0.018 A 
ATOM     17  C9  UNL     1      10.826  12.451  27.333  0.00  0.00    +0.094 A 
ATOM     18  N2  UNL     1      10.092  11.587  28.084  0.00  0.00    -0.287 N 
ATOM     19  C10 UNL     1       9.538  10.401  27.781  0.00  0.00    +0.134 A 
BRANCH  11  21
ATOM     20  C1  UNL     1       6.974   8.766  29.985  0.00  0.00    +0.014 C 
ATOM     21  C2  UNL     1       8.225   8.582  29.123  0.00  0.00    +0.035 C 
ATOM     22  C3  UNL     1       9.136   7.480  29.677  0.00  0.00    +0.014 C 
ENDBRANCH  11  21
ENDBRANCH   1  19
BRANCH   8  23
ATOM     23  C16 UNL     1       9.629   7.629  21.646  0.00  0.00    +0.156 A 
ATOM     24  N5  UNL     1       9.424   7.407  20.330  0.00  0.00    -0.157 NA
ATOM     25  N6  UNL     1       8.729   6.288  20.257  0.00  0.00    -0.262 N 
ATOM     26  C17 UNL     1       8.505   5.862  21.509  0.00  0.00    +0.128 A 
ATOM     27  N7  UNL     1       9.061   6.680  22.424  0.00  0.00    -0.216 NA
ATOM     28  H20 UNL     1       8.419   5.835  19.368  0.00  0.00    +0.190 HD
BRANCH  26  29
ATOM     29  C18 UNL     1       7.789   4.593  21.852  0.00  0.00    +0.056 C 
ATOM     30  C19 UNL     1       8.623   3.585  22.627  0.00  0.00    +0.012 C 
ATOM     31  C20 UNL     1       7.546   4.387  23.338  0.00  0.00    +0.012 C 
ENDBRANCH  26  29
ENDBRANCH   8  23
TORSDOF 4
ENDMDL
MODEL 7
REMARK VINA RESULT:    -6.444      1.657      8.723
REMARK INTER + INTRA:          -8.787
REMARK INTER:                  -7.992
REMARK INTRA:                  -0.795
REMARK UNBOUND:                -0.836
REMARK  Name = /home/qwerty/github/datacon2025hack/step_04_hit_selection/docking/ligands/lig_608.pdb
REMARK  6 active torsions:
REMARK  status: ('A' for Active; 'I' for Inactive)
REMARK    1  A    between atoms: C1_1  and  C2_2
REMARK    2  A    between atoms: C2_2  and  C3_3
REMARK    3  A    between atoms: C2_2  and  C4_4
REMARK    4  A    between atoms: C10_12  and  N3_13
REMARK    5  A    between atoms: C15_20  and  C16_21
REMARK    6  A    between atoms: C17_24  and  C18_25
REMARK                            x       y       z     vdW  Elec       q    Type
REMARK                         _______ _______ _______ _____ _____    ______ ____
ROOT
ATOM      1  N3  UNL     1      20.799   4.010  31.356  0.00  0.00    -0.254 N 
ATOM      2  C11 UNL     1      22.007   4.252  32.095  0.00  0.00    +0.308 C 
ATOM      3  O1  UNL     1      22.869   3.335  32.183  0.00  0.00    -0.252 OA
ATOM      4  N4  UNL     1      22.241   5.525  32.744  0.00  0.00    -0.285 N 
ATOM      5  C12 UNL     1      23.386   5.697  33.655  0.00  0.00    +0.109 C 
ATOM      6  C13 UNL     1      24.188   6.968  33.322  0.00  0.00    +0.020 C 
ATOM      7  C14 UNL     1      23.333   8.113  32.743  0.00  0.00    +0.014 C 
ATOM      8  C15 UNL     1      21.839   7.981  33.087  0.00  0.00    +0.076 C 
ATOM      9  C21 UNL     1      21.307   6.643  32.525  0.00  0.00    +0.120 C 
ATOM     10  H12 UNL     1      19.959   4.598  31.538  0.00  0.00    +0.158 HD
ENDROOT
BRANCH   1  19
ATOM     11  C4  UNL     1      19.972   1.693  30.770  0.00  0.00    +0.085 A 
ATOM     12  N1  UNL     1      20.027   0.882  29.685  0.00  0.00    -0.231 NA
ATOM     13  C5  UNL     1      20.736   1.594  28.783  0.00  0.00    +0.139 A 
ATOM     14  C6  UNL     1      21.040   1.186  27.485  0.00  0.00    +0.047 A 
ATOM     15  C7  UNL     1      21.753   2.079  26.670  0.00  0.00    +0.005 A 
ATOM     16  C8  UNL     1      22.129   3.344  27.160  0.00  0.00    +0.018 A 
ATOM     17  C9  UNL     1      21.792   3.704  28.474  0.00  0.00    +0.094 A 
ATOM     18  N2  UNL     1      21.123   2.800  29.237  0.00  0.00    -0.287 N 
ATOM     19  C10 UNL     1      20.653   2.876  30.493  0.00  0.00    +0.134 A 
BRANCH  11  21
ATOM     20  C1  UNL     1      19.341  -0.210  32.277  0.00  0.00    +0.014 C 
ATOM     21  C2  UNL     1      19.254   1.300  32.039  0.00  0.00    +0.035 C 
ATOM     22  C3  UNL     1      17.802   1.792  32.060  0.00  0.00    +0.014 C 
ENDBRANCH  11  21
ENDBRANCH   1  19
BRANCH   8  23
ATOM     23  C16 UNL     1      21.595   8.151  34.570  0.00  0.00    +0.156 A 
ATOM     24  N5  UNL     1      22.150   9.120  35.328  0.00  0.00    -0.157 NA
ATOM     25  N6  UNL     1      21.730   8.903  36.560  0.00  0.00    -0.262 N 
ATOM     26  C17 UNL     1      20.953   7.808  36.539  0.00  0.00    +0.128 A 
ATOM     27  N7  UNL     1      20.836   7.299  35.298  0.00  0.00    -0.216 NA
ATOM     28  H20 UNL     1      21.973   9.492  37.387  0.00  0.00    +0.190 HD
BRANCH  26  29
ATOM     29  C18 UNL     1      20.242   7.258  37.736  0.00  0.00    +0.056 C 
ATOM     30  C19 UNL     1      18.814   7.751  37.905  0.00  0.00    +0.012 C 
ATOM     31  C20 UNL     1      19.076   6.339  37.410  0.00  0.00    +0.012 C 
ENDBRANCH  26  29
ENDBRANCH   8  23
TORSDOF 4
ENDMDL
MODEL 8
REMARK VINA RESULT:    -6.407     11.331     13.255
REMARK INTER + INTRA:          -8.742
REMARK INTER:                  -7.925
REMARK INTRA:                  -0.817
REMARK UNBOUND:                -0.836
REMARK  Name = /home/qwerty/github/datacon2025hack/step_04_hit_selection/docking/ligands/lig_608.pdb
REMARK  6 active torsions:
REMARK  status: ('A' for Active; 'I' for Inactive)
REMARK    1  A    between atoms: C1_1  and  C2_2
REMARK    2  A    between atoms: C2_2  and  C3_3
REMARK    3  A    between atoms: C2_2  and  C4_4
REMARK    4  A    between atoms: C10_12  and  N3_13
REMARK    5  A    between atoms: C15_20  and  C16_21
REMARK    6  A    between atoms: C17_24  and  C18_25
REMARK                            x       y       z     vdW  Elec       q    Type
REMARK                         _______ _______ _______ _____ _____    ______ ____
ROOT
ATOM      1  N3  UNL     1      13.473  12.107  33.630  0.00  0.00    -0.254 N 
ATOM      2  C11 UNL     1      13.318  13.454  33.154  0.00  0.00    +0.308 C 
ATOM      3  O1  UNL     1      13.288  14.400  33.987  0.00  0.00    -0.252 OA
ATOM      4  N4  UNL     1      13.189  13.733  31.740  0.00  0.00    -0.285 N 
ATOM      5  C12 UNL     1      12.838  15.087  31.278  0.00  0.00    +0.109 C 
ATOM      6  C13 UNL     1      13.784  15.567  30.162  0.00  0.00    +0.020 C 
ATOM      7  C14 UNL     1      14.319  14.432  29.265  0.00  0.00    +0.014 C 
ATOM      8  C15 UNL     1      13.440  13.170  29.304  0.00  0.00    +0.076 C 
ATOM      9  C21 UNL     1      13.368  12.649  30.757  0.00  0.00    +0.120 C 
ATOM     10  H12 UNL     1      13.179  11.311  33.027  0.00  0.00    +0.158 HD
ENDROOT
BRANCH   1  19
ATOM     11  C4  UNL     1      13.026  11.542  36.055  0.00  0.00    +0.085 A 
ATOM     12  N1  UNL     1      13.779  11.284  37.153  0.00  0.00    -0.231 NA
ATOM     13  C5  UNL     1      15.049  11.408  36.712  0.00  0.00    +0.139 A 
ATOM     14  C6  UNL     1      16.197  11.209  37.477  0.00  0.00    +0.047 A 
ATOM     15  C7  UNL     1      17.439  11.342  36.838  0.00  0.00    +0.005 A 
ATOM     16  C8  UNL     1      17.504  11.654  35.466  0.00  0.00    +0.018 A 
ATOM     17  C9  UNL     1      16.316  11.839  34.743  0.00  0.00    +0.094 A 
ATOM     18  N2  UNL     1      15.134  11.726  35.407  0.00  0.00    -0.287 N 
ATOM     19  C10 UNL     1      13.865  11.820  34.978  0.00  0.00    +0.134 A 
BRANCH  11  21
ATOM     20  C1  UNL     1      10.991  11.472  37.518  0.00  0.00    +0.014 C 
ATOM     21  C2  UNL     1      11.516  11.506  36.081  0.00  0.00    +0.035 C 
ATOM     22  C3  UNL     1      10.949  10.353  35.245  0.00  0.00    +0.014 C 
ENDBRANCH  11  21
ENDBRANCH   1  19
BRANCH   8  23
ATOM     23  C16 UNL     1      12.083  13.420  28.685  0.00  0.00    +0.156 A 
ATOM     24  N5  UNL     1      11.846  14.314  27.702  0.00  0.00    -0.157 NA
ATOM     25  N6  UNL     1      10.548  14.266  27.473  0.00  0.00    -0.262 N 
ATOM     26  C17 UNL     1      10.016  13.373  28.322  0.00  0.00    +0.128 A 
ATOM     27  N7  UNL     1      10.953  12.808  29.108  0.00  0.00    -0.216 NA
ATOM     28  H20 UNL     1      10.046  14.833  26.754  0.00  0.00    +0.190 HD
BRANCH  26  29
ATOM     29  C18 UNL     1       8.568  12.993  28.346  0.00  0.00    +0.056 C 
ATOM     30  C19 UNL     1       7.714  13.816  29.298  0.00  0.00    +0.012 C 
ATOM     31  C20 UNL     1       7.627  14.055  27.800  0.00  0.00    +0.012 C 
ENDBRANCH  26  29
ENDBRANCH   8  23
TORSDOF 4
ENDMDL
MODEL 9
REMARK VINA RESULT:    -6.359      4.918      7.344
REMARK INTER + INTRA:          -8.682
REMARK INTER:                  -7.944
REMARK INTRA:                  -0.739
REMARK UNBOUND:                -0.836
REMARK  Name = /home/qwerty/github/datacon2025hack/step_04_hit_selection/docking/ligands/lig_608.pdb
REMARK  6 active torsions:
REMARK  status: ('A' for Active; 'I' for Inactive)
REMARK    1  A    between atoms: C1_1  and  C2_2
REMARK    2  A    between atoms: C2_2  and  C3_3
REMARK    3  A    between atoms: C2_2  and  C4_4
REMARK    4  A    between atoms: C10_12  and  N3_13
REMARK    5  A    between atoms: C15_20  and  C16_21
REMARK    6  A    between atoms: C17_24  and  C18_25
REMARK                            x       y       z     vdW  Elec       q    Type
REMARK                         _______ _______ _______ _____ _____    ______ ____
ROOT
ATOM      1  N3  UNL     1      19.096   2.135  26.847  0.00  0.00    -0.254 N 
ATOM      2  C11 UNL     1      19.200   0.846  26.220  0.00  0.00    +0.308 C 
ATOM      3  O1  UNL     1      20.306   0.238  26.244  0.00  0.00    -0.252 OA
ATOM      4  N4  UNL     1      18.062   0.245  25.559  0.00  0.00    -0.285 N 
ATOM      5  C12 UNL     1      18.227  -0.980  24.758  0.00  0.00    +0.109 C 
ATOM      6  C13 UNL     1      17.178  -2.044  25.128  0.00  0.00    +0.020 C 
ATOM      7  C14 UNL     1      15.827  -1.457  25.587  0.00  0.00    +0.014 C 
ATOM      8  C15 UNL     1      15.604  -0.013  25.105  0.00  0.00    +0.076 C 
ATOM      9  C21 UNL     1      16.737   0.883  25.653  0.00  0.00    +0.120 C 
ATOM     10  H12 UNL     1      18.330   2.781  26.568  0.00  0.00    +0.158 HD
ENDROOT
BRANCH   1  19
ATOM     11  C4  UNL     1      21.012   3.665  27.468  0.00  0.00    +0.085 A 
ATOM     12  N1  UNL     1      21.785   3.867  28.563  0.00  0.00    -0.231 NA
ATOM     13  C5  UNL     1      21.331   2.959  29.453  0.00  0.00    +0.139 A 
ATOM     14  C6  UNL     1      21.800   2.793  30.756  0.00  0.00    +0.047 A 
ATOM     15  C7  UNL     1      21.178   1.823  31.556  0.00  0.00    +0.005 A 
ATOM     16  C8  UNL     1      20.109   1.060  31.047  0.00  0.00    +0.018 A 
ATOM     17  C9  UNL     1      19.674   1.272  29.730  0.00  0.00    +0.094 A 
ATOM     18  N2  UNL     1      20.321   2.205  28.981  0.00  0.00    -0.287 N 
ATOM     19  C10 UNL     1      20.112   2.634  27.726  0.00  0.00    +0.134 A 
BRANCH  11  21
ATOM     20  C1  UNL     1      22.637   4.812  25.940  0.00  0.00    +0.014 C 
ATOM     21  C2  UNL     1      21.166   4.481  26.207  0.00  0.00    +0.035 C 
ATOM     22  C3  UNL     1      20.297   5.743  26.223  0.00  0.00    +0.014 C 
ENDBRANCH  11  21
ENDBRANCH   1  19
BRANCH   8  23
ATOM     23  C16 UNL     1      15.458   0.053  23.601  0.00  0.00    +0.156 A 
ATOM     24  N5  UNL     1      14.692  -0.787  22.872  0.00  0.00    -0.157 NA
ATOM     25  N6  UNL     1      14.866  -0.434  21.612  0.00  0.00    -0.262 N 
ATOM     26  C17 UNL     1      15.739   0.585  21.590  0.00  0.00    +0.128 A 
ATOM     27  N7  UNL     1      16.139   0.931  22.829  0.00  0.00    -0.216 NA
ATOM     28  H20 UNL     1      14.398  -0.885  20.795  0.00  0.00    +0.190 HD
BRANCH  26  29
ATOM     29  C18 UNL     1      16.164   1.303  20.347  0.00  0.00    +0.056 C 
ATOM     30  C19 UNL     1      15.236   2.429  19.918  0.00  0.00    +0.012 C 
ATOM     31  C20 UNL     1      16.573   2.751  20.563  0.00  0.00    +0.012 C 
ENDBRANCH  26  29
ENDBRANCH   8  23
TORSDOF 4
ENDMDL
