REMARK  Name = /home/qwerty/github/datacon2025hack/step_04_hit_selection/docking/ligands/lig_655.pdb
REMARK  7 active torsions:
REMARK  status: ('A' for Active; 'I' for Inactive)
REMARK    1  A    between atoms: C1_1  and  C2_2
REMARK    2  A    between atoms: C2_2  and  C3_3
REMARK    3  A    between atoms: C2_2  and  C4_4
REMARK    4  A    between atoms: C2_2  and  O1_5
REMARK    5  A    between atoms: O1_5  and  C5_6
REMARK    6  A    between atoms: N1_8  and  C6_9
REMARK    7  A    between atoms: N2_18  and  C14_19
REMARK                            x       y       z     vdW  Elec       q    Type
REMARK                         _______ _______ _______ _____ _____    ______ ____
ROOT
ATOM      1  C6  UNL     1      -1.844  -0.425  -0.603  0.00  0.00    +0.040 A 
ATOM      2  C7  UNL     1      -1.644  -0.823   0.728  0.00  0.00    +0.024 A 
ATOM      3  C8  UNL     1      -0.351  -0.924   1.247  0.00  0.00    +0.010 A 
ATOM      4  C9  UNL     1       0.772  -0.668   0.443  0.00  0.00    +0.012 A 
ATOM      5  C10 UNL     1       0.569  -0.306  -0.910  0.00  0.00    +0.127 A 
ATOM      6  C11 UNL     1      -0.730  -0.181  -1.415  0.00  0.00    +0.069 A 
ATOM      7  O3  UNL     1       1.640  -0.069  -1.774  0.00  0.00    -0.490 OA
ATOM      8  C12 UNL     1       2.561  -1.093  -2.141  0.00  0.00    +0.248 C 
ATOM      9  C13 UNL     1       3.176  -1.766  -0.913  0.00  0.00    +0.146 C 
ATOM     10  N2  UNL     1       3.273  -0.811   0.197  0.00  0.00    -0.322 N 
ATOM     11  C21 UNL     1       2.133  -0.653   1.117  0.00  0.00    +0.144 C 
ENDROOT
BRANCH  10  12
ATOM     12  C14 UNL     1       4.547  -0.209   0.522  0.00  0.00    +0.034 A 
ATOM     13  C15 UNL     1       4.974  -0.106   1.875  0.00  0.00    +0.027 A 
ATOM     14  C16 UNL     1       6.213   0.478   2.197  0.00  0.00    +0.051 A 
ATOM     15  C17 UNL     1       7.001   0.946   1.153  0.00  0.00    +0.166 A 
ATOM     16  C18 UNL     1       6.607   0.853  -0.140  0.00  0.00    +0.168 A 
ATOM     17  C19 UNL     1       5.391   0.283  -0.503  0.00  0.00    +0.072 A 
ATOM     18  O4  UNL     1       7.580   1.396  -0.958  0.00  0.00    -0.453 OA
ATOM     19  C20 UNL     1       8.652   1.858  -0.124  0.00  0.00    +0.466 C 
ATOM     20  O5  UNL     1       8.241   1.552   1.216  0.00  0.00    -0.453 OA
ENDBRANCH  10  12
BRANCH   1  23
ATOM     21  C5  UNL     1      -4.319   0.118  -0.441  0.00  0.00    +0.405 C 
ATOM     22  O2  UNL     1      -4.195   0.646   0.697  0.00  0.00    -0.226 OA
ATOM     23  N1  UNL     1      -3.163  -0.322  -1.166  0.00  0.00    -0.251 N 
ATOM     24  H10 UNL     1      -3.280  -0.498  -2.189  0.00  0.00    +0.158 HD
BRANCH  21  25
ATOM     25  O1  UNL     1      -5.581  -0.011  -1.041  0.00  0.00    -0.444 OA
BRANCH  25  27
ATOM     26  C1  UNL     1      -6.870   1.898  -0.210  0.00  0.00    +0.055 C 
ATOM     27  C2  UNL     1      -6.839   0.379  -0.469  0.00  0.00    +0.107 C 
ATOM     28  C3  UNL     1      -7.931   0.028  -1.491  0.00  0.00    +0.055 C 
ATOM     29  C4  UNL     1      -7.108  -0.399   0.833  0.00  0.00    +0.055 C 
ENDBRANCH  25  27
ENDBRANCH  21  25
ENDBRANCH   1  23
TORSDOF 4
