REMARK  Name = /home/qwerty/github/datacon2025hack/step_04_hit_selection/docking/ligands/lig_607.pdb
REMARK  2 active torsions:
REMARK  status: ('A' for Active; 'I' for Inactive)
REMARK    1  A    between atoms: C4_6  and  C5_7
REMARK    2  A    between atoms: N4_15  and  C11_16
REMARK                            x       y       z     vdW  Elec       q    Type
REMARK                         _______ _______ _______ _____ _____    ______ ____
ROOT
ATOM      1  O1  UNL     1      -0.050  -0.057   0.930  0.00  0.00    -0.252 OA
ATOM      2  C1  UNL     1       0.532  -0.464  -0.112  0.00  0.00    +0.309 C 
ATOM      3  N1  UNL     1      -0.192  -0.589  -1.346  0.00  0.00    -0.253 N 
ATOM      4  C2  UNL     1      -1.616  -0.459  -1.467  0.00  0.00    +0.148 A 
ATOM      5  C3  UNL     1      -2.554  -0.623  -0.461  0.00  0.00    +0.068 A 
ATOM      6  C4  UNL     1      -3.761  -0.426  -1.103  0.00  0.00    +0.041 A 
ATOM      7  N2  UNL     1      -3.530  -0.161  -2.405  0.00  0.00    -0.280 N 
ATOM      8  N3  UNL     1      -2.228  -0.191  -2.637  0.00  0.00    -0.158 NA
ATOM      9  N4  UNL     1       1.943  -0.728  -0.093  0.00  0.00    -0.269 N 
ATOM     10  H1  UNL     1       0.356  -0.717  -2.226  0.00  0.00    +0.158 HD
ATOM     11  H14 UNL     1      -4.247   0.038  -3.136  0.00  0.00    +0.189 HD
ATOM     12  H15 UNL     1       2.424  -0.850  -1.012  0.00  0.00    +0.156 HD
ENDROOT
BRANCH   9  13
ATOM     13  C11 UNL     1       2.748  -0.716   1.099  0.00  0.00    +0.040 A 
ATOM     14  C12 UNL     1       2.262  -1.210   2.329  0.00  0.00    +0.024 A 
ATOM     15  C13 UNL     1       3.078  -1.197   3.476  0.00  0.00    +0.002 A 
ATOM     16  C14 UNL     1       4.389  -0.704   3.409  0.00  0.00    +0.005 A 
ATOM     17  C15 UNL     1       4.864  -0.241   2.183  0.00  0.00    -0.024 A 
ATOM     18  C16 UNL     1       4.072  -0.253   1.056  0.00  0.00    -0.004 A 
ATOM     19  C17 UNL     1       4.810   0.312  -0.104  0.00  0.00    +0.144 C 
ATOM     20  N5  UNL     1       6.112   0.653   0.466  0.00  0.00    -0.301 N 
ATOM     21  C18 UNL     1       7.172   1.253  -0.289  0.00  0.00    +0.161 A 
ATOM     22  N6  UNL     1       7.056   1.587  -1.592  0.00  0.00    -0.233 NA
ATOM     23  C19 UNL     1       8.198   2.148  -2.070  0.00  0.00    +0.120 A 
ATOM     24  C20 UNL     1       9.230   2.267  -1.145  0.00  0.00    +0.068 A 
ATOM     25  S1  UNL     1       8.690   1.647   0.323  0.00  0.00    -0.061 S 
ATOM     26  C21 UNL     1       6.203   0.326   1.888  0.00  0.00    +0.142 C 
ENDBRANCH   9  13
BRANCH   6  27
ATOM     27  C5  UNL     1      -5.121  -0.457  -0.453  0.00  0.00    +0.037 C 
ATOM     28  C6  UNL     1      -6.026  -1.518  -1.125  0.00  0.00    +0.010 C 
ATOM     29  C7  UNL     1      -7.501  -1.257  -0.809  0.00  0.00    +0.001 C 
ATOM     30  C8  UNL     1      -7.971   0.108  -1.354  0.00  0.00    +0.000 C 
ATOM     31  C9  UNL     1      -6.835   1.141  -1.498  0.00  0.00    +0.001 C 
ATOM     32  C10 UNL     1      -5.759   0.958  -0.421  0.00  0.00    +0.010 C 
ENDBRANCH   6  27
TORSDOF 2
