REMARK  Name = /home/qwerty/github/datacon2025hack/step_04_hit_selection/docking/ligands/lig_669.pdb
REMARK  5 active torsions:
REMARK  status: ('A' for Active; 'I' for Inactive)
REMARK    1  A    between atoms: C1_1  and  C2_2
REMARK    2  A    between atoms: C5_5  and  C6_6
REMARK    3  A    between atoms: C12_15  and  C13_17
REMARK    4  A    between atoms: C15_20  and  O3_21
REMARK    5  A    between atoms: N4_22  and  C16_23
REMARK                            x       y       z     vdW  Elec       q    Type
REMARK                         _______ _______ _______ _____ _____    ______ ____
ROOT
ATOM      1  C6  UNL     1      -3.522  -0.825   0.760  0.00  0.00    +0.282 C 
ATOM      2  O1  UNL     1      -4.393  -1.395   1.472  0.00  0.00    -0.267 OA
ATOM      3  N1  UNL     1      -2.256  -1.477   0.534  0.00  0.00    -0.293 N 
ATOM      4  C7  UNL     1      -2.233  -2.943   0.424  0.00  0.00    +0.108 C 
ATOM      5  C8  UNL     1      -0.843  -3.456   0.041  0.00  0.00    +0.024 C 
ATOM      6  C9  UNL     1       0.214  -2.868   0.991  0.00  0.00    +0.014 C 
ATOM      7  C10 UNL     1       1.639  -3.238   0.553  0.00  0.00    +0.024 C 
ATOM      8  C11 UNL     1       2.262  -1.966  -0.006  0.00  0.00    +0.109 C 
ATOM      9  N2  UNL     1       1.421  -0.872   0.452  0.00  0.00    -0.291 N 
ATOM     10  C12 UNL     1       1.876   0.492   0.532  0.00  0.00    +0.265 C 
ATOM     11  O2  UNL     1       1.362   1.270   1.380  0.00  0.00    -0.268 OA
ATOM     12  C17 UNL     1       0.173  -1.326   1.052  0.00  0.00    +0.097 C 
ATOM     13  C18 UNL     1      -1.028  -0.698   0.313  0.00  0.00    +0.131 C 
ENDROOT
BRANCH   1  18
ATOM     14  C1  UNL     1      -3.170   3.137  -2.134  0.00  0.00    +0.086 C 
ATOM     15  C2  UNL     1      -3.693   2.199  -1.099  0.00  0.00    +0.103 A 
ATOM     16  C3  UNL     1      -4.854   2.368  -0.371  0.00  0.00    +0.045 A 
ATOM     17  C4  UNL     1      -4.951   1.255   0.438  0.00  0.00    +0.055 A 
ATOM     18  C5  UNL     1      -3.843   0.479   0.148  0.00  0.00    +0.190 A 
ATOM     19  O4  UNL     1      -3.117   1.065  -0.777  0.00  0.00    -0.455 OA
ENDBRANCH   1  18
BRANCH  10  20
ATOM     20  C13 UNL     1       2.923   1.009  -0.374  0.00  0.00    +0.126 A 
ATOM     21  C14 UNL     1       3.052   0.702  -1.714  0.00  0.00    +0.147 A 
ATOM     22  N3  UNL     1       4.047   1.436  -2.251  0.00  0.00    -0.203 NA
ATOM     23  C15 UNL     1       4.503   2.176  -1.220  0.00  0.00    +0.296 A 
ATOM     24  N4  UNL     1       3.853   1.935  -0.060  0.00  0.00    -0.293 N 
ATOM     25  C16 UNL     1       4.071   2.587   1.232  0.00  0.00    +0.154 C 
BRANCH  23  26
ATOM     26  O3  UNL     1       5.532   3.104  -1.368  0.00  0.00    -0.480 OA
ATOM     27  H16 UNL     1       5.843   3.688  -0.603  0.00  0.00    +0.295 HD
ENDBRANCH  23  26
ENDBRANCH  10  20
TORSDOF 3
