REMARK  Name = /home/qwerty/github/datacon2025hack/step_04_hit_selection/docking/ligands/lig_591.pdb
REMARK  6 active torsions:
REMARK  status: ('A' for Active; 'I' for Inactive)
REMARK    1  A    between atoms: C1_1  and  C2_2
REMARK    2  A    between atoms: C4_4  and  C5_5
REMARK    3  A    between atoms: C8_10  and  N2_11
REMARK    4  A    between atoms: N4_17  and  C12_18
REMARK    5  A    between atoms: C12_18  and  C13_19
REMARK    6  A    between atoms: C12_18  and  C14_20
REMARK                            x       y       z     vdW  Elec       q    Type
REMARK                         _______ _______ _______ _____ _____    ______ ____
ROOT
ATOM      1  C5  UNL     1      -3.761   1.811   0.346  0.00  0.00    +0.267 C 
ATOM      2  O1  UNL     1      -3.619   3.028   0.051  0.00  0.00    -0.268 OA
ATOM      3  N1  UNL     1      -2.596   0.974   0.483  0.00  0.00    -0.296 N 
ATOM      4  C6  UNL     1      -1.381   1.550   1.078  0.00  0.00    +0.110 C 
ATOM      5  C7  UNL     1      -0.238   0.530   1.128  0.00  0.00    +0.041 C 
ATOM      6  C8  UNL     1      -0.057  -0.130  -0.251  0.00  0.00    +0.081 C 
ATOM      7  C17 UNL     1      -1.369  -0.740  -0.813  0.00  0.00    +0.041 C 
ATOM      8  C18 UNL     1      -2.611  -0.426   0.032  0.00  0.00    +0.110 C 
ENDROOT
BRANCH   6   9
ATOM      9  N2  UNL     1       1.011  -1.134  -0.213  0.00  0.00    -0.276 N 
ATOM     10  C9  UNL     1       1.064  -2.301   0.638  0.00  0.00    +0.303 C 
ATOM     11  O2  UNL     1       0.052  -2.796   1.201  0.00  0.00    -0.253 OA
ATOM     12  N3  UNL     1       2.382  -2.860   0.774  0.00  0.00    -0.293 N 
ATOM     13  C10 UNL     1       3.049  -2.180  -0.316  0.00  0.00    +0.110 C 
ATOM     14  C11 UNL     1       4.505  -1.811  -0.353  0.00  0.00    +0.109 C 
ATOM     15  N4  UNL     1       4.521  -0.685  -1.338  0.00  0.00    -0.296 NA
ATOM     16  C15 UNL     1       3.121  -0.175  -1.453  0.00  0.00    +0.109 C 
ATOM     17  C16 UNL     1       2.427  -0.829  -0.286  0.00  0.00    +0.113 C 
ATOM     18  H10 UNL     1       2.594  -3.825   1.113  0.00  0.00    +0.151 HD
BRANCH  15  19
ATOM     19  C12 UNL     1       5.542   0.368  -1.102  0.00  0.00    +0.051 C 
ATOM     20  C13 UNL     1       5.407   1.098   0.251  0.00  0.00    +0.024 C 
ATOM     21  C14 UNL     1       6.952  -0.211  -1.265  0.00  0.00    +0.024 C 
ENDBRANCH  15  19
ENDBRANCH   6   9
BRANCH   1  25
ATOM     22  C1  UNL     1      -8.754   1.201   0.379  0.00  0.00    +0.065 C 
ATOM     23  C2  UNL     1      -7.286   1.047   0.617  0.00  0.00    +0.034 A 
ATOM     24  C3  UNL     1      -6.300   1.915   0.198  0.00  0.00    +0.057 A 
ATOM     25  C4  UNL     1      -5.122   1.284   0.562  0.00  0.00    +0.147 A 
ATOM     26  N5  UNL     1      -5.398   0.109   1.164  0.00  0.00    -0.169 NA
ATOM     27  N6  UNL     1      -6.714  -0.027   1.190  0.00  0.00    -0.281 N 
ATOM     28  H28 UNL     1      -7.212  -0.858   1.578  0.00  0.00    +0.189 HD
ENDBRANCH   1  25
TORSDOF 3
