REMARK  Name = /home/qwerty/github/datacon2025hack/step_04_hit_selection/docking/ligands/lig_772.pdb
REMARK  7 active torsions:
REMARK  status: ('A' for Active; 'I' for Inactive)
REMARK    1  A    between atoms: C1_1  and  C2_2
REMARK    2  A    between atoms: C2_2  and  C3_3
REMARK    3  A    between atoms: C2_2  and  N4_22
REMARK    4  A    between atoms: C3_3  and  C4_4
REMARK    5  A    between atoms: N1_6  and  C5_7
REMARK    6  A    between atoms: C9_11  and  C10_12
REMARK    7  A    between atoms: N2_14  and  C11_15
REMARK                            x       y       z     vdW  Elec       q    Type
REMARK                         _______ _______ _______ _____ _____    ______ ____
ROOT
ATOM      1  C4  UNL     1       1.721   1.648   0.190  0.00  0.00    +0.219 C 
ATOM      2  O1  UNL     1       2.201   1.687  -0.975  0.00  0.00    -0.275 OA
ATOM      3  N1  UNL     1       0.299   1.681   0.398  0.00  0.00    -0.285 N 
ATOM      4  H7  UNL     1      -0.057   1.459   1.356  0.00  0.00    +0.155 HD
ENDROOT
BRANCH   3   5
ATOM      5  C5  UNL     1      -0.665   1.825  -0.658  0.00  0.00    +0.034 A 
ATOM      6  C6  UNL     1      -0.444   2.698  -1.736  0.00  0.00    +0.023 A 
ATOM      7  C7  UNL     1      -1.408   2.838  -2.736  0.00  0.00    +0.003 A 
ATOM      8  C8  UNL     1      -2.602   2.117  -2.668  0.00  0.00    +0.013 A 
ATOM      9  C9  UNL     1      -2.849   1.248  -1.591  0.00  0.00    +0.039 A 
ATOM     10  C16 UNL     1      -1.877   1.122  -0.581  0.00  0.00    +0.036 A 
BRANCH   9  11
ATOM     11  C10 UNL     1      -4.127   0.498  -1.514  0.00  0.00    +0.249 C 
ATOM     12  O2  UNL     1      -5.104   0.861  -2.226  0.00  0.00    -0.270 OA
ATOM     13  N2  UNL     1      -4.248  -0.666  -0.680  0.00  0.00    -0.266 N 
ATOM     14  H11 UNL     1      -3.394  -1.242  -0.509  0.00  0.00    +0.157 HD
BRANCH  13  15
ATOM     15  C11 UNL     1      -5.500  -1.182  -0.199  0.00  0.00    +0.125 A 
ATOM     16  C12 UNL     1      -6.602  -0.340   0.039  0.00  0.00    +0.044 A 
ATOM     17  C13 UNL     1      -7.789  -0.886   0.532  0.00  0.00    +0.005 A 
ATOM     18  C14 UNL     1      -7.868  -2.254   0.798  0.00  0.00    +0.020 A 
ATOM     19  C15 UNL     1      -6.750  -3.058   0.572  0.00  0.00    +0.113 A 
ATOM     20  N3  UNL     1      -5.602  -2.510   0.089  0.00  0.00    -0.240 NA
ENDBRANCH  13  15
ENDBRANCH   9  11
ENDBRANCH   3   5
BRANCH   1  21
ATOM     21  C3  UNL     1       2.650   1.504   1.363  0.00  0.00    +0.121 C 
BRANCH  21  23
ATOM     22  C1  UNL     1       1.800  -0.783   2.145  0.00  0.00    +0.031 C 
ATOM     23  C2  UNL     1       3.011   0.037   1.676  0.00  0.00    +0.094 C 
BRANCH  23  24
ATOM     24  N4  UNL     1       3.691  -0.596   0.535  0.00  0.00    -0.327 N 
ATOM     25  C17 UNL     1       3.129  -1.237  -0.525  0.00  0.00    +0.108 A 
ATOM     26  C18 UNL     1       4.108  -1.605  -1.442  0.00  0.00    +0.068 A 
ATOM     27 CL1  UNL     1       3.854  -2.427  -2.969  0.00  0.00    -0.081 Cl
ATOM     28  C19 UNL     1       5.302  -1.158  -0.922  0.00  0.00    +0.037 A 
ATOM     29  C20 UNL     1       6.606  -1.212  -1.404  0.00  0.00    +0.014 A 
ATOM     30  C21 UNL     1       7.609  -0.619  -0.618  0.00  0.00    +0.020 A 
ATOM     31  C22 UNL     1       7.268   0.005   0.604  0.00  0.00    +0.113 A 
ATOM     32  N5  UNL     1       5.970   0.034   1.031  0.00  0.00    -0.237 NA
ATOM     33  C23 UNL     1       5.011  -0.550   0.267  0.00  0.00    +0.142 A 
ENDBRANCH  23  24
ENDBRANCH  21  23
ENDBRANCH   1  21
TORSDOF 6
