REMARK  Name = /home/qwerty/github/datacon2025hack/step_04_hit_selection/docking/ligands/lig_741.pdb
REMARK  6 active torsions:
REMARK  status: ('A' for Active; 'I' for Inactive)
REMARK    1  A    between atoms: C1_1  and  C2_2
REMARK    2  A    between atoms: C2_2  and  C3_3
REMARK    3  A    between atoms: C2_2  and  N3_16
REMARK    4  A    between atoms: C3_3  and  N1_4
REMARK    5  A    between atoms: C4_5  and  C5_7
REMARK    6  A    between atoms: C12_17  and  C13_19
REMARK                            x       y       z     vdW  Elec       q    Type
REMARK                         _______ _______ _______ _____ _____    ______ ____
ROOT
ATOM      1  N1  UNL     1      -0.063   0.519  -2.535  0.00  0.00    -0.308 N 
ATOM      2  C4  UNL     1      -0.781  -0.610  -2.015  0.00  0.00    +0.260 C 
ATOM      3  O1  UNL     1      -0.814  -1.687  -2.668  0.00  0.00    -0.269 OA
ATOM      4  H7  UNL     1      -0.256   1.473  -2.160  0.00  0.00    +0.149 HD
ENDROOT
BRANCH   2   5
ATOM      5  C5  UNL     1      -1.443  -0.545  -0.698  0.00  0.00    +0.102 A 
ATOM      6  C6  UNL     1      -1.501   0.569   0.137  0.00  0.00    +0.038 A 
ATOM      7  C7  UNL     1      -2.112   0.123   1.288  0.00  0.00    -0.001 A 
ATOM      8  C8  UNL     1      -2.428  -1.190   1.107  0.00  0.00    +0.024 A 
ATOM      9  N2  UNL     1      -2.009  -1.617  -0.096  0.00  0.00    -0.354 N 
ATOM     10  C9  UNL     1      -3.035  -2.016   2.192  0.00  0.00    +0.081 C 
ATOM     11  C10 UNL     1      -3.579  -1.075   3.290  0.00  0.00    +0.166 C 
ATOM     12  O2  UNL     1      -2.634  -0.061   3.622  0.00  0.00    -0.375 OA
ATOM     13  C11 UNL     1      -2.470   0.855   2.543  0.00  0.00    +0.196 C 
ATOM     14  H9  UNL     1      -2.078  -2.590  -0.470  0.00  0.00    +0.166 HD
ENDBRANCH   2   5
BRANCH   1  15
ATOM     15  C3  UNL     1       1.009   0.378  -3.521  0.00  0.00    +0.126 C 
BRANCH  15  17
ATOM     16  C1  UNL     1       3.384  -0.400  -3.900  0.00  0.00    +0.029 C 
ATOM     17  C2  UNL     1       2.191  -0.422  -2.942  0.00  0.00    +0.087 C 
BRANCH  17  18
ATOM     18  N3  UNL     1       2.587   0.131  -1.643  0.00  0.00    -0.307 N 
ATOM     19  C12 UNL     1       2.181  -0.479  -0.406  0.00  0.00    +0.247 C 
ATOM     20  O3  UNL     1       2.037  -1.731  -0.353  0.00  0.00    -0.270 OA
ATOM     21  H16 UNL     1       3.036   1.074  -1.628  0.00  0.00    +0.149 HD
BRANCH  19  22
ATOM     22  C13 UNL     1       1.914   0.334   0.806  0.00  0.00    +0.073 A 
ATOM     23  C14 UNL     1       1.741   1.727   0.744  0.00  0.00    +0.127 A 
ATOM     24  N4  UNL     1       1.461   2.431   1.871  0.00  0.00    -0.243 NA
ATOM     25  C15 UNL     1       1.341   1.812   3.072  0.00  0.00    +0.221 A 
ATOM     26  N5  UNL     1       1.489   0.466   3.160  0.00  0.00    -0.243 NA
ATOM     27  C16 UNL     1       1.767  -0.280   2.060  0.00  0.00    +0.127 A 
ENDBRANCH  19  22
ENDBRANCH  17  18
ENDBRANCH  15  17
ENDBRANCH   1  15
TORSDOF 5
