MODEL 1
REMARK VINA RESULT:    -6.839      0.000      0.000
REMARK INTER + INTRA:          -8.763
REMARK INTER:                  -8.238
REMARK INTRA:                  -0.524
REMARK UNBOUND:                -0.524
REMARK  Name = /home/qwerty/github/datacon2025hack/step_04_hit_selection/docking/ligands/lig_581.pdb
REMARK  4 active torsions:
REMARK  status: ('A' for Active; 'I' for Inactive)
REMARK    1  A    between atoms: C1_2  and  O2_3
REMARK    2  A    between atoms: C1_2  and  C2_4
REMARK    3  A    between atoms: C6_9  and  S1_10
REMARK    4  A    between atoms: S1_10  and  N1_13
REMARK                            x       y       z     vdW  Elec       q    Type
REMARK                         _______ _______ _______ _____ _____    ______ ____
ROOT
ATOM      1  S1  UNL     1      19.566   2.183  26.247  0.00  0.00    +0.062 S 
ATOM      2  O3  UNL     1      20.514   1.771  25.154  0.00  0.00    -0.153 OA
ATOM      3  O4  UNL     1      19.611   3.683  26.319  0.00  0.00    -0.153 OA
ENDROOT
BRANCH   1   4
ATOM      4  N1  UNL     1      17.949   1.680  25.801  0.00  0.00    -0.173 NA
ATOM      5  C7  UNL     1      17.679   0.236  25.967  0.00  0.00    +0.128 C 
ATOM      6  C8  UNL     1      18.076  -0.600  24.745  0.00  0.00    +0.126 C 
ATOM      7  N2  UNL     1      17.607   0.058  23.538  0.00  0.00    -0.288 N 
ATOM      8  C9  UNL     1      16.609  -0.417  22.640  0.00  0.00    +0.248 C 
ATOM      9  O5  UNL     1      16.154  -1.592  22.632  0.00  0.00    -0.270 OA
ATOM     10  C10 UNL     1      16.203   0.655  21.766  0.00  0.00    +0.042 A 
ATOM     11  C11 UNL     1      15.287   0.671  20.716  0.00  0.00    +0.013 A 
ATOM     12  C12 UNL     1      15.100   1.878  20.023  0.00  0.00    +0.001 A 
ATOM     13  C13 UNL     1      15.828   3.030  20.388  0.00  0.00    +0.000 A 
ATOM     14  C14 UNL     1      16.745   2.984  21.452  0.00  0.00    +0.006 A 
ATOM     15  C15 UNL     1      16.914   1.778  22.135  0.00  0.00    -0.014 A 
ATOM     16  C16 UNL     1      17.828   1.481  23.297  0.00  0.00    +0.123 C 
ATOM     17  C17 UNL     1      17.438   2.281  24.551  0.00  0.00    +0.136 C 
ENDBRANCH   1   4
BRANCH   1  23
ATOM     18  C2  UNL     1      21.915   0.276  28.954  0.00  0.00    +0.061 A 
ATOM     19  C3  UNL     1      21.175   0.371  30.141  0.00  0.00    +0.016 A 
ATOM     20  C4  UNL     1      19.941   1.024  30.153  0.00  0.00    +0.023 A 
ATOM     21  C5  UNL     1      19.420   1.586  28.983  0.00  0.00    +0.067 A 
ATOM     22 CL1  UNL     1      17.855   2.386  29.097  0.00  0.00    -0.082 Cl
ATOM     23  C6  UNL     1      20.143   1.483  27.772  0.00  0.00    +0.124 A 
ATOM     24  C18 UNL     1      21.395   0.844  27.779  0.00  0.00    +0.045 A 
BRANCH  18  26
ATOM     25  O1  UNL     1      24.295   0.239  29.021  0.00  0.00    -0.245 OA
ATOM     26  C1  UNL     1      23.221  -0.418  28.943  0.00  0.00    +0.337 C 
BRANCH  26  27
ATOM     27  O2  UNL     1      23.278  -1.807  28.845  0.00  0.00    -0.477 OA
ATOM     28  H1  UNL     1      23.683  -2.255  28.032  0.00  0.00    +0.295 HD
ENDBRANCH  26  27
ENDBRANCH  18  26
ENDBRANCH   1  23
TORSDOF 4
ENDMDL
MODEL 2
REMARK VINA RESULT:    -6.805     15.091     16.139
REMARK INTER + INTRA:          -8.722
REMARK INTER:                  -8.221
REMARK INTRA:                  -0.501
REMARK UNBOUND:                -0.524
REMARK  Name = /home/qwerty/github/datacon2025hack/step_04_hit_selection/docking/ligands/lig_581.pdb
REMARK  4 active torsions:
REMARK  status: ('A' for Active; 'I' for Inactive)
REMARK    1  A    between atoms: C1_2  and  O2_3
REMARK    2  A    between atoms: C1_2  and  C2_4
REMARK    3  A    between atoms: C6_9  and  S1_10
REMARK    4  A    between atoms: S1_10  and  N1_13
REMARK                            x       y       z     vdW  Elec       q    Type
REMARK                         _______ _______ _______ _____ _____    ______ ____
ROOT
ATOM      1  S1  UNL     1      12.173  12.966  34.096  0.00  0.00    +0.062 S 
ATOM      2  O3  UNL     1      11.338  14.216  34.150  0.00  0.00    -0.153 OA
ATOM      3  O4  UNL     1      11.334  11.857  34.664  0.00  0.00    -0.153 OA
ENDROOT
BRANCH   1   4
ATOM      4  N1  UNL     1      12.533  12.609  32.420  0.00  0.00    -0.173 NA
ATOM      5  C7  UNL     1      13.385  13.609  31.740  0.00  0.00    +0.128 C 
ATOM      6  C8  UNL     1      12.589  14.769  31.129  0.00  0.00    +0.126 C 
ATOM      7  N2  UNL     1      11.438  14.242  30.418  0.00  0.00    -0.288 N 
ATOM      8  C9  UNL     1      11.206  14.291  29.014  0.00  0.00    +0.248 C 
ATOM      9  O5  UNL     1      11.854  15.009  28.207  0.00  0.00    -0.270 OA
ATOM     10  C10 UNL     1      10.136  13.387  28.674  0.00  0.00    +0.042 A 
ATOM     11  C11 UNL     1       9.538  13.111  27.445  0.00  0.00    +0.013 A 
ATOM     12  C12 UNL     1       8.492  12.175  27.418  0.00  0.00    +0.001 A 
ATOM     13  C13 UNL     1       8.068  11.544  28.605  0.00  0.00    +0.000 A 
ATOM     14  C14 UNL     1       8.690  11.841  29.830  0.00  0.00    +0.006 A 
ATOM     15  C15 UNL     1       9.734  12.770  29.839  0.00  0.00    -0.014 A 
ATOM     16  C16 UNL     1      10.548  13.249  31.014  0.00  0.00    +0.123 C 
ATOM     17  C17 UNL     1      11.384  12.116  31.632  0.00  0.00    +0.136 C 
ENDBRANCH   1   4
BRANCH   1  23
ATOM     18  C2  UNL     1      14.950  14.767  36.447  0.00  0.00    +0.061 A 
ATOM     19  C3  UNL     1      15.839  13.726  36.745  0.00  0.00    +0.016 A 
ATOM     20  C4  UNL     1      15.616  12.442  36.244  0.00  0.00    +0.023 A 
ATOM     21  C5  UNL     1      14.509  12.176  35.431  0.00  0.00    +0.067 A 
ATOM     22 CL1  UNL     1      14.315  10.527  34.844  0.00  0.00    -0.082 Cl
ATOM     23  C6  UNL     1      13.612  13.219  35.103  0.00  0.00    +0.124 A 
ATOM     24  C18 UNL     1      13.835  14.501  35.634  0.00  0.00    +0.045 A 
BRANCH  18  26
ATOM     25  O1  UNL     1      14.568  17.118  36.503  0.00  0.00    -0.245 OA
ATOM     26  C1  UNL     1      15.189  16.128  36.977  0.00  0.00    +0.337 C 
BRANCH  26  27
ATOM     27  O2  UNL     1      16.104  16.328  38.009  0.00  0.00    -0.477 OA
ATOM     28  H1  UNL     1      16.141  17.209  38.507  0.00  0.00    +0.295 HD
ENDBRANCH  26  27
ENDBRANCH  18  26
ENDBRANCH   1  23
TORSDOF 4
ENDMDL
MODEL 3
REMARK VINA RESULT:    -6.757      6.422      9.906
REMARK INTER + INTRA:          -8.664
REMARK INTER:                  -8.273
REMARK INTRA:                  -0.391
REMARK UNBOUND:                -0.524
REMARK  Name = /home/qwerty/github/datacon2025hack/step_04_hit_selection/docking/ligands/lig_581.pdb
REMARK  4 active torsions:
REMARK  status: ('A' for Active; 'I' for Inactive)
REMARK    1  A    between atoms: C1_2  and  O2_3
REMARK    2  A    between atoms: C1_2  and  C2_4
REMARK    3  A    between atoms: C6_9  and  S1_10
REMARK    4  A    between atoms: S1_10  and  N1_13
REMARK                            x       y       z     vdW  Elec       q    Type
REMARK                         _______ _______ _______ _____ _____    ______ ____
ROOT
ATOM      1  S1  UNL     1      19.520   1.288  32.103  0.00  0.00    +0.062 S 
ATOM      2  O3  UNL     1      19.246  -0.176  32.312  0.00  0.00    -0.153 OA
ATOM      3  O4  UNL     1      18.194   1.947  31.850  0.00  0.00    -0.153 OA
ENDROOT
BRANCH   1   4
ATOM      4  N1  UNL     1      20.212   1.941  33.572  0.00  0.00    -0.173 NA
ATOM      5  C7  UNL     1      19.230   2.482  34.536  0.00  0.00    +0.128 C 
ATOM      6  C8  UNL     1      18.867   3.949  34.275  0.00  0.00    +0.126 C 
ATOM      7  N2  UNL     1      20.080   4.707  34.023  0.00  0.00    -0.288 N 
ATOM      8  C9  UNL     1      20.627   5.737  34.840  0.00  0.00    +0.248 C 
ATOM      9  O5  UNL     1      20.013   6.306  35.781  0.00  0.00    -0.270 OA
ATOM     10  C10 UNL     1      21.982   6.005  34.427  0.00  0.00    +0.042 A 
ATOM     11  C11 UNL     1      22.907   6.936  34.899  0.00  0.00    +0.013 A 
ATOM     12  C12 UNL     1      24.170   6.978  34.287  0.00  0.00    +0.001 A 
ATOM     13  C13 UNL     1      24.478   6.102  33.226  0.00  0.00    +0.000 A 
ATOM     14  C14 UNL     1      23.526   5.172  32.771  0.00  0.00    +0.006 A 
ATOM     15  C15 UNL     1      22.277   5.139  33.395  0.00  0.00    -0.014 A 
ATOM     16  C16 UNL     1      21.103   4.243  33.090  0.00  0.00    +0.123 C 
ATOM     17  C17 UNL     1      21.422   2.765  33.372  0.00  0.00    +0.136 C 
ENDBRANCH   1   4
BRANCH   1  23
ATOM     18  C2  UNL     1      22.315   0.481  29.270  0.00  0.00    +0.061 A 
ATOM     19  C3  UNL     1      22.242   1.596  28.424  0.00  0.00    +0.016 A 
ATOM     20  C4  UNL     1      21.336   2.625  28.688  0.00  0.00    +0.023 A 
ATOM     21  C5  UNL     1      20.492   2.564  29.802  0.00  0.00    +0.067 A 
ATOM     22 CL1  UNL     1      19.385   3.910  30.053  0.00  0.00    -0.082 Cl
ATOM     23  C6  UNL     1      20.565   1.456  30.678  0.00  0.00    +0.124 A 
ATOM     24  C18 UNL     1      21.465   0.416  30.387  0.00  0.00    +0.045 A 
BRANCH  18  26
ATOM     25  O1  UNL     1      24.519  -0.385  29.018  0.00  0.00    -0.245 OA
ATOM     26  C1  UNL     1      23.278  -0.607  28.990  0.00  0.00    +0.337 C 
BRANCH  26  27
ATOM     27  O2  UNL     1      22.821  -1.889  28.693  0.00  0.00    -0.477 OA
ATOM     28  H1  UNL     1      23.441  -2.688  28.748  0.00  0.00    +0.295 HD
ENDBRANCH  26  27
ENDBRANCH  18  26
ENDBRANCH   1  23
TORSDOF 4
ENDMDL
MODEL 4
REMARK VINA RESULT:    -6.752      6.298     10.733
REMARK INTER + INTRA:          -8.658
REMARK INTER:                  -8.111
REMARK INTRA:                  -0.548
REMARK UNBOUND:                -0.524
REMARK  Name = /home/qwerty/github/datacon2025hack/step_04_hit_selection/docking/ligands/lig_581.pdb
REMARK  4 active torsions:
REMARK  status: ('A' for Active; 'I' for Inactive)
REMARK    1  A    between atoms: C1_2  and  O2_3
REMARK    2  A    between atoms: C1_2  and  C2_4
REMARK    3  A    between atoms: C6_9  and  S1_10
REMARK    4  A    between atoms: S1_10  and  N1_13
REMARK                            x       y       z     vdW  Elec       q    Type
REMARK                         _______ _______ _______ _____ _____    ______ ____
ROOT
ATOM      1  S1  UNL     1      20.513   3.295  31.412  0.00  0.00    +0.062 S 
ATOM      2  O3  UNL     1      20.928   2.393  32.541  0.00  0.00    -0.153 OA
ATOM      3  O4  UNL     1      19.040   3.084  31.204  0.00  0.00    -0.153 OA
ENDROOT
BRANCH   1   4
ATOM      4  N1  UNL     1      20.790   4.956  31.893  0.00  0.00    -0.173 NA
ATOM      5  C7  UNL     1      22.198   5.402  31.806  0.00  0.00    +0.128 C 
ATOM      6  C8  UNL     1      23.012   5.094  33.067  0.00  0.00    +0.126 C 
ATOM      7  N2  UNL     1      22.240   5.464  34.241  0.00  0.00    -0.288 N 
ATOM      8  C9  UNL     1      22.543   6.501  35.169  0.00  0.00    +0.248 C 
ATOM      9  O5  UNL     1      23.651   7.096  35.241  0.00  0.00    -0.270 OA
ATOM     10  C10 UNL     1      21.385   6.762  35.988  0.00  0.00    +0.042 A 
ATOM     11  C11 UNL     1      21.203   7.656  37.042  0.00  0.00    +0.013 A 
ATOM     12  C12 UNL     1      19.949   7.685  37.672  0.00  0.00    +0.001 A 
ATOM     13  C13 UNL     1      18.915   6.827  37.242  0.00  0.00    +0.000 A 
ATOM     14  C14 UNL     1      19.127   5.936  36.175  0.00  0.00    +0.006 A 
ATOM     15  C15 UNL     1      20.379   5.924  35.556  0.00  0.00    -0.014 A 
ATOM     16  C16 UNL     1      20.844   5.068  34.406  0.00  0.00    +0.123 C 
ATOM     17  C17 UNL     1      20.068   5.374  33.113  0.00  0.00    +0.136 C 
ENDBRANCH   1   4
BRANCH   1  23
ATOM     18  C2  UNL     1      22.949   1.218  28.915  0.00  0.00    +0.061 A 
ATOM     19  C3  UNL     1      22.842   1.921  27.707  0.00  0.00    +0.016 A 
ATOM     20  C4  UNL     1      22.021   3.046  27.616  0.00  0.00    +0.023 A 
ATOM     21  C5  UNL     1      21.299   3.494  28.727  0.00  0.00    +0.067 A 
ATOM     22 CL1  UNL     1      20.293   4.924  28.514  0.00  0.00    -0.082 Cl
ATOM     23  C6  UNL     1      21.409   2.808  29.958  0.00  0.00    +0.124 A 
ATOM     24  C18 UNL     1      22.219   1.663  30.030  0.00  0.00    +0.045 A 
BRANCH  18  26
ATOM     25  O1  UNL     1      23.333  -1.133  28.912  0.00  0.00    -0.245 OA
ATOM     26  C1  UNL     1      23.821   0.026  29.010  0.00  0.00    +0.337 C 
BRANCH  26  27
ATOM     27  O2  UNL     1      25.191   0.173  29.210  0.00  0.00    -0.477 OA
ATOM     28  H1  UNL     1      25.807  -0.631  29.205  0.00  0.00    +0.295 HD
ENDBRANCH  26  27
ENDBRANCH  18  26
ENDBRANCH   1  23
TORSDOF 4
ENDMDL
MODEL 5
REMARK VINA RESULT:    -6.669     11.641     14.792
REMARK INTER + INTRA:          -8.558
REMARK INTER:                  -8.020
REMARK INTRA:                  -0.538
REMARK UNBOUND:                -0.524
REMARK  Name = /home/qwerty/github/datacon2025hack/step_04_hit_selection/docking/ligands/lig_581.pdb
REMARK  4 active torsions:
REMARK  status: ('A' for Active; 'I' for Inactive)
REMARK    1  A    between atoms: C1_2  and  O2_3
REMARK    2  A    between atoms: C1_2  and  C2_4
REMARK    3  A    between atoms: C6_9  and  S1_10
REMARK    4  A    between atoms: S1_10  and  N1_13
REMARK                            x       y       z     vdW  Elec       q    Type
REMARK                         _______ _______ _______ _____ _____    ______ ____
ROOT
ATOM      1  S1  UNL     1       9.269   8.668  23.438  0.00  0.00    +0.062 S 
ATOM      2  O3  UNL     1       8.037   9.497  23.201  0.00  0.00    -0.153 OA
ATOM      3  O4  UNL     1      10.424   9.424  22.844  0.00  0.00    -0.153 OA
ENDROOT
BRANCH   1   4
ATOM      4  N1  UNL     1       9.514   8.516  25.166  0.00  0.00    -0.173 NA
ATOM      5  C7  UNL     1       8.506   7.691  25.866  0.00  0.00    +0.128 C 
ATOM      6  C8  UNL     1       7.266   8.482  26.298  0.00  0.00    +0.126 C 
ATOM      7  N2  UNL     1       7.683   9.733  26.909  0.00  0.00    -0.288 N 
ATOM      8  C9  UNL     1       7.515  10.115  28.270  0.00  0.00    +0.248 C 
ATOM      9  O5  UNL     1       6.769   9.522  29.093  0.00  0.00    -0.270 OA
ATOM     10  C10 UNL     1       8.339  11.265  28.548  0.00  0.00    +0.042 A 
ATOM     11  C11 UNL     1       8.491  12.010  29.717  0.00  0.00    +0.013 A 
ATOM     12  C12 UNL     1       9.371  13.104  29.690  0.00  0.00    +0.001 A 
ATOM     13  C13 UNL     1      10.070  13.428  28.510  0.00  0.00    +0.000 A 
ATOM     14  C14 UNL     1       9.897  12.659  27.346  0.00  0.00    +0.006 A 
ATOM     15  C15 UNL     1       9.023  11.571  27.391  0.00  0.00    -0.014 A 
ATOM     16  C16 UNL     1       8.675  10.606  26.286  0.00  0.00    +0.123 C 
ATOM     17  C17 UNL     1       9.890   9.771  25.849  0.00  0.00    +0.136 C 
ENDBRANCH   1   4
BRANCH   1  23
ATOM     18  C2  UNL     1       7.707   5.748  21.090  0.00  0.00    +0.061 A 
ATOM     19  C3  UNL     1       8.648   4.715  21.197  0.00  0.00    +0.016 A 
ATOM     20  C4  UNL     1       9.790   4.879  21.983  0.00  0.00    +0.023 A 
ATOM     21  C5  UNL     1      10.009   6.071  22.682  0.00  0.00    +0.067 A 
ATOM     22 CL1  UNL     1      11.476   6.182  23.650  0.00  0.00    -0.082 Cl
ATOM     23  C6  UNL     1       9.061   7.117  22.601  0.00  0.00    +0.124 A 
ATOM     24  C18 UNL     1       7.929   6.948  21.787  0.00  0.00    +0.045 A 
BRANCH  18  26
ATOM     25  O1  UNL     1       5.489   6.310  20.429  0.00  0.00    -0.245 OA
ATOM     26  C1  UNL     1       6.497   5.572  20.257  0.00  0.00    +0.337 C 
BRANCH  26  27
ATOM     27  O2  UNL     1       6.459   4.587  19.273  0.00  0.00    -0.477 OA
ATOM     28  H1  UNL     1       6.649   3.618  19.498  0.00  0.00    +0.295 HD
ENDBRANCH  26  27
ENDBRANCH  18  26
ENDBRANCH   1  23
TORSDOF 4
ENDMDL
MODEL 6
REMARK VINA RESULT:    -6.634      6.869     11.257
REMARK INTER + INTRA:          -8.516
REMARK INTER:                  -8.002
REMARK INTRA:                  -0.514
REMARK UNBOUND:                -0.524
REMARK  Name = /home/qwerty/github/datacon2025hack/step_04_hit_selection/docking/ligands/lig_581.pdb
REMARK  4 active torsions:
REMARK  status: ('A' for Active; 'I' for Inactive)
REMARK    1  A    between atoms: C1_2  and  O2_3
REMARK    2  A    between atoms: C1_2  and  C2_4
REMARK    3  A    between atoms: C6_9  and  S1_10
REMARK    4  A    between atoms: S1_10  and  N1_13
REMARK                            x       y       z     vdW  Elec       q    Type
REMARK                         _______ _______ _______ _____ _____    ______ ____
ROOT
ATOM      1  S1  UNL     1      10.278   3.474  22.973  0.00  0.00    +0.062 S 
ATOM      2  O3  UNL     1       9.740   2.255  22.275  0.00  0.00    -0.153 OA
ATOM      3  O4  UNL     1       9.980   3.305  24.436  0.00  0.00    -0.153 OA
ENDROOT
BRANCH   1   4
ATOM      4  N1  UNL     1      12.013   3.527  22.745  0.00  0.00    -0.173 NA
ATOM      5  C7  UNL     1      12.451   3.961  21.401  0.00  0.00    +0.128 C 
ATOM      6  C8  UNL     1      12.539   2.812  20.390  0.00  0.00    +0.126 C 
ATOM      7  N2  UNL     1      13.210   1.679  21.005  0.00  0.00    -0.288 N 
ATOM      8  C9  UNL     1      14.477   1.139  20.643  0.00  0.00    +0.248 C 
ATOM      9  O5  UNL     1      15.095   1.416  19.581  0.00  0.00    -0.270 OA
ATOM     10  C10 UNL     1      14.933   0.251  21.683  0.00  0.00    +0.042 A 
ATOM     11  C11 UNL     1      16.087  -0.526  21.770  0.00  0.00    +0.013 A 
ATOM     12  C12 UNL     1      16.263  -1.316  22.918  0.00  0.00    +0.001 A 
ATOM     13  C13 UNL     1      15.293  -1.315  23.940  0.00  0.00    +0.000 A 
ATOM     14  C14 UNL     1      14.138  -0.521  23.825  0.00  0.00    +0.006 A 
ATOM     15  C15 UNL     1      13.981   0.264  22.681  0.00  0.00    -0.014 A 
ATOM     16  C16 UNL     1      12.843   1.189  22.330  0.00  0.00    +0.123 C 
ATOM     17  C17 UNL     1      12.745   2.373  23.307  0.00  0.00    +0.136 C 
ENDBRANCH   1   4
BRANCH   1  23
ATOM     18  C2  UNL     1       7.581   5.767  20.985  0.00  0.00    +0.061 A 
ATOM     19  C3  UNL     1       7.974   7.073  21.307  0.00  0.00    +0.016 A 
ATOM     20  C4  UNL     1       9.069   7.295  22.144  0.00  0.00    +0.023 A 
ATOM     21  C5  UNL     1       9.795   6.220  22.668  0.00  0.00    +0.067 A 
ATOM     22 CL1  UNL     1      11.162   6.599  23.711  0.00  0.00    -0.082 Cl
ATOM     23  C6  UNL     1       9.425   4.896  22.338  0.00  0.00    +0.124 A 
ATOM     24  C18 UNL     1       8.306   4.686  21.514  0.00  0.00    +0.045 A 
BRANCH  18  26
ATOM     25  O1  UNL     1       5.399   6.270  20.174  0.00  0.00    -0.245 OA
ATOM     26  C1  UNL     1       6.421   5.535  20.096  0.00  0.00    +0.337 C 
BRANCH  26  27
ATOM     27  O2  UNL     1       6.446   4.500  19.164  0.00  0.00    -0.477 OA
ATOM     28  H1  UNL     1       6.426   3.532  19.461  0.00  0.00    +0.295 HD
ENDBRANCH  26  27
ENDBRANCH  18  26
ENDBRANCH   1  23
TORSDOF 4
ENDMDL
MODEL 7
REMARK VINA RESULT:    -6.570     13.958     16.735
REMARK INTER + INTRA:          -8.439
REMARK INTER:                  -7.888
REMARK INTRA:                  -0.550
REMARK UNBOUND:                -0.524
REMARK  Name = /home/qwerty/github/datacon2025hack/step_04_hit_selection/docking/ligands/lig_581.pdb
REMARK  4 active torsions:
REMARK  status: ('A' for Active; 'I' for Inactive)
REMARK    1  A    between atoms: C1_2  and  O2_3
REMARK    2  A    between atoms: C1_2  and  C2_4
REMARK    3  A    between atoms: C6_9  and  S1_10
REMARK    4  A    between atoms: S1_10  and  N1_13
REMARK                            x       y       z     vdW  Elec       q    Type
REMARK                         _______ _______ _______ _____ _____    ______ ____
ROOT
ATOM      1  S1  UNL     1      13.340  10.393  35.417  0.00  0.00    +0.062 S 
ATOM      2  O3  UNL     1      14.062  10.266  34.104  0.00  0.00    -0.153 OA
ATOM      3  O4  UNL     1      12.547   9.131  35.602  0.00  0.00    -0.153 OA
ENDROOT
BRANCH   1   4
ATOM      4  N1  UNL     1      14.529  10.515  36.697  0.00  0.00    -0.173 NA
ATOM      5  C7  UNL     1      15.165  11.843  36.832  0.00  0.00    +0.128 C 
ATOM      6  C8  UNL     1      16.391  12.024  35.929  0.00  0.00    +0.126 C 
ATOM      7  N2  UNL     1      17.231  10.842  36.014  0.00  0.00    -0.288 N 
ATOM      8  C9  UNL     1      18.542  10.766  36.563  0.00  0.00    +0.248 C 
ATOM      9  O5  UNL     1      19.261  11.762  36.840  0.00  0.00    -0.270 OA
ATOM     10  C10 UNL     1      18.899   9.383  36.759  0.00  0.00    +0.042 A 
ATOM     11  C11 UNL     1      20.076   8.808  37.238  0.00  0.00    +0.013 A 
ATOM     12  C12 UNL     1      20.143   7.408  37.310  0.00  0.00    +0.001 A 
ATOM     13  C13 UNL     1      19.047   6.619  36.904  0.00  0.00    +0.000 A 
ATOM     14  C14 UNL     1      17.872   7.226  36.426  0.00  0.00    +0.006 A 
ATOM     15  C15 UNL     1      17.819   8.620  36.366  0.00  0.00    -0.014 A 
ATOM     16  C16 UNL     1      16.683   9.493  35.896  0.00  0.00    +0.123 C 
ATOM     17  C17 UNL     1      15.446   9.360  36.799  0.00  0.00    +0.136 C 
ENDBRANCH   1   4
BRANCH   1  23
ATOM     18  C2  UNL     1      11.392  13.651  33.974  0.00  0.00    +0.061 A 
ATOM     19  C3  UNL     1      10.532  13.998  35.024  0.00  0.00    +0.016 A 
ATOM     20  C4  UNL     1      10.515  13.248  36.201  0.00  0.00    +0.023 A 
ATOM     21  C5  UNL     1      11.360  12.144  36.355  0.00  0.00    +0.067 A 
ATOM     22 CL1  UNL     1      11.269  11.262  37.877  0.00  0.00    -0.082 Cl
ATOM     23  C6  UNL     1      12.249  11.790  35.314  0.00  0.00    +0.124 A 
ATOM     24  C18 UNL     1      12.238  12.539  34.125  0.00  0.00    +0.045 A 
BRANCH  18  26
ATOM     25  O1  UNL     1      11.098  13.920  31.626  0.00  0.00    -0.245 OA
ATOM     26  C1  UNL     1      11.410  14.448  32.728  0.00  0.00    +0.337 C 
BRANCH  26  27
ATOM     27  O2  UNL     1      11.772  15.793  32.760  0.00  0.00    -0.477 OA
ATOM     28  H1  UNL     1      12.069  16.272  31.919  0.00  0.00    +0.295 HD
ENDBRANCH  26  27
ENDBRANCH  18  26
ENDBRANCH   1  23
TORSDOF 4
ENDMDL
MODEL 8
REMARK VINA RESULT:    -6.568     13.032     15.681
REMARK INTER + INTRA:          -8.436
REMARK INTER:                  -8.030
REMARK INTRA:                  -0.407
REMARK UNBOUND:                -0.524
REMARK  Name = /home/qwerty/github/datacon2025hack/step_04_hit_selection/docking/ligands/lig_581.pdb
REMARK  4 active torsions:
REMARK  status: ('A' for Active; 'I' for Inactive)
REMARK    1  A    between atoms: C1_2  and  O2_3
REMARK    2  A    between atoms: C1_2  and  C2_4
REMARK    3  A    between atoms: C6_9  and  S1_10
REMARK    4  A    between atoms: S1_10  and  N1_13
REMARK                            x       y       z     vdW  Elec       q    Type
REMARK                         _______ _______ _______ _____ _____    ______ ____
ROOT
ATOM      1  S1  UNL     1      18.882  11.938  34.956  0.00  0.00    +0.062 S 
ATOM      2  O3  UNL     1      19.481  12.455  36.235  0.00  0.00    -0.153 OA
ATOM      3  O4  UNL     1      19.746  12.442  33.835  0.00  0.00    -0.153 OA
ENDROOT
BRANCH   1   4
ATOM      4  N1  UNL     1      18.939  10.188  34.980  0.00  0.00    -0.173 NA
ATOM      5  C7  UNL     1      18.446   9.567  36.228  0.00  0.00    +0.128 C 
ATOM      6  C8  UNL     1      19.527   9.433  37.308  0.00  0.00    +0.126 C 
ATOM      7  N2  UNL     1      20.744   8.913  36.709  0.00  0.00    -0.288 N 
ATOM      8  C9  UNL     1      21.348   7.649  36.965  0.00  0.00    +0.248 C 
ATOM      9  O5  UNL     1      21.045   6.893  37.925  0.00  0.00    -0.270 OA
ATOM     10  C10 UNL     1      22.336   7.378  35.951  0.00  0.00    +0.042 A 
ATOM     11  C11 UNL     1      23.199   6.294  35.792  0.00  0.00    +0.013 A 
ATOM     12  C12 UNL     1      24.077   6.306  34.696  0.00  0.00    +0.001 A 
ATOM     13  C13 UNL     1      24.076   7.389  33.793  0.00  0.00    +0.000 A 
ATOM     14  C14 UNL     1      23.194   8.469  33.978  0.00  0.00    +0.006 A 
ATOM     15  C15 UNL     1      22.323   8.439  35.070  0.00  0.00    -0.014 A 
ATOM     16  C16 UNL     1      21.297   9.466  35.475  0.00  0.00    +0.123 C 
ATOM     17  C17 UNL     1      20.179   9.603  34.428  0.00  0.00    +0.136 C 
ENDBRANCH   1   4
BRANCH   1  23
ATOM     18  C2  UNL     1      15.611  14.271  35.547  0.00  0.00    +0.061 A 
ATOM     19  C3  UNL     1      14.686  13.761  34.626  0.00  0.00    +0.016 A 
ATOM     20  C4  UNL     1      15.031  12.695  33.794  0.00  0.00    +0.023 A 
ATOM     21  C5  UNL     1      16.302  12.114  33.870  0.00  0.00    +0.067 A 
ATOM     22 CL1  UNL     1      16.643  10.771  32.782  0.00  0.00    -0.082 Cl
ATOM     23  C6  UNL     1      17.242  12.603  34.806  0.00  0.00    +0.124 A 
ATOM     24  C18 UNL     1      16.890  13.692  35.620  0.00  0.00    +0.045 A 
BRANCH  18  26
ATOM     25  O1  UNL     1      14.260  16.139  36.145  0.00  0.00    -0.245 OA
ATOM     26  C1  UNL     1      15.243  15.400  36.429  0.00  0.00    +0.337 C 
BRANCH  26  27
ATOM     27  O2  UNL     1      15.978  15.659  37.583  0.00  0.00    -0.477 OA
ATOM     28  H1  UNL     1      15.593  15.466  38.499  0.00  0.00    +0.295 HD
ENDBRANCH  26  27
ENDBRANCH  18  26
ENDBRANCH   1  23
TORSDOF 4
ENDMDL
MODEL 9
REMARK VINA RESULT:    -6.401      2.623      8.005
REMARK INTER + INTRA:          -8.235
REMARK INTER:                  -7.962
REMARK INTRA:                  -0.273
REMARK UNBOUND:                -0.524
REMARK  Name = /home/qwerty/github/datacon2025hack/step_04_hit_selection/docking/ligands/lig_581.pdb
REMARK  4 active torsions:
REMARK  status: ('A' for Active; 'I' for Inactive)
REMARK    1  A    between atoms: C1_2  and  O2_3
REMARK    2  A    between atoms: C1_2  and  C2_4
REMARK    3  A    between atoms: C6_9  and  S1_10
REMARK    4  A    between atoms: S1_10  and  N1_13
REMARK                            x       y       z     vdW  Elec       q    Type
REMARK                         _______ _______ _______ _____ _____    ______ ____
ROOT
ATOM      1  S1  UNL     1      16.137   0.873  25.556  0.00  0.00    +0.062 S 
ATOM      2  O3  UNL     1      16.300  -0.258  26.533  0.00  0.00    -0.153 OA
ATOM      3  O4  UNL     1      14.749   1.416  25.745  0.00  0.00    -0.153 OA
ENDROOT
BRANCH   1   4
ATOM      4  N1  UNL     1      17.299   2.123  25.951  0.00  0.00    -0.173 NA
ATOM      5  C7  UNL     1      18.114   2.597  24.812  0.00  0.00    +0.128 C 
ATOM      6  C8  UNL     1      19.376   1.757  24.578  0.00  0.00    +0.126 C 
ATOM      7  N2  UNL     1      20.036   1.514  25.849  0.00  0.00    -0.288 N 
ATOM      8  C9  UNL     1      21.309   2.005  26.256  0.00  0.00    +0.248 C 
ATOM      9  O5  UNL     1      22.155   2.527  25.483  0.00  0.00    -0.270 OA
ATOM     10  C10 UNL     1      21.459   1.821  27.678  0.00  0.00    +0.042 A 
ATOM     11  C11 UNL     1      22.529   2.114  28.522  0.00  0.00    +0.013 A 
ATOM     12  C12 UNL     1      22.394   1.810  29.887  0.00  0.00    +0.001 A 
ATOM     13  C13 UNL     1      21.207   1.225  30.373  0.00  0.00    +0.000 A 
ATOM     14  C14 UNL     1      20.143   0.941  29.498  0.00  0.00    +0.006 A 
ATOM     15  C15 UNL     1      20.291   1.255  28.145  0.00  0.00    -0.014 A 
ATOM     16  C16 UNL     1      19.304   1.049  27.024  0.00  0.00    +0.123 C 
ATOM     17  C17 UNL     1      18.038   1.902  27.211  0.00  0.00    +0.136 C 
ENDBRANCH   1   4
BRANCH   1  23
ATOM     18  C2  UNL     1      15.703   0.364  21.551  0.00  0.00    +0.061 A 
ATOM     19  C3  UNL     1      16.554  -0.714  21.273  0.00  0.00    +0.016 A 
ATOM     20  C4  UNL     1      17.290  -1.315  22.296  0.00  0.00    +0.023 A 
ATOM     21  C5  UNL     1      17.185  -0.858  23.614  0.00  0.00    +0.067 A 
ATOM     22 CL1  UNL     1      18.150  -1.681  24.835  0.00  0.00    -0.082 Cl
ATOM     23  C6  UNL     1      16.317   0.217  23.916  0.00  0.00    +0.124 A 
ATOM     24  C18 UNL     1      15.600   0.828  22.874  0.00  0.00    +0.045 A 
BRANCH  18  26
ATOM     25  O1  UNL     1      13.825   1.566  20.715  0.00  0.00    -0.245 OA
ATOM     26  C1  UNL     1      14.923   0.998  20.466  0.00  0.00    +0.337 C 
BRANCH  26  27
ATOM     27  O2  UNL     1      15.394   0.974  19.155  0.00  0.00    -0.477 OA
ATOM     28  H1  UNL     1      16.129   0.334  18.879  0.00  0.00    +0.295 HD
ENDBRANCH  26  27
ENDBRANCH  18  26
ENDBRANCH   1  23
TORSDOF 4
ENDMDL
