REMARK  Name = /home/qwerty/github/datacon2025hack/step_04_hit_selection/docking/ligands/lig_379.pdb
REMARK  4 active torsions:
REMARK  status: ('A' for Active; 'I' for Inactive)
REMARK    1  A    between atoms: C1_1  and  C2_2
REMARK    2  A    between atoms: C2_2  and  N1_3
REMARK    3  A    between atoms: C2_2  and  C15_20
REMARK    4  A    between atoms: C3_4  and  C4_6
REMARK                            x       y       z     vdW  Elec       q    Type
REMARK                         _______ _______ _______ _____ _____    ______ ____
ROOT
ATOM      1  C4  UNL     1      -0.071  -0.196  -0.502  0.00  0.00    +0.037 A 
ATOM      2  C5  UNL     1      -0.059   0.714  -1.595  0.00  0.00    +0.015 A 
ATOM      3  C6  UNL     1       1.143   1.299  -2.034  0.00  0.00    +0.027 A 
ATOM      4  C7  UNL     1       2.317   0.961  -1.369  0.00  0.00    +0.047 A 
ATOM      5  N2  UNL     1       3.556   1.438  -1.607  0.00  0.00    -0.350 N 
ATOM      6  C8  UNL     1       4.337   0.843  -0.678  0.00  0.00    +0.106 A 
ATOM      7  C9  UNL     1       3.616  -0.008   0.129  0.00  0.00    -0.008 A 
ATOM      8  C10 UNL     1       2.313   0.085  -0.308  0.00  0.00    +0.004 A 
ATOM      9  C11 UNL     1       1.141  -0.503   0.161  0.00  0.00    +0.023 A 
ATOM     10  C12 UNL     1       4.195  -0.680   1.341  0.00  0.00    +0.057 C 
ATOM     11  C13 UNL     1       5.719  -0.889   1.161  0.00  0.00    +0.109 C 
ATOM     12  N3  UNL     1       6.382   0.302   0.603  0.00  0.00    -0.310 N 
ATOM     13  C14 UNL     1       5.758   1.066  -0.438  0.00  0.00    +0.261 C 
ATOM     14  O2  UNL     1       6.410   1.919  -1.096  0.00  0.00    -0.269 OA
ATOM     15  H8  UNL     1       3.842   2.137  -2.328  0.00  0.00    +0.166 HD
ATOM     16  H14 UNL     1       7.362   0.523   0.890  0.00  0.00    +0.149 HD
ENDROOT
BRANCH   1  18
ATOM     17  N1  UNL     1      -2.464  -0.946  -0.913  0.00  0.00    -0.305 N 
ATOM     18  C3  UNL     1      -1.339  -0.799  -0.031  0.00  0.00    +0.245 C 
ATOM     19  O1  UNL     1      -1.428  -1.200   1.163  0.00  0.00    -0.270 OA
ATOM     20  H5  UNL     1      -2.320  -0.831  -1.942  0.00  0.00    +0.150 HD
BRANCH  17  22
ATOM     21  C1  UNL     1      -4.737  -1.641  -1.575  0.00  0.00    +0.033 C 
ATOM     22  C2  UNL     1      -3.797  -1.302  -0.414  0.00  0.00    +0.103 C 
BRANCH  22  23
ATOM     23  C15 UNL     1      -4.372  -0.168   0.407  0.00  0.00    +0.009 A 
ATOM     24  C16 UNL     1      -4.357   1.154  -0.062  0.00  0.00    +0.119 A 
ATOM     25  N4  UNL     1      -4.896   2.149   0.688  0.00  0.00    -0.243 NA
ATOM     26  C17 UNL     1      -5.460   1.887   1.895  0.00  0.00    +0.221 A 
ATOM     27  N5  UNL     1      -5.496   0.614   2.367  0.00  0.00    -0.243 NA
ATOM     28  C18 UNL     1      -4.970  -0.413   1.650  0.00  0.00    +0.119 A 
ENDBRANCH  22  23
ENDBRANCH  17  22
ENDBRANCH   1  18
TORSDOF 3
