MODEL 1
REMARK VINA RESULT:    -6.210      0.000      0.000
REMARK INTER + INTRA:          -8.103
REMARK INTER:                  -7.481
REMARK INTRA:                  -0.622
REMARK UNBOUND:                -0.622
REMARK  Name = /home/qwerty/github/datacon2025hack/step_04_hit_selection/docking/ligands/lig_633.pdb
REMARK  4 active torsions:
REMARK  status: ('A' for Active; 'I' for Inactive)
REMARK    1  A    between atoms: C1_2  and  O2_3
REMARK    2  A    between atoms: C1_2  and  C2_4
REMARK    3  A    between atoms: C5_7  and  N1_8
REMARK    4  A    between atoms: C6_9  and  C7_11
REMARK                            x       y       z     vdW  Elec       q    Type
REMARK                         _______ _______ _______ _____ _____    ______ ____
ROOT
ATOM      1  N1  UNL     1       8.004  10.057  25.045  0.00  0.00    -0.281 N 
ATOM      2  C6  UNL     1       8.035   8.960  25.972  0.00  0.00    +0.252 C 
ATOM      3  O3  UNL     1       8.242   7.790  25.550  0.00  0.00    -0.270 OA
ATOM      4  H4  UNL     1       7.384  10.868  25.269  0.00  0.00    +0.155 HD
ENDROOT
BRANCH   2   5
ATOM      5  C7  UNL     1       7.768   9.176  27.413  0.00  0.00    +0.082 A 
ATOM      6  C8  UNL     1       7.411   8.098  28.256  0.00  0.00    +0.017 A 
ATOM      7  C9  UNL     1       7.162   8.310  29.630  0.00  0.00    +0.005 A 
ATOM      8  C10 UNL     1       7.276   9.597  30.182  0.00  0.00    +0.049 A 
ATOM      9  C11 UNL     1       7.641  10.637  29.333  0.00  0.00    +0.167 A 
ATOM     10  C12 UNL     1       7.879  10.440  28.009  0.00  0.00    +0.178 A 
ATOM     11  O4  UNL     1       8.245  11.645  27.435  0.00  0.00    -0.452 OA
ATOM     12  C13 UNL     1       8.223  12.655  28.453  0.00  0.00    +0.466 C 
ATOM     13  O5  UNL     1       7.833  11.968  29.649  0.00  0.00    -0.453 OA
ENDBRANCH   2   5
BRANCH   1  17
ATOM     14  C2  UNL     1       9.879  10.058  21.219  0.00  0.00    +0.059 A 
ATOM     15  C3  UNL     1       8.480  10.112  21.337  0.00  0.00    +0.017 A 
ATOM     16  C4  UNL     1       7.874  10.108  22.596  0.00  0.00    +0.024 A 
ATOM     17  C5  UNL     1       8.650  10.037  23.760  0.00  0.00    +0.034 A 
ATOM     18  C14 UNL     1      10.052  10.005  23.646  0.00  0.00    +0.024 A 
ATOM     19  C15 UNL     1      10.659  10.009  22.387  0.00  0.00    +0.017 A 
BRANCH  14  21
ATOM     20  O1  UNL     1      10.434  11.073  19.137  0.00  0.00    -0.245 OA
ATOM     21  C1  UNL     1      10.527  10.064  19.889  0.00  0.00    +0.337 C 
BRANCH  21  22
ATOM     22  O2  UNL     1      11.242   8.953  19.451  0.00  0.00    -0.477 OA
ATOM     23  H1  UNL     1      11.022   8.505  18.569  0.00  0.00    +0.295 HD
ENDBRANCH  21  22
ENDBRANCH  14  21
ENDBRANCH   1  17
TORSDOF 4
ENDMDL
MODEL 2
REMARK VINA RESULT:    -5.915      6.429     11.199
REMARK INTER + INTRA:          -7.747
REMARK INTER:                  -7.100
REMARK INTRA:                  -0.647
REMARK UNBOUND:                -0.622
REMARK  Name = /home/qwerty/github/datacon2025hack/step_04_hit_selection/docking/ligands/lig_633.pdb
REMARK  4 active torsions:
REMARK  status: ('A' for Active; 'I' for Inactive)
REMARK    1  A    between atoms: C1_2  and  O2_3
REMARK    2  A    between atoms: C1_2  and  C2_4
REMARK    3  A    between atoms: C5_7  and  N1_8
REMARK    4  A    between atoms: C6_9  and  C7_11
REMARK                            x       y       z     vdW  Elec       q    Type
REMARK                         _______ _______ _______ _____ _____    ______ ____
ROOT
ATOM      1  N1  UNL     1      11.360  13.805  32.338  0.00  0.00    -0.281 N 
ATOM      2  C6  UNL     1      12.558  13.920  31.555  0.00  0.00    +0.252 C 
ATOM      3  O3  UNL     1      13.684  13.814  32.114  0.00  0.00    -0.270 OA
ATOM      4  H4  UNL     1      10.522  14.350  32.030  0.00  0.00    +0.155 HD
ENDROOT
BRANCH   2   5
ATOM      5  C7  UNL     1      12.494  14.222  30.106  0.00  0.00    +0.082 A 
ATOM      6  C8  UNL     1      13.634  14.680  29.406  0.00  0.00    +0.017 A 
ATOM      7  C9  UNL     1      13.566  14.961  28.024  0.00  0.00    +0.005 A 
ATOM      8  C10 UNL     1      12.364  14.780  27.321  0.00  0.00    +0.049 A 
ATOM      9  C11 UNL     1      11.261  14.316  28.030  0.00  0.00    +0.167 A 
ATOM     10  C12 UNL     1      11.319  14.047  29.361  0.00  0.00    +0.178 A 
ATOM     11  O4  UNL     1      10.085  13.580  29.778  0.00  0.00    -0.452 OA
ATOM     12  C13 UNL     1       9.201  13.569  28.649  0.00  0.00    +0.466 C 
ATOM     13  O5  UNL     1       9.993  14.045  27.553  0.00  0.00    -0.453 OA
ENDBRANCH   2   5
BRANCH   1  17
ATOM     14  C2  UNL     1      11.211  11.713  36.047  0.00  0.00    +0.059 A 
ATOM     15  C3  UNL     1      11.311  11.018  34.830  0.00  0.00    +0.017 A 
ATOM     16  C4  UNL     1      11.357  11.713  33.618  0.00  0.00    +0.024 A 
ATOM     17  C5  UNL     1      11.289  13.112  33.596  0.00  0.00    +0.034 A 
ATOM     18  C14 UNL     1      11.210  13.811  34.814  0.00  0.00    +0.024 A 
ATOM     19  C15 UNL     1      11.166  13.118  36.026  0.00  0.00    +0.017 A 
BRANCH  14  21
ATOM     20  O1  UNL     1      10.639  11.513  38.350  0.00  0.00    -0.245 OA
ATOM     21  C1  UNL     1      11.165  10.984  37.333  0.00  0.00    +0.337 C 
BRANCH  21  22
ATOM     22  O2  UNL     1      11.704   9.704  37.434  0.00  0.00    -0.477 OA
ATOM     23  H1  UNL     1      12.373   9.477  38.160  0.00  0.00    +0.295 HD
ENDBRANCH  21  22
ENDBRANCH  14  21
ENDBRANCH   1  17
TORSDOF 4
ENDMDL
MODEL 3
REMARK VINA RESULT:    -5.661      5.220      7.852
REMARK INTER + INTRA:          -7.442
REMARK INTER:                  -6.877
REMARK INTRA:                  -0.565
REMARK UNBOUND:                -0.622
REMARK  Name = /home/qwerty/github/datacon2025hack/step_04_hit_selection/docking/ligands/lig_633.pdb
REMARK  4 active torsions:
REMARK  status: ('A' for Active; 'I' for Inactive)
REMARK    1  A    between atoms: C1_2  and  O2_3
REMARK    2  A    between atoms: C1_2  and  C2_4
REMARK    3  A    between atoms: C5_7  and  N1_8
REMARK    4  A    between atoms: C6_9  and  C7_11
REMARK                            x       y       z     vdW  Elec       q    Type
REMARK                         _______ _______ _______ _____ _____    ______ ____
ROOT
ATOM      1  N1  UNL     1      10.590   6.033  20.544  0.00  0.00    -0.281 N 
ATOM      2  C6  UNL     1      10.230   6.711  21.758  0.00  0.00    +0.252 C 
ATOM      3  O3  UNL     1      10.430   6.150  22.871  0.00  0.00    -0.270 OA
ATOM      4  H4  UNL     1      10.019   6.227  19.690  0.00  0.00    +0.155 HD
ENDROOT
BRANCH   2   5
ATOM      5  C7  UNL     1       9.571   8.037  21.722  0.00  0.00    +0.082 A 
ATOM      6  C8  UNL     1       8.547   8.366  22.640  0.00  0.00    +0.017 A 
ATOM      7  C9  UNL     1       7.926   9.634  22.602  0.00  0.00    +0.005 A 
ATOM      8  C10 UNL     1       8.326  10.592  21.657  0.00  0.00    +0.049 A 
ATOM      9  C11 UNL     1       9.345  10.249  20.775  0.00  0.00    +0.167 A 
ATOM     10  C12 UNL     1       9.944   9.028  20.803  0.00  0.00    +0.178 A 
ATOM     11  O4  UNL     1      10.930   8.990  19.833  0.00  0.00    -0.452 OA
ATOM     12  C13 UNL     1      10.940  10.251  19.150  0.00  0.00    +0.466 C 
ATOM     13  O5  UNL     1       9.914  11.025  19.784  0.00  0.00    -0.453 OA
ENDBRANCH   2   5
BRANCH   1  17
ATOM     14  C2  UNL     1      13.483   2.915  20.290  0.00  0.00    +0.059 A 
ATOM     15  C3  UNL     1      12.186   2.659  20.767  0.00  0.00    +0.017 A 
ATOM     16  C4  UNL     1      11.245   3.689  20.849  0.00  0.00    +0.024 A 
ATOM     17  C5  UNL     1      11.582   4.996  20.470  0.00  0.00    +0.034 A 
ATOM     18  C14 UNL     1      12.873   5.250  19.973  0.00  0.00    +0.024 A 
ATOM     19  C15 UNL     1      13.815   4.222  19.890  0.00  0.00    +0.017 A 
BRANCH  14  21
ATOM     20  O1  UNL     1      14.487   0.892  21.043  0.00  0.00    -0.245 OA
ATOM     21  C1  UNL     1      14.483   1.829  20.199  0.00  0.00    +0.337 C 
BRANCH  21  22
ATOM     22  O2  UNL     1      15.432   1.832  19.180  0.00  0.00    -0.477 OA
ATOM     23  H1  UNL     1      15.272   1.324  18.318  0.00  0.00    +0.295 HD
ENDBRANCH  21  22
ENDBRANCH  14  21
ENDBRANCH   1  17
TORSDOF 4
ENDMDL
MODEL 4
REMARK VINA RESULT:    -5.604     14.472     16.930
REMARK INTER + INTRA:          -7.373
REMARK INTER:                  -6.970
REMARK INTRA:                  -0.403
REMARK UNBOUND:                -0.622
REMARK  Name = /home/qwerty/github/datacon2025hack/step_04_hit_selection/docking/ligands/lig_633.pdb
REMARK  4 active torsions:
REMARK  status: ('A' for Active; 'I' for Inactive)
REMARK    1  A    between atoms: C1_2  and  O2_3
REMARK    2  A    between atoms: C1_2  and  C2_4
REMARK    3  A    between atoms: C5_7  and  N1_8
REMARK    4  A    between atoms: C6_9  and  C7_11
REMARK                            x       y       z     vdW  Elec       q    Type
REMARK                         _______ _______ _______ _____ _____    ______ ____
ROOT
ATOM      1  N1  UNL     1      19.458   9.629  37.498  0.00  0.00    -0.281 N 
ATOM      2  C6  UNL     1      19.836   8.622  36.545  0.00  0.00    +0.252 C 
ATOM      3  O3  UNL     1      19.027   8.282  35.640  0.00  0.00    -0.270 OA
ATOM      4  H4  UNL     1      19.856   9.562  38.463  0.00  0.00    +0.155 HD
ENDROOT
BRANCH   2   5
ATOM      5  C7  UNL     1      21.143   7.932  36.647  0.00  0.00    +0.082 A 
ATOM      6  C8  UNL     1      21.516   7.250  37.829  0.00  0.00    +0.017 A 
ATOM      7  C9  UNL     1      22.761   6.591  37.918  0.00  0.00    +0.005 A 
ATOM      8  C10 UNL     1      23.645   6.593  36.826  0.00  0.00    +0.049 A 
ATOM      9  C11 UNL     1      23.248   7.259  35.671  0.00  0.00    +0.167 A 
ATOM     10  C12 UNL     1      22.052   7.900  35.581  0.00  0.00    +0.178 A 
ATOM     11  O4  UNL     1      21.928   8.441  34.314  0.00  0.00    -0.452 OA
ATOM     12  C13 UNL     1      23.118   8.135  33.573  0.00  0.00    +0.466 C 
ATOM     13  O5  UNL     1      23.933   7.379  34.478  0.00  0.00    -0.453 OA
ENDBRANCH   2   5
BRANCH   1  17
ATOM     14  C2  UNL     1      16.463  12.587  36.838  0.00  0.00    +0.059 A 
ATOM     15  C3  UNL     1      16.180  11.425  37.576  0.00  0.00    +0.017 A 
ATOM     16  C4  UNL     1      17.169  10.459  37.785  0.00  0.00    +0.024 A 
ATOM     17  C5  UNL     1      18.453  10.627  37.251  0.00  0.00    +0.034 A 
ATOM     18  C14 UNL     1      18.745  11.799  36.530  0.00  0.00    +0.024 A 
ATOM     19  C15 UNL     1      17.758  12.766  36.321  0.00  0.00    +0.017 A 
BRANCH  14  21
ATOM     20  O1  UNL     1      15.555  14.471  35.701  0.00  0.00    -0.245 OA
ATOM     21  C1  UNL     1      15.422  13.614  36.616  0.00  0.00    +0.337 C 
BRANCH  21  22
ATOM     22  O2  UNL     1      14.284  13.645  37.417  0.00  0.00    -0.477 OA
ATOM     23  H1  UNL     1      14.090  14.439  38.016  0.00  0.00    +0.295 HD
ENDBRANCH  21  22
ENDBRANCH  14  21
ENDBRANCH   1  17
TORSDOF 4
ENDMDL
MODEL 5
REMARK VINA RESULT:    -5.593     14.719     16.919
REMARK INTER + INTRA:          -7.360
REMARK INTER:                  -6.721
REMARK INTRA:                  -0.639
REMARK UNBOUND:                -0.622
REMARK  Name = /home/qwerty/github/datacon2025hack/step_04_hit_selection/docking/ligands/lig_633.pdb
REMARK  4 active torsions:
REMARK  status: ('A' for Active; 'I' for Inactive)
REMARK    1  A    between atoms: C1_2  and  O2_3
REMARK    2  A    between atoms: C1_2  and  C2_4
REMARK    3  A    between atoms: C5_7  and  N1_8
REMARK    4  A    between atoms: C6_9  and  C7_11
REMARK                            x       y       z     vdW  Elec       q    Type
REMARK                         _______ _______ _______ _____ _____    ______ ____
ROOT
ATOM      1  N1  UNL     1      20.522   9.425  34.767  0.00  0.00    -0.281 N 
ATOM      2  C6  UNL     1      21.308   9.675  33.591  0.00  0.00    +0.252 C 
ATOM      3  O3  UNL     1      20.859  10.431  32.686  0.00  0.00    -0.270 OA
ATOM      4  H4  UNL     1      20.626   8.497  35.235  0.00  0.00    +0.155 HD
ENDROOT
BRANCH   2   5
ATOM      5  C7  UNL     1      22.617   9.009  33.397  0.00  0.00    +0.082 A 
ATOM      6  C8  UNL     1      23.557   9.509  32.466  0.00  0.00    +0.017 A 
ATOM      7  C9  UNL     1      24.804   8.872  32.290  0.00  0.00    +0.005 A 
ATOM      8  C10 UNL     1      25.135   7.736  33.047  0.00  0.00    +0.049 A 
ATOM      9  C11 UNL     1      24.199   7.273  33.966  0.00  0.00    +0.167 A 
ATOM     10  C12 UNL     1      22.994   7.880  34.138  0.00  0.00    +0.178 A 
ATOM     11  O4  UNL     1      22.295   7.216  35.130  0.00  0.00    -0.452 OA
ATOM     12  C13 UNL     1      23.101   6.125  35.596  0.00  0.00    +0.466 C 
ATOM     13  O5  UNL     1      24.308   6.199  34.827  0.00  0.00    -0.453 OA
ENDBRANCH   2   5
BRANCH   1  17
ATOM     14  C2  UNL     1      17.440  11.988  36.213  0.00  0.00    +0.059 A 
ATOM     15  C3  UNL     1      17.129  10.802  35.526  0.00  0.00    +0.017 A 
ATOM     16  C4  UNL     1      18.147   9.970  35.053  0.00  0.00    +0.024 A 
ATOM     17  C5  UNL     1      19.493  10.310  35.244  0.00  0.00    +0.034 A 
ATOM     18  C14 UNL     1      19.806  11.485  35.950  0.00  0.00    +0.024 A 
ATOM     19  C15 UNL     1      18.790  12.319  36.424  0.00  0.00    +0.017 A 
BRANCH  14  21
ATOM     20  O1  UNL     1      15.177  12.719  36.330  0.00  0.00    -0.245 OA
ATOM     21  C1  UNL     1      16.367  12.873  36.718  0.00  0.00    +0.337 C 
BRANCH  21  22
ATOM     22  O2  UNL     1      16.662  13.887  37.625  0.00  0.00    -0.477 OA
ATOM     23  H1  UNL     1      15.957  14.233  38.267  0.00  0.00    +0.295 HD
ENDBRANCH  21  22
ENDBRANCH  14  21
ENDBRANCH   1  17
TORSDOF 4
ENDMDL
MODEL 6
REMARK VINA RESULT:    -5.519     15.685     17.665
REMARK INTER + INTRA:          -7.270
REMARK INTER:                  -6.652
REMARK INTRA:                  -0.618
REMARK UNBOUND:                -0.622
REMARK  Name = /home/qwerty/github/datacon2025hack/step_04_hit_selection/docking/ligands/lig_633.pdb
REMARK  4 active torsions:
REMARK  status: ('A' for Active; 'I' for Inactive)
REMARK    1  A    between atoms: C1_2  and  O2_3
REMARK    2  A    between atoms: C1_2  and  C2_4
REMARK    3  A    between atoms: C5_7  and  N1_8
REMARK    4  A    between atoms: C6_9  and  C7_11
REMARK                            x       y       z     vdW  Elec       q    Type
REMARK                         _______ _______ _______ _____ _____    ______ ____
ROOT
ATOM      1  N1  UNL     1      22.100   3.745  31.543  0.00  0.00    -0.281 N 
ATOM      2  C6  UNL     1      21.378   4.212  30.392  0.00  0.00    +0.252 C 
ATOM      3  O3  UNL     1      20.562   5.166  30.509  0.00  0.00    -0.270 OA
ATOM      4  H4  UNL     1      22.357   2.732  31.580  0.00  0.00    +0.155 HD
ENDROOT
BRANCH   2   5
ATOM      5  C7  UNL     1      21.534   3.547  29.077  0.00  0.00    +0.082 A 
ATOM      6  C8  UNL     1      21.556   4.300  27.879  0.00  0.00    +0.017 A 
ATOM      7  C9  UNL     1      21.709   3.660  26.630  0.00  0.00    +0.005 A 
ATOM      8  C10 UNL     1      21.853   2.265  26.559  0.00  0.00    +0.049 A 
ATOM      9  C11 UNL     1      21.842   1.550  27.752  0.00  0.00    +0.167 A 
ATOM     10  C12 UNL     1      21.691   2.159  28.958  0.00  0.00    +0.178 A 
ATOM     11  O4  UNL     1      21.746   1.201  29.955  0.00  0.00    -0.452 OA
ATOM     12  C13 UNL     1      21.929  -0.081  29.339  0.00  0.00    +0.466 C 
ATOM     13  O5  UNL     1      21.986   0.188  27.932  0.00  0.00    -0.453 OA
ENDBRANCH   2   5
BRANCH   1  17
ATOM     14  C2  UNL     1      22.857   6.182  34.955  0.00  0.00    +0.059 A 
ATOM     15  C3  UNL     1      23.752   6.159  33.871  0.00  0.00    +0.017 A 
ATOM     16  C4  UNL     1      23.496   5.355  32.758  0.00  0.00    +0.024 A 
ATOM     17  C5  UNL     1      22.351   4.548  32.709  0.00  0.00    +0.034 A 
ATOM     18  C14 UNL     1      21.443   4.585  33.783  0.00  0.00    +0.024 A 
ATOM     19  C15 UNL     1      21.697   5.390  34.896  0.00  0.00    +0.017 A 
BRANCH  14  21
ATOM     20  O1  UNL     1      23.523   6.521  37.215  0.00  0.00    -0.245 OA
ATOM     21  C1  UNL     1      23.121   7.034  36.135  0.00  0.00    +0.337 C 
BRANCH  21  22
ATOM     22  O2  UNL     1      22.925   8.410  36.066  0.00  0.00    -0.477 OA
ATOM     23  H1  UNL     1      23.174   8.931  35.233  0.00  0.00    +0.295 HD
ENDBRANCH  21  22
ENDBRANCH  14  21
ENDBRANCH   1  17
TORSDOF 4
ENDMDL
MODEL 7
REMARK VINA RESULT:    -5.495     12.359     14.555
REMARK INTER + INTRA:          -7.242
REMARK INTER:                  -6.600
REMARK INTRA:                  -0.642
REMARK UNBOUND:                -0.622
REMARK  Name = /home/qwerty/github/datacon2025hack/step_04_hit_selection/docking/ligands/lig_633.pdb
REMARK  4 active torsions:
REMARK  status: ('A' for Active; 'I' for Inactive)
REMARK    1  A    between atoms: C1_2  and  O2_3
REMARK    2  A    between atoms: C1_2  and  C2_4
REMARK    3  A    between atoms: C5_7  and  N1_8
REMARK    4  A    between atoms: C6_9  and  C7_11
REMARK                            x       y       z     vdW  Elec       q    Type
REMARK                         _______ _______ _______ _____ _____    ______ ____
ROOT
ATOM      1  N1  UNL     1      15.642  10.927  36.759  0.00  0.00    -0.281 N 
ATOM      2  C6  UNL     1      15.389  12.341  36.748  0.00  0.00    +0.252 C 
ATOM      3  O3  UNL     1      16.274  13.139  37.160  0.00  0.00    -0.270 OA
ATOM      4  H4  UNL     1      14.829  10.286  36.904  0.00  0.00    +0.155 HD
ENDROOT
BRANCH   2   5
ATOM      5  C7  UNL     1      14.076  12.874  36.316  0.00  0.00    +0.082 A 
ATOM      6  C8  UNL     1      13.993  13.985  35.444  0.00  0.00    +0.017 A 
ATOM      7  C9  UNL     1      12.739  14.485  35.033  0.00  0.00    +0.005 A 
ATOM      8  C10 UNL     1      11.552  13.877  35.474  0.00  0.00    +0.049 A 
ATOM      9  C11 UNL     1      11.662  12.777  36.319  0.00  0.00    +0.167 A 
ATOM     10  C12 UNL     1      12.866  12.293  36.723  0.00  0.00    +0.178 A 
ATOM     11  O4  UNL     1      12.658  11.189  37.530  0.00  0.00    -0.452 OA
ATOM     12  C13 UNL     1      11.245  10.976  37.649  0.00  0.00    +0.466 C 
ATOM     13  O5  UNL     1      10.647  12.013  36.860  0.00  0.00    -0.453 OA
ENDBRANCH   2   5
BRANCH   1  17
ATOM     14  C2  UNL     1      19.519   9.158  36.735  0.00  0.00    +0.059 A 
ATOM     15  C3  UNL     1      18.759   9.215  37.916  0.00  0.00    +0.017 A 
ATOM     16  C4  UNL     1      17.489   9.800  37.914  0.00  0.00    +0.024 A 
ATOM     17  C5  UNL     1      16.959  10.350  36.740  0.00  0.00    +0.034 A 
ATOM     18  C14 UNL     1      17.709  10.275  35.552  0.00  0.00    +0.024 A 
ATOM     19  C15 UNL     1      18.978   9.690  35.552  0.00  0.00    +0.017 A 
BRANCH  14  21
ATOM     20  O1  UNL     1      21.338   8.053  35.668  0.00  0.00    -0.245 OA
ATOM     21  C1  UNL     1      20.862   8.538  36.730  0.00  0.00    +0.337 C 
BRANCH  21  22
ATOM     22  O2  UNL     1      21.614   8.482  37.900  0.00  0.00    -0.477 OA
ATOM     23  H1  UNL     1      22.611   8.660  37.888  0.00  0.00    +0.295 HD
ENDBRANCH  21  22
ENDBRANCH  14  21
ENDBRANCH   1  17
TORSDOF 4
ENDMDL
MODEL 8
REMARK VINA RESULT:    -5.411      6.009     10.231
REMARK INTER + INTRA:          -7.140
REMARK INTER:                  -6.516
REMARK INTRA:                  -0.624
REMARK UNBOUND:                -0.622
REMARK  Name = /home/qwerty/github/datacon2025hack/step_04_hit_selection/docking/ligands/lig_633.pdb
REMARK  4 active torsions:
REMARK  status: ('A' for Active; 'I' for Inactive)
REMARK    1  A    between atoms: C1_2  and  O2_3
REMARK    2  A    between atoms: C1_2  and  C2_4
REMARK    3  A    between atoms: C5_7  and  N1_8
REMARK    4  A    between atoms: C6_9  and  C7_11
REMARK                            x       y       z     vdW  Elec       q    Type
REMARK                         _______ _______ _______ _____ _____    ______ ____
ROOT
ATOM      1  N1  UNL     1      11.277  12.605  31.721  0.00  0.00    -0.281 N 
ATOM      2  C6  UNL     1      10.935  11.251  31.385  0.00  0.00    +0.252 C 
ATOM      3  O3  UNL     1      11.586  10.296  31.891  0.00  0.00    -0.270 OA
ATOM      4  H4  UNL     1      11.120  13.342  30.997  0.00  0.00    +0.155 HD
ENDROOT
BRANCH   2   5
ATOM      5  C7  UNL     1       9.864  10.960  30.403  0.00  0.00    +0.082 A 
ATOM      6  C8  UNL     1       9.161   9.733  30.436  0.00  0.00    +0.017 A 
ATOM      7  C9  UNL     1       8.139   9.464  29.500  0.00  0.00    +0.005 A 
ATOM      8  C10 UNL     1       7.797  10.418  28.527  0.00  0.00    +0.049 A 
ATOM      9  C11 UNL     1       8.494  11.622  28.526  0.00  0.00    +0.167 A 
ATOM     10  C12 UNL     1       9.482  11.885  29.421  0.00  0.00    +0.178 A 
ATOM     11  O4  UNL     1       9.968  13.160  29.191  0.00  0.00    -0.452 OA
ATOM     12  C13 UNL     1       9.254  13.721  28.081  0.00  0.00    +0.466 C 
ATOM     13  O5  UNL     1       8.323  12.706  27.688  0.00  0.00    -0.453 OA
ENDBRANCH   2   5
BRANCH   1  17
ATOM     14  C2  UNL     1      13.343  13.771  35.261  0.00  0.00    +0.059 A 
ATOM     15  C3  UNL     1      14.040  13.524  34.066  0.00  0.00    +0.017 A 
ATOM     16  C4  UNL     1      13.354  13.139  32.911  0.00  0.00    +0.024 A 
ATOM     17  C5  UNL     1      11.962  12.980  32.928  0.00  0.00    +0.034 A 
ATOM     18  C14 UNL     1      11.259  13.247  34.117  0.00  0.00    +0.024 A 
ATOM     19  C15 UNL     1      11.944  13.632  35.273  0.00  0.00    +0.017 A 
BRANCH  14  21
ATOM     20  O1  UNL     1      14.488  15.361  36.614  0.00  0.00    -0.245 OA
ATOM     21  C1  UNL     1      14.063  14.180  36.486  0.00  0.00    +0.337 C 
BRANCH  21  22
ATOM     22  O2  UNL     1      14.283  13.263  37.511  0.00  0.00    -0.477 OA
ATOM     23  H1  UNL     1      15.223  13.003  37.785  0.00  0.00    +0.295 HD
ENDBRANCH  21  22
ENDBRANCH  14  21
ENDBRANCH   1  17
TORSDOF 4
ENDMDL
MODEL 9
REMARK VINA RESULT:    -5.397      4.583      6.993
REMARK INTER + INTRA:          -7.124
REMARK INTER:                  -6.663
REMARK INTRA:                  -0.460
REMARK UNBOUND:                -0.622
REMARK  Name = /home/qwerty/github/datacon2025hack/step_04_hit_selection/docking/ligands/lig_633.pdb
REMARK  4 active torsions:
REMARK  status: ('A' for Active; 'I' for Inactive)
REMARK    1  A    between atoms: C1_2  and  O2_3
REMARK    2  A    between atoms: C1_2  and  C2_4
REMARK    3  A    between atoms: C5_7  and  N1_8
REMARK    4  A    between atoms: C6_9  and  C7_11
REMARK                            x       y       z     vdW  Elec       q    Type
REMARK                         _______ _______ _______ _____ _____    ______ ____
ROOT
ATOM      1  N1  UNL     1       6.793   7.980  28.339  0.00  0.00    -0.281 N 
ATOM      2  C6  UNL     1       7.522   6.832  28.800  0.00  0.00    +0.252 C 
ATOM      3  O3  UNL     1       8.784   6.858  28.818  0.00  0.00    -0.270 OA
ATOM      4  H4  UNL     1       5.873   7.817  27.869  0.00  0.00    +0.155 HD
ENDROOT
BRANCH   2   5
ATOM      5  C7  UNL     1       6.816   5.592  29.198  0.00  0.00    +0.082 A 
ATOM      6  C8  UNL     1       5.996   5.560  30.350  0.00  0.00    +0.017 A 
ATOM      7  C9  UNL     1       5.322   4.377  30.722  0.00  0.00    +0.005 A 
ATOM      8  C10 UNL     1       5.448   3.214  29.944  0.00  0.00    +0.049 A 
ATOM      9  C11 UNL     1       6.249   3.276  28.808  0.00  0.00    +0.167 A 
ATOM     10  C12 UNL     1       6.904   4.411  28.447  0.00  0.00    +0.178 A 
ATOM     11  O4  UNL     1       7.593   4.177  27.271  0.00  0.00    -0.452 OA
ATOM     12  C13 UNL     1       7.368   2.816  26.880  0.00  0.00    +0.466 C 
ATOM     13  O5  UNL     1       6.504   2.278  27.889  0.00  0.00    -0.453 OA
ENDBRANCH   2   5
BRANCH   1  17
ATOM     14  C2  UNL     1       8.393  11.928  28.420  0.00  0.00    +0.059 A 
ATOM     15  C3  UNL     1       7.852  11.345  29.578  0.00  0.00    +0.017 A 
ATOM     16  C4  UNL     1       7.327  10.050  29.541  0.00  0.00    +0.024 A 
ATOM     17  C5  UNL     1       7.319   9.318  28.346  0.00  0.00    +0.034 A 
ATOM     18  C14 UNL     1       7.879   9.892  27.190  0.00  0.00    +0.024 A 
ATOM     19  C15 UNL     1       8.405  11.186  27.226  0.00  0.00    +0.017 A 
BRANCH  14  21
ATOM     20  O1  UNL     1       9.590  13.702  29.463  0.00  0.00    -0.245 OA
ATOM     21  C1  UNL     1       8.952  13.297  28.453  0.00  0.00    +0.337 C 
BRANCH  21  22
ATOM     22  O2  UNL     1       8.776  14.155  27.370  0.00  0.00    -0.477 OA
ATOM     23  H1  UNL     1       9.273  14.004  26.501  0.00  0.00    +0.295 HD
ENDBRANCH  21  22
ENDBRANCH  14  21
ENDBRANCH   1  17
TORSDOF 4
ENDMDL
