REMARK  Name = /home/qwerty/github/datacon2025hack/step_04_hit_selection/docking/ligands/lig_390.pdb
REMARK  7 active torsions:
REMARK  status: ('A' for Active; 'I' for Inactive)
REMARK    1  A    between atoms: C1_1  and  C2_2
REMARK    2  A    between atoms: C2_2  and  N1_3
REMARK    3  A    between atoms: C2_2  and  C8_12
REMARK    4  A    between atoms: C3_4  and  C4_6
REMARK    5  A    between atoms: N3_9  and  C6_10
REMARK    6  A    between atoms: N4_16  and  C12_17
REMARK    7  A    between atoms: C12_17  and  C13_18
REMARK                            x       y       z     vdW  Elec       q    Type
REMARK                         _______ _______ _______ _____ _____    ______ ____
ROOT
ATOM      1  C8  UNL     1       0.840   0.396   0.395  0.00  0.00    +0.023 C 
ATOM      2  C9  UNL     1       1.353   0.920  -0.963  0.00  0.00    +0.008 C 
ATOM      3  C10 UNL     1       0.246   0.908  -2.014  0.00  0.00    +0.016 C 
ATOM      4  C11 UNL     1      -0.953   1.723  -1.523  0.00  0.00    +0.084 C 
ATOM      5  N4  UNL     1      -1.480   1.206  -0.245  0.00  0.00    -0.302 NA
ATOM      6  C20 UNL     1      -0.442   1.171   0.812  0.00  0.00    +0.089 C 
ENDROOT
BRANCH   1   8
ATOM      7  C1  UNL     1       1.520  -0.067   2.830  0.00  0.00    +0.028 C 
ATOM      8  C2  UNL     1       1.955   0.508   1.475  0.00  0.00    +0.074 C 
BRANCH   8   9
ATOM      9  N1  UNL     1       3.155  -0.212   1.032  0.00  0.00    -0.308 N 
ATOM     10  C3  UNL     1       4.389   0.446   0.698  0.00  0.00    +0.247 C 
ATOM     11  O1  UNL     1       4.490   1.697   0.819  0.00  0.00    -0.270 OA
ATOM     12  H5  UNL     1       3.077  -1.246   0.908  0.00  0.00    +0.149 HD
BRANCH  10  13
ATOM     13  C4  UNL     1       5.548  -0.319   0.204  0.00  0.00    +0.074 A 
ATOM     14  C5  UNL     1       5.655  -1.687   0.007  0.00  0.00    +0.147 A 
ATOM     15  N2  UNL     1       6.891  -1.974  -0.446  0.00  0.00    -0.179 NA
ATOM     16  N3  UNL     1       7.554  -0.834  -0.552  0.00  0.00    -0.274 N 
ATOM     17  C6  UNL     1       8.952  -0.740  -0.949  0.00  0.00    +0.172 C 
ATOM     18  C7  UNL     1       6.779   0.192  -0.155  0.00  0.00    +0.121 A 
ENDBRANCH  10  13
ENDBRANCH   8   9
ENDBRANCH   1   8
BRANCH   5  19
ATOM     19  C12 UNL     1      -2.221  -0.068  -0.389  0.00  0.00    +0.088 C 
BRANCH  19  20
ATOM     20  C13 UNL     1      -3.418  -0.090   0.577  0.00  0.00    +0.004 C 
ATOM     21  C14 UNL     1      -4.535   0.895   0.196  0.00  0.00    +0.011 C 
ATOM     22  C15 UNL     1      -5.456  -0.296  -0.029  0.00  0.00    -0.029 C 
ATOM     23  C16 UNL     1      -6.145  -0.447  -1.378  0.00  0.00    +0.007 C 
ATOM     24  C17 UNL     1      -7.487  -0.503  -0.644  0.00  0.00    +0.001 C 
ATOM     25  C18 UNL     1      -6.786  -0.350   0.708  0.00  0.00    +0.007 C 
ATOM     26  C19 UNL     1      -4.360  -1.283   0.351  0.00  0.00    +0.011 C 
ENDBRANCH  19  20
ENDBRANCH   5  19
TORSDOF 5
