MODEL 1
REMARK VINA RESULT:    -8.031      0.000      0.000
REMARK INTER + INTRA:         -11.495
REMARK INTER:                 -10.613
REMARK INTRA:                  -0.882
REMARK UNBOUND:                -0.882
REMARK  Name = /home/qwerty/github/datacon2025hack/step_04_hit_selection/docking/ligands/lig_71.pdb
REMARK  6 active torsions:
REMARK  status: ('A' for Active; 'I' for Inactive)
REMARK    1  A    between atoms: C1_2  and  O2_3
REMARK    2  A    between atoms: C1_2  and  C2_4
REMARK    3  A    between atoms: C5_7  and  C6_8
REMARK    4  A    between atoms: C9_11  and  C10_12
REMARK    5  A    between atoms: C13_15  and  C14_16
REMARK    6  A    between atoms: C17_21  and  C18_23
REMARK                            x       y       z     vdW  Elec       q    Type
REMARK                         _______ _______ _______ _____ _____    ______ ____
ROOT
ATOM      1  C10 UNL     1      21.204  13.725  29.652  0.00  0.00    +0.017 A 
ATOM      2  C11 UNL     1      20.201  12.742  29.591  0.00  0.00    +0.012 A 
ATOM      3  C12 UNL     1      19.143  12.749  30.505  0.00  0.00    +0.011 A 
ATOM      4  C13 UNL     1      19.066  13.732  31.505  0.00  0.00    +0.002 A 
ATOM      5  C25 UNL     1      20.063  14.723  31.557  0.00  0.00    +0.011 A 
ATOM      6  C26 UNL     1      21.121  14.716  30.643  0.00  0.00    +0.012 A 
ENDROOT
BRANCH   4   7
ATOM      7  C14 UNL     1      17.930  13.725  32.464  0.00  0.00    +0.089 A 
ATOM      8  C15 UNL     1      18.086  14.104  33.807  0.00  0.00    +0.141 A 
ATOM      9  N1  UNL     1      17.014  14.074  34.642  0.00  0.00    -0.236 NA
ATOM     10  C16 UNL     1      15.782  13.697  34.211  0.00  0.00    +0.143 A 
ATOM     11  N2  UNL     1      14.691  13.663  35.146  0.00  0.00    -0.265 N 
ATOM     12  C17 UNL     1      13.312  13.838  34.779  0.00  0.00    +0.250 C 
ATOM     13  O3  UNL     1      13.022  14.434  33.705  0.00  0.00    -0.270 OA
ATOM     14  C24 UNL     1      15.629  13.289  32.878  0.00  0.00    +0.155 A 
ATOM     15  N3  UNL     1      16.701  13.315  32.045  0.00  0.00    -0.250 NA
ATOM     16  H9  UNL     1      14.932  13.629  36.162  0.00  0.00    +0.157 HD
BRANCH  12  17
ATOM     17  C18 UNL     1      12.223  13.375  35.673  0.00  0.00    +0.043 A 
ATOM     18  C19 UNL     1      10.979  14.034  35.674  0.00  0.00    +0.054 A 
ATOM     19  C20 UNL     1       9.946  13.598  36.510  0.00  0.00    +0.162 A 
ATOM     20  F1  UNL     1       8.755  14.247  36.506  0.00  0.00    -0.202 F 
ATOM     21  C21 UNL     1      10.141  12.498  37.351  0.00  0.00    +0.193 A 
ATOM     22  F2  UNL     1       9.138  12.077  38.161  0.00  0.00    -0.199 F 
ATOM     23  C22 UNL     1      11.368  11.830  37.351  0.00  0.00    +0.162 A 
ATOM     24  F3  UNL     1      11.555  10.755  38.157  0.00  0.00    -0.202 F 
ATOM     25  C23 UNL     1      12.404  12.262  36.517  0.00  0.00    +0.054 A 
ENDBRANCH  12  17
ENDBRANCH   4   7
BRANCH   1  29
ATOM     26  C6  UNL     1      23.391  14.026  26.855  0.00  0.00    +0.136 A 
ATOM     27  C7  UNL     1      24.326  13.556  27.762  0.00  0.00    +0.050 A 
ATOM     28  C8  UNL     1      23.647  13.372  28.946  0.00  0.00    +0.050 A 
ATOM     29  C9  UNL     1      22.336  13.740  28.696  0.00  0.00    +0.136 A 
ATOM     30  O4  UNL     1      22.220  14.123  27.444  0.00  0.00    -0.455 OA
BRANCH  26  34
ATOM     31  C2  UNL     1      24.078  15.094  22.738  0.00  0.00    +0.059 A 
ATOM     32  C3  UNL     1      24.450  15.960  23.780  0.00  0.00    +0.015 A 
ATOM     33  C4  UNL     1      24.224  15.606  25.113  0.00  0.00    +0.012 A 
ATOM     34  C5  UNL     1      23.620  14.379  25.434  0.00  0.00    +0.017 A 
ATOM     35  C27 UNL     1      23.249  13.511  24.391  0.00  0.00    +0.012 A 
ATOM     36  C28 UNL     1      23.475  13.866  23.058  0.00  0.00    +0.015 A 
BRANCH  31  38
ATOM     37  O1  UNL     1      24.547  16.663  21.011  0.00  0.00    -0.245 OA
ATOM     38  C1  UNL     1      24.315  15.465  21.326  0.00  0.00    +0.337 C 
BRANCH  38  39
ATOM     39  O2  UNL     1      24.286  14.492  20.329  0.00  0.00    -0.477 OA
ATOM     40  H1  UNL     1      23.937  14.706  19.403  0.00  0.00    +0.295 HD
ENDBRANCH  38  39
ENDBRANCH  31  38
ENDBRANCH  26  34
ENDBRANCH   1  29
TORSDOF 6
ENDMDL
MODEL 2
REMARK VINA RESULT:    -7.693      0.976      2.093
REMARK INTER + INTRA:         -11.049
REMARK INTER:                 -10.132
REMARK INTRA:                  -0.917
REMARK UNBOUND:                -0.882
REMARK  Name = /home/qwerty/github/datacon2025hack/step_04_hit_selection/docking/ligands/lig_71.pdb
REMARK  6 active torsions:
REMARK  status: ('A' for Active; 'I' for Inactive)
REMARK    1  A    between atoms: C1_2  and  O2_3
REMARK    2  A    between atoms: C1_2  and  C2_4
REMARK    3  A    between atoms: C5_7  and  C6_8
REMARK    4  A    between atoms: C9_11  and  C10_12
REMARK    5  A    between atoms: C13_15  and  C14_16
REMARK    6  A    between atoms: C17_21  and  C18_23
REMARK                            x       y       z     vdW  Elec       q    Type
REMARK                         _______ _______ _______ _____ _____    ______ ____
ROOT
ATOM      1  C10 UNL     1      21.009  13.778  28.910  0.00  0.00    +0.017 A 
ATOM      2  C11 UNL     1      21.251  14.224  30.221  0.00  0.00    +0.012 A 
ATOM      3  C12 UNL     1      20.237  14.190  31.182  0.00  0.00    +0.011 A 
ATOM      4  C13 UNL     1      18.955  13.717  30.854  0.00  0.00    +0.002 A 
ATOM      5  C25 UNL     1      18.717  13.260  29.546  0.00  0.00    +0.011 A 
ATOM      6  C26 UNL     1      19.732  13.293  28.585  0.00  0.00    +0.012 A 
ENDROOT
BRANCH   4   7
ATOM      7  C14 UNL     1      17.891  13.684  31.892  0.00  0.00    +0.089 A 
ATOM      8  C15 UNL     1      18.164  13.932  33.248  0.00  0.00    +0.141 A 
ATOM      9  N1  UNL     1      17.153  13.885  34.155  0.00  0.00    -0.236 NA
ATOM     10  C16 UNL     1      15.873  13.616  33.788  0.00  0.00    +0.143 A 
ATOM     11  N2  UNL     1      14.851  13.556  34.796  0.00  0.00    -0.265 N 
ATOM     12  C17 UNL     1      13.463  13.839  34.551  0.00  0.00    +0.250 C 
ATOM     13  O3  UNL     1      13.135  14.544  33.557  0.00  0.00    -0.270 OA
ATOM     14  C24 UNL     1      15.603  13.338  32.439  0.00  0.00    +0.155 A 
ATOM     15  N3  UNL     1      16.612  13.381  31.533  0.00  0.00    -0.250 NA
ATOM     16  H9  UNL     1      15.160  13.418  35.784  0.00  0.00    +0.157 HD
BRANCH  12  17
ATOM     17  C18 UNL     1      12.413  13.356  35.481  0.00  0.00    +0.043 A 
ATOM     18  C19 UNL     1      12.655  12.239  36.304  0.00  0.00    +0.054 A 
ATOM     19  C20 UNL     1      11.672  11.782  37.186  0.00  0.00    +0.162 A 
ATOM     20  F1  UNL     1      11.915  10.700  37.967  0.00  0.00    -0.202 F 
ATOM     21  C21 UNL     1      10.439  12.438  37.264  0.00  0.00    +0.193 A 
ATOM     22  F2  UNL     1       9.487  11.994  38.121  0.00  0.00    -0.199 F 
ATOM     23  C22 UNL     1      10.192  13.554  36.460  0.00  0.00    +0.162 A 
ATOM     24  F3  UNL     1       9.001  14.198  36.542  0.00  0.00    -0.202 F 
ATOM     25  C23 UNL     1      11.172  14.014  35.574  0.00  0.00    +0.054 A 
ENDBRANCH  12  17
ENDBRANCH   4   7
BRANCH   1  29
ATOM     26  C6  UNL     1      22.954  13.781  25.924  0.00  0.00    +0.136 A 
ATOM     27  C7  UNL     1      24.004  13.888  26.820  0.00  0.00    +0.050 A 
ATOM     28  C8  UNL     1      23.433  13.903  28.074  0.00  0.00    +0.050 A 
ATOM     29  C9  UNL     1      22.067  13.804  27.873  0.00  0.00    +0.136 A 
ATOM     30  O4  UNL     1      21.818  13.733  26.584  0.00  0.00    -0.455 OA
BRANCH  26  34
ATOM     31  C2  UNL     1      23.158  13.601  21.624  0.00  0.00    +0.059 A 
ATOM     32  C3  UNL     1      22.000  13.196  22.309  0.00  0.00    +0.015 A 
ATOM     33  C4  UNL     1      21.942  13.258  23.704  0.00  0.00    +0.012 A 
ATOM     34  C5  UNL     1      23.040  13.725  24.445  0.00  0.00    +0.017 A 
ATOM     35  C27 UNL     1      24.199  14.131  23.760  0.00  0.00    +0.012 A 
ATOM     36  C28 UNL     1      24.257  14.069  22.365  0.00  0.00    +0.015 A 
BRANCH  31  38
ATOM     37  O1  UNL     1      22.249  13.093  19.484  0.00  0.00    -0.245 OA
ATOM     38  C1  UNL     1      23.225  13.536  20.148  0.00  0.00    +0.337 C 
BRANCH  38  39
ATOM     39  O2  UNL     1      24.367  13.966  19.477  0.00  0.00    -0.477 OA
ATOM     40  H1  UNL     1      24.302  14.407  18.567  0.00  0.00    +0.295 HD
ENDBRANCH  38  39
ENDBRANCH  31  38
ENDBRANCH  26  34
ENDBRANCH   1  29
TORSDOF 6
ENDMDL
MODEL 3
REMARK VINA RESULT:    -7.629     14.718     19.254
REMARK INTER + INTRA:         -10.963
REMARK INTER:                 -10.048
REMARK INTRA:                  -0.915
REMARK UNBOUND:                -0.882
REMARK  Name = /home/qwerty/github/datacon2025hack/step_04_hit_selection/docking/ligands/lig_71.pdb
REMARK  6 active torsions:
REMARK  status: ('A' for Active; 'I' for Inactive)
REMARK    1  A    between atoms: C1_2  and  O2_3
REMARK    2  A    between atoms: C1_2  and  C2_4
REMARK    3  A    between atoms: C5_7  and  C6_8
REMARK    4  A    between atoms: C9_11  and  C10_12
REMARK    5  A    between atoms: C13_15  and  C14_16
REMARK    6  A    between atoms: C17_21  and  C18_23
REMARK                            x       y       z     vdW  Elec       q    Type
REMARK                         _______ _______ _______ _____ _____    ______ ____
ROOT
ATOM      1  C10 UNL     1       9.177   0.606  29.166  0.00  0.00    +0.017 A 
ATOM      2  C11 UNL     1       8.769   0.274  27.862  0.00  0.00    +0.012 A 
ATOM      3  C12 UNL     1       8.654   1.263  26.881  0.00  0.00    +0.011 A 
ATOM      4  C13 UNL     1       8.934   2.607  27.181  0.00  0.00    +0.002 A 
ATOM      5  C25 UNL     1       9.353   2.935  28.483  0.00  0.00    +0.011 A 
ATOM      6  C26 UNL     1       9.470   1.946  29.463  0.00  0.00    +0.012 A 
ENDROOT
BRANCH   4   7
ATOM      7  C14 UNL     1       8.809   3.643  26.123  0.00  0.00    +0.089 A 
ATOM      8  C15 UNL     1       8.089   3.415  24.938  0.00  0.00    +0.141 A 
ATOM      9  N1  UNL     1       8.011   4.396  24.001  0.00  0.00    -0.236 NA
ATOM     10  C16 UNL     1       8.602   5.607  24.181  0.00  0.00    +0.143 A 
ATOM     11  N2  UNL     1       8.505   6.596  23.144  0.00  0.00    -0.265 N 
ATOM     12  C17 UNL     1       8.562   8.014  23.378  0.00  0.00    +0.250 C 
ATOM     13  O3  UNL     1       8.287   8.470  24.523  0.00  0.00    -0.270 OA
ATOM     14  C24 UNL     1       9.347   5.826  25.349  0.00  0.00    +0.155 A 
ATOM     15  N3  UNL     1       9.429   4.845  26.284  0.00  0.00    -0.250 NA
ATOM     16  H9  UNL     1       8.257   6.263  22.186  0.00  0.00    +0.157 HD
BRANCH  12  17
ATOM     17  C18 UNL     1       8.888   8.953  22.277  0.00  0.00    +0.043 A 
ATOM     18  C19 UNL     1       9.857   8.609  21.316  0.00  0.00    +0.054 A 
ATOM     19  C20 UNL     1      10.165   9.488  20.273  0.00  0.00    +0.162 A 
ATOM     20  F1  UNL     1      11.106   9.147  19.358  0.00  0.00    -0.202 F 
ATOM     21  C21 UNL     1       9.506  10.717  20.174  0.00  0.00    +0.193 A 
ATOM     22  F2  UNL     1       9.805  11.568  19.161  0.00  0.00    -0.199 F 
ATOM     23  C22 UNL     1       8.534  11.065  21.116  0.00  0.00    +0.162 A 
ATOM     24  F3  UNL     1       7.886  12.252  21.015  0.00  0.00    -0.202 F 
ATOM     25  C23 UNL     1       8.224  10.189  22.162  0.00  0.00    +0.054 A 
ENDBRANCH  12  17
ENDBRANCH   4   7
BRANCH   1  29
ATOM     26  C6  UNL     1       9.558  -1.254  32.182  0.00  0.00    +0.136 A 
ATOM     27  C7  UNL     1       9.434  -2.333  31.322  0.00  0.00    +0.050 A 
ATOM     28  C8  UNL     1       9.273  -1.798  30.063  0.00  0.00    +0.050 A 
ATOM     29  C9  UNL     1       9.308  -0.423  30.224  0.00  0.00    +0.136 A 
ATOM     30  O4  UNL     1       9.478  -0.136  31.496  0.00  0.00    -0.455 OA
BRANCH  26  34
ATOM     31  C2  UNL     1      10.108  -1.426  36.452  0.00  0.00    +0.059 A 
ATOM     32  C3  UNL     1       9.693  -2.559  35.731  0.00  0.00    +0.015 A 
ATOM     33  C4  UNL     1       9.517  -2.494  34.346  0.00  0.00    +0.012 A 
ATOM     34  C5  UNL     1       9.751  -1.297  33.651  0.00  0.00    +0.017 A 
ATOM     35  C27 UNL     1      10.167  -0.164  34.372  0.00  0.00    +0.012 A 
ATOM     36  C28 UNL     1      10.343  -0.228  35.757  0.00  0.00    +0.015 A 
BRANCH  31  38
ATOM     37  O1  UNL     1      10.008  -0.499  38.641  0.00  0.00    -0.245 OA
ATOM     38  C1  UNL     1      10.295  -1.490  37.918  0.00  0.00    +0.337 C 
BRANCH  38  39
ATOM     39  O2  UNL     1      10.789  -2.649  38.513  0.00  0.00    -0.477 OA
ATOM     40  H1  UNL     1      10.482  -3.564  38.205  0.00  0.00    +0.295 HD
ENDBRANCH  38  39
ENDBRANCH  31  38
ENDBRANCH  26  34
ENDBRANCH   1  29
TORSDOF 6
ENDMDL
MODEL 4
REMARK VINA RESULT:    -7.282     12.690     18.335
REMARK INTER + INTRA:         -10.505
REMARK INTER:                  -9.640
REMARK INTRA:                  -0.865
REMARK UNBOUND:                -0.882
REMARK  Name = /home/qwerty/github/datacon2025hack/step_04_hit_selection/docking/ligands/lig_71.pdb
REMARK  6 active torsions:
REMARK  status: ('A' for Active; 'I' for Inactive)
REMARK    1  A    between atoms: C1_2  and  O2_3
REMARK    2  A    between atoms: C1_2  and  C2_4
REMARK    3  A    between atoms: C5_7  and  C6_8
REMARK    4  A    between atoms: C9_11  and  C10_12
REMARK    5  A    between atoms: C13_15  and  C14_16
REMARK    6  A    between atoms: C17_21  and  C18_23
REMARK                            x       y       z     vdW  Elec       q    Type
REMARK                         _______ _______ _______ _____ _____    ______ ____
ROOT
ATOM      1  C10 UNL     1      19.069   2.216  32.397  0.00  0.00    +0.017 A 
ATOM      2  C11 UNL     1      19.413   3.525  32.019  0.00  0.00    +0.012 A 
ATOM      3  C12 UNL     1      19.862   3.795  30.723  0.00  0.00    +0.011 A 
ATOM      4  C13 UNL     1      19.986   2.763  29.777  0.00  0.00    +0.002 A 
ATOM      5  C25 UNL     1      19.630   1.456  30.154  0.00  0.00    +0.011 A 
ATOM      6  C26 UNL     1      19.180   1.186  31.449  0.00  0.00    +0.012 A 
ENDROOT
BRANCH   4   7
ATOM      7  C14 UNL     1      20.461   3.072  28.403  0.00  0.00    +0.089 A 
ATOM      8  C15 UNL     1      21.396   2.262  27.738  0.00  0.00    +0.141 A 
ATOM      9  N1  UNL     1      21.799   2.594  26.483  0.00  0.00    -0.236 NA
ATOM     10  C16 UNL     1      21.312   3.688  25.840  0.00  0.00    +0.143 A 
ATOM     11  N2  UNL     1      21.794   4.001  24.523  0.00  0.00    -0.265 N 
ATOM     12  C17 UNL     1      21.032   4.721  23.539  0.00  0.00    +0.250 C 
ATOM     13  O3  UNL     1      19.773   4.755  23.625  0.00  0.00    -0.270 OA
ATOM     14  C24 UNL     1      20.400   4.515  26.513  0.00  0.00    +0.155 A 
ATOM     15  N3  UNL     1      20.001   4.186  27.768  0.00  0.00    -0.250 NA
ATOM     16  H9  UNL     1      22.700   3.573  24.231  0.00  0.00    +0.157 HD
BRANCH  12  17
ATOM     17  C18 UNL     1      21.703   5.382  22.394  0.00  0.00    +0.043 A 
ATOM     18  C19 UNL     1      22.755   6.292  22.617  0.00  0.00    +0.054 A 
ATOM     19  C20 UNL     1      23.395   6.914  21.540  0.00  0.00    +0.162 A 
ATOM     20  F1  UNL     1      24.401   7.793  21.770  0.00  0.00    -0.202 F 
ATOM     21  C21 UNL     1      22.998   6.631  20.230  0.00  0.00    +0.193 A 
ATOM     22  F2  UNL     1      23.621   7.234  19.187  0.00  0.00    -0.199 F 
ATOM     23  C22 UNL     1      21.963   5.722  19.995  0.00  0.00    +0.162 A 
ATOM     24  F3  UNL     1      21.584   5.437  18.725  0.00  0.00    -0.202 F 
ATOM     25  C23 UNL     1      21.319   5.098  21.069  0.00  0.00    +0.054 A 
ENDBRANCH  12  17
ENDBRANCH   4   7
BRANCH   1  29
ATOM     26  C6  UNL     1      17.390   1.034  35.310  0.00  0.00    +0.136 A 
ATOM     27  C7  UNL     1      18.344   1.804  35.954  0.00  0.00    +0.050 A 
ATOM     28  C8  UNL     1      19.117   2.362  34.960  0.00  0.00    +0.050 A 
ATOM     29  C9  UNL     1      18.591   1.903  33.764  0.00  0.00    +0.136 A 
ATOM     30  O4  UNL     1      17.567   1.116  34.010  0.00  0.00    -0.455 OA
BRANCH  26  34
ATOM     31  C2  UNL     1      14.244  -1.273  37.137  0.00  0.00    +0.059 A 
ATOM     32  C3  UNL     1      14.098   0.108  36.928  0.00  0.00    +0.015 A 
ATOM     33  C4  UNL     1      15.123   0.849  36.334  0.00  0.00    +0.012 A 
ATOM     34  C5  UNL     1      16.318   0.226  35.937  0.00  0.00    +0.017 A 
ATOM     35  C27 UNL     1      16.464  -1.157  36.146  0.00  0.00    +0.012 A 
ATOM     36  C28 UNL     1      15.438  -1.897  36.740  0.00  0.00    +0.015 A 
BRANCH  31  38
ATOM     37  O1  UNL     1      13.431  -3.084  38.451  0.00  0.00    -0.245 OA
ATOM     38  C1  UNL     1      13.161  -2.061  37.766  0.00  0.00    +0.337 C 
BRANCH  38  39
ATOM     39  O2  UNL     1      11.831  -1.679  37.607  0.00  0.00    -0.477 OA
ATOM     40  H1  UNL     1      11.589  -0.833  37.105  0.00  0.00    +0.295 HD
ENDBRANCH  38  39
ENDBRANCH  31  38
ENDBRANCH  26  34
ENDBRANCH   1  29
TORSDOF 6
ENDMDL
MODEL 5
REMARK VINA RESULT:    -7.189     12.299     13.396
REMARK INTER + INTRA:         -10.382
REMARK INTER:                  -9.486
REMARK INTRA:                  -0.896
REMARK UNBOUND:                -0.882
REMARK  Name = /home/qwerty/github/datacon2025hack/step_04_hit_selection/docking/ligands/lig_71.pdb
REMARK  6 active torsions:
REMARK  status: ('A' for Active; 'I' for Inactive)
REMARK    1  A    between atoms: C1_2  and  O2_3
REMARK    2  A    between atoms: C1_2  and  C2_4
REMARK    3  A    between atoms: C5_7  and  C6_8
REMARK    4  A    between atoms: C9_11  and  C10_12
REMARK    5  A    between atoms: C13_15  and  C14_16
REMARK    6  A    between atoms: C17_21  and  C18_23
REMARK                            x       y       z     vdW  Elec       q    Type
REMARK                         _______ _______ _______ _____ _____    ______ ____
ROOT
ATOM      1  C10 UNL     1      15.690   5.575  20.682  0.00  0.00    +0.017 A 
ATOM      2  C11 UNL     1      14.574   4.964  20.083  0.00  0.00    +0.012 A 
ATOM      3  C12 UNL     1      13.665   4.235  20.854  0.00  0.00    +0.011 A 
ATOM      4  C13 UNL     1      13.852   4.091  22.240  0.00  0.00    +0.002 A 
ATOM      5  C25 UNL     1      14.962   4.713  22.839  0.00  0.00    +0.011 A 
ATOM      6  C26 UNL     1      15.871   5.443  22.068  0.00  0.00    +0.012 A 
ENDROOT
BRANCH   4   7
ATOM      7  C14 UNL     1      12.871   3.316  23.043  0.00  0.00    +0.089 A 
ATOM      8  C15 UNL     1      12.100   2.284  22.483  0.00  0.00    +0.141 A 
ATOM      9  N1  UNL     1      11.214   1.610  23.263  0.00  0.00    -0.236 NA
ATOM     10  C16 UNL     1      11.058   1.897  24.582  0.00  0.00    +0.143 A 
ATOM     11  N2  UNL     1      10.088   1.165  25.349  0.00  0.00    -0.265 N 
ATOM     12  C17 UNL     1      10.185   0.946  26.767  0.00  0.00    +0.250 C 
ATOM     13  O3  UNL     1      11.310   1.020  27.335  0.00  0.00    -0.270 OA
ATOM     14  C24 UNL     1      11.805   2.947  25.136  0.00  0.00    +0.155 A 
ATOM     15  N3  UNL     1      12.687   3.623  24.357  0.00  0.00    -0.250 NA
ATOM     16  H9  UNL     1       9.337   0.666  24.822  0.00  0.00    +0.157 HD
BRANCH  12  17
ATOM     17  C18 UNL     1       8.989   0.580  27.563  0.00  0.00    +0.043 A 
ATOM     18  C19 UNL     1       9.123  -0.211  28.721  0.00  0.00    +0.054 A 
ATOM     19  C20 UNL     1       7.999  -0.555  29.478  0.00  0.00    +0.162 A 
ATOM     20  F1  UNL     1       8.142  -1.324  30.586  0.00  0.00    -0.202 F 
ATOM     21  C21 UNL     1       6.731  -0.110  29.095  0.00  0.00    +0.193 A 
ATOM     22  F2  UNL     1       5.642  -0.444  29.832  0.00  0.00    -0.199 F 
ATOM     23  C22 UNL     1       6.587   0.684  27.954  0.00  0.00    +0.162 A 
ATOM     24  F3  UNL     1       5.359   1.127  27.586  0.00  0.00    -0.202 F 
ATOM     25  C23 UNL     1       7.708   1.030  27.192  0.00  0.00    +0.054 A 
ENDBRANCH  12  17
ENDBRANCH   4   7
BRANCH   1  29
ATOM     26  C6  UNL     1      17.847   8.025  19.251  0.00  0.00    +0.136 A 
ATOM     27  C7  UNL     1      18.183   6.977  18.409  0.00  0.00    +0.050 A 
ATOM     28  C8  UNL     1      17.425   5.902  18.818  0.00  0.00    +0.050 A 
ATOM     29  C9  UNL     1      16.669   6.353  19.887  0.00  0.00    +0.136 A 
ATOM     30  O4  UNL     1      16.945   7.618  20.116  0.00  0.00    -0.455 OA
BRANCH  26  34
ATOM     31  C2  UNL     1      19.460  12.018  19.159  0.00  0.00    +0.059 A 
ATOM     32  C3  UNL     1      20.259  10.909  18.833  0.00  0.00    +0.015 A 
ATOM     33  C4  UNL     1      19.727   9.617  18.865  0.00  0.00    +0.012 A 
ATOM     34  C5  UNL     1      18.386   9.404  19.225  0.00  0.00    +0.017 A 
ATOM     35  C27 UNL     1      17.587  10.514  19.551  0.00  0.00    +0.012 A 
ATOM     36  C28 UNL     1      18.118  11.806  19.519  0.00  0.00    +0.015 A 
BRANCH  31  38
ATOM     37  O1  UNL     1      21.054  13.639  18.453  0.00  0.00    -0.245 OA
ATOM     38  C1  UNL     1      20.019  13.387  19.127  0.00  0.00    +0.337 C 
BRANCH  38  39
ATOM     39  O2  UNL     1      19.404  14.413  19.842  0.00  0.00    -0.477 OA
ATOM     40  H1  UNL     1      18.705  15.004  19.407  0.00  0.00    +0.295 HD
ENDBRANCH  38  39
ENDBRANCH  31  38
ENDBRANCH  26  34
ENDBRANCH   1  29
TORSDOF 6
ENDMDL
MODEL 6
REMARK VINA RESULT:    -7.073      6.985     14.651
REMARK INTER + INTRA:         -10.228
REMARK INTER:                  -9.388
REMARK INTRA:                  -0.841
REMARK UNBOUND:                -0.882
REMARK  Name = /home/qwerty/github/datacon2025hack/step_04_hit_selection/docking/ligands/lig_71.pdb
REMARK  6 active torsions:
REMARK  status: ('A' for Active; 'I' for Inactive)
REMARK    1  A    between atoms: C1_2  and  O2_3
REMARK    2  A    between atoms: C1_2  and  C2_4
REMARK    3  A    between atoms: C5_7  and  C6_8
REMARK    4  A    between atoms: C9_11  and  C10_12
REMARK    5  A    between atoms: C13_15  and  C14_16
REMARK    6  A    between atoms: C17_21  and  C18_23
REMARK                            x       y       z     vdW  Elec       q    Type
REMARK                         _______ _______ _______ _____ _____    ______ ____
ROOT
ATOM      1  C10 UNL     1      18.885  13.337  32.693  0.00  0.00    +0.017 A 
ATOM      2  C11 UNL     1      19.855  12.538  32.063  0.00  0.00    +0.012 A 
ATOM      3  C12 UNL     1      20.417  12.931  30.845  0.00  0.00    +0.011 A 
ATOM      4  C13 UNL     1      20.017  14.126  30.223  0.00  0.00    +0.002 A 
ATOM      5  C25 UNL     1      19.054  14.930  30.861  0.00  0.00    +0.011 A 
ATOM      6  C26 UNL     1      18.494  14.537  32.080  0.00  0.00    +0.012 A 
ENDROOT
BRANCH   4   7
ATOM      7  C14 UNL     1      20.629  14.528  28.930  0.00  0.00    +0.089 A 
ATOM      8  C15 UNL     1      21.420  15.683  28.807  0.00  0.00    +0.141 A 
ATOM      9  N1  UNL     1      21.952  16.006  27.599  0.00  0.00    -0.236 NA
ATOM     10  C16 UNL     1      21.752  15.234  26.499  0.00  0.00    +0.143 A 
ATOM     11  N2  UNL     1      22.321  15.640  25.243  0.00  0.00    -0.265 N 
ATOM     12  C17 UNL     1      22.677  14.729  24.190  0.00  0.00    +0.250 C 
ATOM     13  O3  UNL     1      22.895  13.515  24.461  0.00  0.00    -0.270 OA
ATOM     14  C24 UNL     1      20.938  14.097  26.612  0.00  0.00    +0.155 A 
ATOM     15  N3  UNL     1      20.403  13.776  27.817  0.00  0.00    -0.250 NA
ATOM     16  H9  UNL     1      22.601  16.642  25.146  0.00  0.00    +0.157 HD
BRANCH  12  17
ATOM     17  C18 UNL     1      22.844  15.206  22.796  0.00  0.00    +0.043 A 
ATOM     18  C19 UNL     1      21.767  15.142  21.891  0.00  0.00    +0.054 A 
ATOM     19  C20 UNL     1      21.917  15.595  20.577  0.00  0.00    +0.162 A 
ATOM     20  F1  UNL     1      20.874  15.521  19.714  0.00  0.00    -0.202 F 
ATOM     21  C21 UNL     1      23.140  16.123  20.152  0.00  0.00    +0.193 A 
ATOM     22  F2  UNL     1      23.283  16.563  18.877  0.00  0.00    -0.199 F 
ATOM     23  C22 UNL     1      24.213  16.202  21.044  0.00  0.00    +0.162 A 
ATOM     24  F3  UNL     1      25.397  16.724  20.637  0.00  0.00    -0.202 F 
ATOM     25  C23 UNL     1      24.068  15.748  22.359  0.00  0.00    +0.054 A 
ENDBRANCH  12  17
ENDBRANCH   4   7
BRANCH   1  29
ATOM     26  C6  UNL     1      16.762  12.348  35.379  0.00  0.00    +0.136 A 
ATOM     27  C7  UNL     1      17.940  12.426  36.103  0.00  0.00    +0.050 A 
ATOM     28  C8  UNL     1      18.913  12.809  35.206  0.00  0.00    +0.050 A 
ATOM     29  C9  UNL     1      18.274  12.943  33.984  0.00  0.00    +0.136 A 
ATOM     30  O4  UNL     1      16.998  12.661  34.125  0.00  0.00    -0.455 OA
BRANCH  26  34
ATOM     31  C2  UNL     1      12.875  11.217  36.853  0.00  0.00    +0.059 A 
ATOM     32  C3  UNL     1      13.802  10.244  36.441  0.00  0.00    +0.015 A 
ATOM     33  C4  UNL     1      15.061  10.620  35.964  0.00  0.00    +0.012 A 
ATOM     34  C5  UNL     1      15.421  11.975  35.888  0.00  0.00    +0.017 A 
ATOM     35  C27 UNL     1      14.494  12.948  36.302  0.00  0.00    +0.012 A 
ATOM     36  C28 UNL     1      13.235  12.573  36.778  0.00  0.00    +0.015 A 
BRANCH  31  38
ATOM     37  O1  UNL     1      10.927   9.848  36.847  0.00  0.00    -0.245 OA
ATOM     38  C1  UNL     1      11.541  10.824  37.358  0.00  0.00    +0.337 C 
BRANCH  38  39
ATOM     39  O2  UNL     1      10.951  11.529  38.404  0.00  0.00    -0.477 OA
ATOM     40  H1  UNL     1      10.693  12.503  38.295  0.00  0.00    +0.295 HD
ENDBRANCH  38  39
ENDBRANCH  31  38
ENDBRANCH  26  34
ENDBRANCH   1  29
TORSDOF 6
ENDMDL
MODEL 7
REMARK VINA RESULT:    -7.069      6.961     14.671
REMARK INTER + INTRA:         -10.224
REMARK INTER:                  -9.383
REMARK INTRA:                  -0.841
REMARK UNBOUND:                -0.882
REMARK  Name = /home/qwerty/github/datacon2025hack/step_04_hit_selection/docking/ligands/lig_71.pdb
REMARK  6 active torsions:
REMARK  status: ('A' for Active; 'I' for Inactive)
REMARK    1  A    between atoms: C1_2  and  O2_3
REMARK    2  A    between atoms: C1_2  and  C2_4
REMARK    3  A    between atoms: C5_7  and  C6_8
REMARK    4  A    between atoms: C9_11  and  C10_12
REMARK    5  A    between atoms: C13_15  and  C14_16
REMARK    6  A    between atoms: C17_21  and  C18_23
REMARK                            x       y       z     vdW  Elec       q    Type
REMARK                         _______ _______ _______ _____ _____    ______ ____
ROOT
ATOM      1  C10 UNL     1      18.784  13.476  32.751  0.00  0.00    +0.017 A 
ATOM      2  C11 UNL     1      19.788  12.700  32.146  0.00  0.00    +0.012 A 
ATOM      3  C12 UNL     1      20.343  13.084  30.922  0.00  0.00    +0.011 A 
ATOM      4  C13 UNL     1      19.902  14.248  30.269  0.00  0.00    +0.002 A 
ATOM      5  C25 UNL     1      18.906  15.030  30.881  0.00  0.00    +0.011 A 
ATOM      6  C26 UNL     1      18.352  14.646  32.105  0.00  0.00    +0.012 A 
ENDROOT
BRANCH   4   7
ATOM      7  C14 UNL     1      20.508  14.642  28.971  0.00  0.00    +0.089 A 
ATOM      8  C15 UNL     1      21.199  15.854  28.807  0.00  0.00    +0.141 A 
ATOM      9  N1  UNL     1      21.730  16.166  27.596  0.00  0.00    -0.236 NA
ATOM     10  C16 UNL     1      21.624  15.329  26.530  0.00  0.00    +0.143 A 
ATOM     11  N2  UNL     1      22.186  15.725  25.269  0.00  0.00    -0.265 N 
ATOM     12  C17 UNL     1      22.644  14.800  24.268  0.00  0.00    +0.250 C 
ATOM     13  O3  UNL     1      22.960  13.624  24.601  0.00  0.00    -0.270 OA
ATOM     14  C24 UNL     1      20.909  14.132  26.682  0.00  0.00    +0.155 A 
ATOM     15  N3  UNL     1      20.375  13.821  27.891  0.00  0.00    -0.250 NA
ATOM     16  H9  UNL     1      22.380  16.741  25.128  0.00  0.00    +0.157 HD
BRANCH  12  17
ATOM     17  C18 UNL     1      22.803  15.225  22.856  0.00  0.00    +0.043 A 
ATOM     18  C19 UNL     1      24.071  15.586  22.363  0.00  0.00    +0.054 A 
ATOM     19  C20 UNL     1      24.228  15.982  21.031  0.00  0.00    +0.162 A 
ATOM     20  F1  UNL     1      25.455  16.334  20.572  0.00  0.00    -0.202 F 
ATOM     21  C21 UNL     1      23.124  16.018  20.175  0.00  0.00    +0.193 A 
ATOM     22  F2  UNL     1      23.278  16.402  18.883  0.00  0.00    -0.199 F 
ATOM     23  C22 UNL     1      21.861  15.652  20.650  0.00  0.00    +0.162 A 
ATOM     24  F3  UNL     1      20.791  15.674  19.818  0.00  0.00    -0.202 F 
ATOM     25  C23 UNL     1      21.699  15.256  21.982  0.00  0.00    +0.054 A 
ENDBRANCH  12  17
ENDBRANCH   4   7
BRANCH   1  29
ATOM     26  C6  UNL     1      16.681  12.468  35.446  0.00  0.00    +0.136 A 
ATOM     27  C7  UNL     1      17.849  12.616  36.176  0.00  0.00    +0.050 A 
ATOM     28  C8  UNL     1      18.812  13.017  35.276  0.00  0.00    +0.050 A 
ATOM     29  C9  UNL     1      18.179  13.090  34.047  0.00  0.00    +0.136 A 
ATOM     30  O4  UNL     1      16.915  12.758  34.185  0.00  0.00    -0.455 OA
BRANCH  26  34
ATOM     31  C2  UNL     1      12.808  11.306  36.930  0.00  0.00    +0.059 A 
ATOM     32  C3  UNL     1      13.163  12.661  36.824  0.00  0.00    +0.015 A 
ATOM     33  C4  UNL     1      14.422  13.029  36.341  0.00  0.00    +0.012 A 
ATOM     34  C5  UNL     1      15.353  12.052  35.955  0.00  0.00    +0.017 A 
ATOM     35  C27 UNL     1      14.997  10.695  36.060  0.00  0.00    +0.012 A 
ATOM     36  C28 UNL     1      13.739  10.327  36.543  0.00  0.00    +0.015 A 
BRANCH  31  38
ATOM     37  O1  UNL     1      10.789  10.048  36.832  0.00  0.00    -0.245 OA
ATOM     38  C1  UNL     1      11.477  10.911  37.441  0.00  0.00    +0.337 C 
BRANCH  38  39
ATOM     39  O2  UNL     1      10.970  11.491  38.602  0.00  0.00    -0.477 OA
ATOM     40  H1  UNL     1      11.223  12.436  38.865  0.00  0.00    +0.295 HD
ENDBRANCH  38  39
ENDBRANCH  31  38
ENDBRANCH  26  34
ENDBRANCH   1  29
TORSDOF 6
ENDMDL
MODEL 8
REMARK VINA RESULT:    -7.031     12.975     17.873
REMARK INTER + INTRA:         -10.174
REMARK INTER:                  -9.273
REMARK INTRA:                  -0.900
REMARK UNBOUND:                -0.882
REMARK  Name = /home/qwerty/github/datacon2025hack/step_04_hit_selection/docking/ligands/lig_71.pdb
REMARK  6 active torsions:
REMARK  status: ('A' for Active; 'I' for Inactive)
REMARK    1  A    between atoms: C1_2  and  O2_3
REMARK    2  A    between atoms: C1_2  and  C2_4
REMARK    3  A    between atoms: C5_7  and  C6_8
REMARK    4  A    between atoms: C9_11  and  C10_12
REMARK    5  A    between atoms: C13_15  and  C14_16
REMARK    6  A    between atoms: C17_21  and  C18_23
REMARK                            x       y       z     vdW  Elec       q    Type
REMARK                         _______ _______ _______ _____ _____    ______ ____
ROOT
ATOM      1  C10 UNL     1      15.264   4.868  20.620  0.00  0.00    +0.017 A 
ATOM      2  C11 UNL     1      15.077   6.106  21.260  0.00  0.00    +0.012 A 
ATOM      3  C12 UNL     1      15.947   7.172  21.012  0.00  0.00    +0.011 A 
ATOM      4  C13 UNL     1      17.027   7.025  20.127  0.00  0.00    +0.002 A 
ATOM      5  C25 UNL     1      17.206   5.790  19.478  0.00  0.00    +0.011 A 
ATOM      6  C26 UNL     1      16.336   4.724  19.725  0.00  0.00    +0.012 A 
ENDROOT
BRANCH   4   7
ATOM      7  C14 UNL     1      17.938   8.172  19.873  0.00  0.00    +0.089 A 
ATOM      8  C15 UNL     1      18.808   8.204  18.771  0.00  0.00    +0.141 A 
ATOM      9  N1  UNL     1      19.623   9.277  18.590  0.00  0.00    -0.236 NA
ATOM     10  C16 UNL     1      19.613  10.335  19.442  0.00  0.00    +0.143 A 
ATOM     11  N2  UNL     1      20.514  11.431  19.212  0.00  0.00    -0.265 N 
ATOM     12  C17 UNL     1      20.261  12.782  19.633  0.00  0.00    +0.250 C 
ATOM     13  O3  UNL     1      19.075  13.156  19.853  0.00  0.00    -0.270 OA
ATOM     14  C24 UNL     1      18.766  10.293  20.560  0.00  0.00    +0.155 A 
ATOM     15  N3  UNL     1      17.955   9.220  20.744  0.00  0.00    -0.250 NA
ATOM     16  H9  UNL     1      21.339  11.251  18.598  0.00  0.00    +0.157 HD
BRANCH  12  17
ATOM     17  C18 UNL     1      21.369  13.758  19.761  0.00  0.00    +0.043 A 
ATOM     18  C19 UNL     1      22.457  13.487  20.614  0.00  0.00    +0.054 A 
ATOM     19  C20 UNL     1      23.508  14.401  20.735  0.00  0.00    +0.162 A 
ATOM     20  F1  UNL     1      24.545  14.131  21.565  0.00  0.00    -0.202 F 
ATOM     21  C21 UNL     1      23.490  15.593  20.003  0.00  0.00    +0.193 A 
ATOM     22  F2  UNL     1      24.510  16.478  20.121  0.00  0.00    -0.199 F 
ATOM     23  C22 UNL     1      22.420  15.868  19.146  0.00  0.00    +0.162 A 
ATOM     24  F3  UNL     1      22.406  17.018  18.427  0.00  0.00    -0.202 F 
ATOM     25  C23 UNL     1      21.366  14.957  19.023  0.00  0.00    +0.054 A 
ENDBRANCH  12  17
ENDBRANCH   4   7
BRANCH   1  29
ATOM     26  C6  UNL     1      12.808   2.562  21.783  0.00  0.00    +0.136 A 
ATOM     27  C7  UNL     1      13.313   1.782  20.756  0.00  0.00    +0.050 A 
ATOM     28  C8  UNL     1      14.309   2.529  20.166  0.00  0.00    +0.050 A 
ATOM     29  C9  UNL     1      14.357   3.723  20.865  0.00  0.00    +0.136 A 
ATOM     30  O4  UNL     1      13.452   3.708  21.819  0.00  0.00    -0.455 OA
BRANCH  26  34
ATOM     31  C2  UNL     1       9.655   1.571  24.546  0.00  0.00    +0.059 A 
ATOM     32  C3  UNL     1      10.646   2.507  24.887  0.00  0.00    +0.015 A 
ATOM     33  C4  UNL     1      11.665   2.823  23.984  0.00  0.00    +0.012 A 
ATOM     34  C5  UNL     1      11.717   2.210  22.722  0.00  0.00    +0.017 A 
ATOM     35  C27 UNL     1      10.725   1.274  22.380  0.00  0.00    +0.012 A 
ATOM     36  C28 UNL     1       9.706   0.958  23.283  0.00  0.00    +0.015 A 
BRANCH  31  38
ATOM     37  O1  UNL     1       7.821   2.135  25.955  0.00  0.00    -0.245 OA
ATOM     38  C1  UNL     1       8.575   1.233  25.498  0.00  0.00    +0.337 C 
BRANCH  38  39
ATOM     39  O2  UNL     1       8.379  -0.087  25.899  0.00  0.00    -0.477 OA
ATOM     40  H1  UNL     1       8.815  -0.445  26.740  0.00  0.00    +0.295 HD
ENDBRANCH  38  39
ENDBRANCH  31  38
ENDBRANCH  26  34
ENDBRANCH   1  29
TORSDOF 6
ENDMDL
MODEL 9
REMARK VINA RESULT:    -6.908      7.046     14.720
REMARK INTER + INTRA:         -10.010
REMARK INTER:                  -9.138
REMARK INTRA:                  -0.872
REMARK UNBOUND:                -0.882
REMARK  Name = /home/qwerty/github/datacon2025hack/step_04_hit_selection/docking/ligands/lig_71.pdb
REMARK  6 active torsions:
REMARK  status: ('A' for Active; 'I' for Inactive)
REMARK    1  A    between atoms: C1_2  and  O2_3
REMARK    2  A    between atoms: C1_2  and  C2_4
REMARK    3  A    between atoms: C5_7  and  C6_8
REMARK    4  A    between atoms: C9_11  and  C10_12
REMARK    5  A    between atoms: C13_15  and  C14_16
REMARK    6  A    between atoms: C17_21  and  C18_23
REMARK                            x       y       z     vdW  Elec       q    Type
REMARK                         _______ _______ _______ _____ _____    ______ ____
ROOT
ATOM      1  C10 UNL     1      17.013  13.783  32.223  0.00  0.00    +0.017 A 
ATOM      2  C11 UNL     1      18.355  14.173  32.070  0.00  0.00    +0.012 A 
ATOM      3  C12 UNL     1      18.846  14.553  30.817  0.00  0.00    +0.011 A 
ATOM      4  C13 UNL     1      18.011  14.545  29.687  0.00  0.00    +0.002 A 
ATOM      5  C25 UNL     1      16.665  14.166  29.844  0.00  0.00    +0.011 A 
ATOM      6  C26 UNL     1      16.174  13.788  31.097  0.00  0.00    +0.012 A 
ENDROOT
BRANCH   4   7
ATOM      7  C14 UNL     1      18.551  14.957  28.365  0.00  0.00    +0.089 A 
ATOM      8  C15 UNL     1      18.298  16.227  27.819  0.00  0.00    +0.141 A 
ATOM      9  N1  UNL     1      18.813  16.550  26.604  0.00  0.00    -0.236 NA
ATOM     10  C16 UNL     1      19.583  15.680  25.899  0.00  0.00    +0.143 A 
ATOM     11  N2  UNL     1      20.081  16.070  24.609  0.00  0.00    -0.265 N 
ATOM     12  C17 UNL     1      21.289  15.554  24.024  0.00  0.00    +0.250 C 
ATOM     13  O3  UNL     1      22.180  15.058  24.767  0.00  0.00    -0.270 OA
ATOM     14  C24 UNL     1      19.813  14.401  26.428  0.00  0.00    +0.155 A 
ATOM     15  N3  UNL     1      19.295  14.077  27.640  0.00  0.00    -0.250 NA
ATOM     16  H9  UNL     1      19.598  16.861  24.128  0.00  0.00    +0.157 HD
BRANCH  12  17
ATOM     17  C18 UNL     1      21.525  15.646  22.562  0.00  0.00    +0.043 A 
ATOM     18  C19 UNL     1      22.771  16.082  22.072  0.00  0.00    +0.054 A 
ATOM     19  C20 UNL     1      23.002  16.166  20.696  0.00  0.00    +0.162 A 
ATOM     20  F1  UNL     1      24.204  16.595  20.238  0.00  0.00    -0.202 F 
ATOM     21  C21 UNL     1      21.996  15.811  19.793  0.00  0.00    +0.193 A 
ATOM     22  F2  UNL     1      22.222  15.893  18.458  0.00  0.00    -0.199 F 
ATOM     23  C22 UNL     1      20.758  15.367  20.267  0.00  0.00    +0.162 A 
ATOM     24  F3  UNL     1      19.784  15.012  19.393  0.00  0.00    -0.202 F 
ATOM     25  C23 UNL     1      20.522  15.283  21.643  0.00  0.00    +0.054 A 
ENDBRANCH  12  17
ENDBRANCH   4   7
BRANCH   1  29
ATOM     26  C6  UNL     1      15.209  12.382  34.958  0.00  0.00    +0.136 A 
ATOM     27  C7  UNL     1      16.100  13.138  35.701  0.00  0.00    +0.050 A 
ATOM     28  C8  UNL     1      16.910  13.777  34.788  0.00  0.00    +0.050 A 
ATOM     29  C9  UNL     1      16.468  13.376  33.539  0.00  0.00    +0.136 A 
ATOM     30  O4  UNL     1      15.457  12.547  33.678  0.00  0.00    -0.455 OA
BRANCH  26  34
ATOM     31  C2  UNL     1      12.074   9.813  36.417  0.00  0.00    +0.059 A 
ATOM     32  C3  UNL     1      12.744   9.524  35.216  0.00  0.00    +0.015 A 
ATOM     33  C4  UNL     1      13.760  10.362  34.750  0.00  0.00    +0.012 A 
ATOM     34  C5  UNL     1      14.129  11.509  35.473  0.00  0.00    +0.017 A 
ATOM     35  C27 UNL     1      13.459  11.798  36.675  0.00  0.00    +0.012 A 
ATOM     36  C28 UNL     1      12.443  10.959  37.141  0.00  0.00    +0.015 A 
BRANCH  31  38
ATOM     37  O1  UNL     1       9.790   9.275  36.816  0.00  0.00    -0.245 OA
ATOM     38  C1  UNL     1      10.998   8.928  36.914  0.00  0.00    +0.337 C 
BRANCH  38  39
ATOM     39  O2  UNL     1      11.309   7.701  37.495  0.00  0.00    -0.477 OA
ATOM     40  H1  UNL     1      10.639   7.218  38.082  0.00  0.00    +0.295 HD
ENDBRANCH  38  39
ENDBRANCH  31  38
ENDBRANCH  26  34
ENDBRANCH   1  29
TORSDOF 6
ENDMDL
