MODEL 1
REMARK VINA RESULT:    -6.026      0.000      0.000
REMARK INTER + INTRA:          -7.893
REMARK INTER:                  -7.435
REMARK INTRA:                  -0.458
REMARK UNBOUND:                -0.458
REMARK  Name = /home/qwerty/github/datacon2025hack/step_04_hit_selection/docking/ligands/lig_141.pdb
REMARK  5 active torsions:
REMARK  status: ('A' for Active; 'I' for Inactive)
REMARK    1  A    between atoms: C1_1  and  C2_2
REMARK    2  A    between atoms: C5_5  and  C6_6
REMARK    3  A    between atoms: N1_8  and  C7_9
REMARK    4  A    between atoms: C11_13  and  N2_14
REMARK    5  A    between atoms: C12_15  and  C13_17
REMARK                            x       y       z     vdW  Elec       q    Type
REMARK                         _______ _______ _______ _____ _____    ______ ____
ROOT
ATOM      1  C7  UNL     1      11.528  13.866  33.192  0.00  0.00    +0.075 C 
ATOM      2  C8  UNL     1      10.464  14.884  33.687  0.00  0.00    +0.022 C 
ATOM      3  C9  UNL     1       9.719  14.393  34.932  0.00  0.00    +0.004 C 
ATOM      4  C10 UNL     1      10.678  14.127  36.110  0.00  0.00    +0.022 C 
ATOM      5  C11 UNL     1      12.072  13.599  35.678  0.00  0.00    +0.075 C 
ATOM      6  C16 UNL     1      11.994  12.898  34.309  0.00  0.00    +0.044 C 
ENDROOT
BRANCH   1   9
ATOM      7  C6  UNL     1      11.140  13.595  30.694  0.00  0.00    +0.247 C 
ATOM      8  O1  UNL     1      11.870  14.594  30.453  0.00  0.00    -0.270 OA
ATOM      9  N1  UNL     1      11.017  13.109  32.042  0.00  0.00    -0.308 N 
ATOM     10  H6  UNL     1      10.628  12.151  32.188  0.00  0.00    +0.149 HD
BRANCH   7  15
ATOM     11  C1  UNL     1       8.479  10.943  26.276  0.00  0.00    +0.044 C 
ATOM     12  C2  UNL     1       9.156  11.607  27.438  0.00  0.00    -0.048 A 
ATOM     13  C3  UNL     1      10.535  11.454  27.635  0.00  0.00    +0.004 A 
ATOM     14  C4  UNL     1      11.173  12.104  28.695  0.00  0.00    +0.016 A 
ATOM     15  C5  UNL     1      10.443  12.919  29.577  0.00  0.00    +0.072 A 
ATOM     16  C17 UNL     1       9.062  13.099  29.357  0.00  0.00    +0.136 A 
ATOM     17  F1  UNL     1       8.335  13.942  30.131  0.00  0.00    -0.205 F 
ATOM     18  C18 UNL     1       8.428  12.448  28.294  0.00  0.00    +0.042 A 
ENDBRANCH   7  15
ENDBRANCH   1   9
BRANCH   5  19
ATOM     19  N2  UNL     1      13.061  14.685  35.638  0.00  0.00    -0.312 N 
ATOM     20  C12 UNL     1      14.278  14.645  36.396  0.00  0.00    +0.216 C 
ATOM     21  O2  UNL     1      14.537  13.658  37.136  0.00  0.00    -0.276 OA
ATOM     22  H15 UNL     1      12.878  15.530  35.049  0.00  0.00    +0.149 HD
BRANCH  20  23
ATOM     23  C13 UNL     1      15.273  15.759  36.273  0.00  0.00    +0.075 C 
ATOM     24  C14 UNL     1      15.435  16.613  37.522  0.00  0.00    +0.013 C 
ATOM     25  C15 UNL     1      14.670  17.154  36.328  0.00  0.00    +0.013 C 
ENDBRANCH  20  23
ENDBRANCH   5  19
TORSDOF 4
ENDMDL
MODEL 2
REMARK VINA RESULT:    -5.939      5.744     12.074
REMARK INTER + INTRA:          -7.786
REMARK INTER:                  -7.307
REMARK INTRA:                  -0.479
REMARK UNBOUND:                -0.458
REMARK  Name = /home/qwerty/github/datacon2025hack/step_04_hit_selection/docking/ligands/lig_141.pdb
REMARK  5 active torsions:
REMARK  status: ('A' for Active; 'I' for Inactive)
REMARK    1  A    between atoms: C1_1  and  C2_2
REMARK    2  A    between atoms: C5_5  and  C6_6
REMARK    3  A    between atoms: N1_8  and  C7_9
REMARK    4  A    between atoms: C11_13  and  N2_14
REMARK    5  A    between atoms: C12_15  and  C13_17
REMARK                            x       y       z     vdW  Elec       q    Type
REMARK                         _______ _______ _______ _____ _____    ______ ____
ROOT
ATOM      1  C7  UNL     1       8.450   9.583  24.337  0.00  0.00    +0.075 C 
ATOM      2  C8  UNL     1       7.246  10.402  23.797  0.00  0.00    +0.022 C 
ATOM      3  C9  UNL     1       7.592  11.178  22.522  0.00  0.00    +0.004 C 
ATOM      4  C10 UNL     1       8.053  10.244  21.386  0.00  0.00    +0.022 C 
ATOM      5  C11 UNL     1       8.844   9.002  21.877  0.00  0.00    +0.075 C 
ATOM      6  C16 UNL     1       9.502   9.274  23.242  0.00  0.00    +0.044 C 
ENDROOT
BRANCH   1   9
ATOM      7  C6  UNL     1       8.495  10.288  26.780  0.00  0.00    +0.247 C 
ATOM      8  O1  UNL     1       7.526   9.524  27.037  0.00  0.00    -0.270 OA
ATOM      9  N1  UNL     1       9.080  10.281  25.466  0.00  0.00    -0.308 N 
ATOM     10  H6  UNL     1      10.022  10.716  25.342  0.00  0.00    +0.149 HD
BRANCH   7  15
ATOM     11  C1  UNL     1      10.624  13.641  31.005  0.00  0.00    +0.044 C 
ATOM     12  C2  UNL     1      10.095  12.787  29.892  0.00  0.00    -0.048 A 
ATOM     13  C3  UNL     1      10.442  11.431  29.815  0.00  0.00    +0.004 A 
ATOM     14  C4  UNL     1       9.917  10.625  28.800  0.00  0.00    +0.016 A 
ATOM     15  C5  UNL     1       9.035  11.161  27.846  0.00  0.00    +0.072 A 
ATOM     16  C17 UNL     1       8.660  12.516  27.947  0.00  0.00    +0.136 A 
ATOM     17  F1  UNL     1       7.747  13.053  27.099  0.00  0.00    -0.205 F 
ATOM     18  C18 UNL     1       9.186  13.318  28.964  0.00  0.00    +0.042 A 
ENDBRANCH   7  15
ENDBRANCH   1   9
BRANCH   5  19
ATOM     19  N2  UNL     1       7.975   7.819  21.957  0.00  0.00    -0.312 N 
ATOM     20  C12 UNL     1       8.421   6.511  21.576  0.00  0.00    +0.216 C 
ATOM     21  O2  UNL     1       9.594   6.334  21.149  0.00  0.00    -0.276 OA
ATOM     22  H15 UNL     1       6.989   7.923  22.290  0.00  0.00    +0.149 HD
BRANCH  20  23
ATOM     23  C13 UNL     1       7.507   5.333  21.731  0.00  0.00    +0.075 C 
ATOM     24  C14 UNL     1       7.530   4.681  23.105  0.00  0.00    +0.013 C 
ATOM     25  C15 UNL     1       8.218   4.004  21.934  0.00  0.00    +0.013 C 
ENDBRANCH  20  23
ENDBRANCH   5  19
TORSDOF 4
ENDMDL
MODEL 3
REMARK VINA RESULT:    -5.816     14.577     16.187
REMARK INTER + INTRA:          -7.635
REMARK INTER:                  -7.152
REMARK INTRA:                  -0.482
REMARK UNBOUND:                -0.458
REMARK  Name = /home/qwerty/github/datacon2025hack/step_04_hit_selection/docking/ligands/lig_141.pdb
REMARK  5 active torsions:
REMARK  status: ('A' for Active; 'I' for Inactive)
REMARK    1  A    between atoms: C1_1  and  C2_2
REMARK    2  A    between atoms: C5_5  and  C6_6
REMARK    3  A    between atoms: N1_8  and  C7_9
REMARK    4  A    between atoms: C11_13  and  N2_14
REMARK    5  A    between atoms: C12_15  and  C13_17
REMARK                            x       y       z     vdW  Elec       q    Type
REMARK                         _______ _______ _______ _____ _____    ______ ____
ROOT
ATOM      1  C7  UNL     1      21.552   3.650  25.923  0.00  0.00    +0.075 C 
ATOM      2  C8  UNL     1      20.231   2.844  25.783  0.00  0.00    +0.022 C 
ATOM      3  C9  UNL     1      20.456   1.332  25.870  0.00  0.00    +0.004 C 
ATOM      4  C10 UNL     1      21.099   0.922  27.210  0.00  0.00    +0.022 C 
ATOM      5  C11 UNL     1      22.090   1.973  27.779  0.00  0.00    +0.075 C 
ATOM      6  C16 UNL     1      22.663   2.854  26.654  0.00  0.00    +0.044 C 
ENDROOT
BRANCH   1   9
ATOM      7  C6  UNL     1      21.540   5.298  23.988  0.00  0.00    +0.247 C 
ATOM      8  O1  UNL     1      20.842   6.108  24.657  0.00  0.00    -0.270 OA
ATOM      9  N1  UNL     1      22.024   4.094  24.606  0.00  0.00    -0.308 N 
ATOM     10  H6  UNL     1      22.796   3.572  24.133  0.00  0.00    +0.149 HD
BRANCH   7  15
ATOM     11  C1  UNL     1      22.875   6.624  18.502  0.00  0.00    +0.044 C 
ATOM     12  C2  UNL     1      22.548   6.255  19.919  0.00  0.00    -0.048 A 
ATOM     13  C3  UNL     1      23.172   6.918  20.984  0.00  0.00    +0.004 A 
ATOM     14  C4  UNL     1      22.838   6.602  22.304  0.00  0.00    +0.016 A 
ATOM     15  C5  UNL     1      21.874   5.618  22.582  0.00  0.00    +0.072 A 
ATOM     16  C17 UNL     1      21.223   4.977  21.508  0.00  0.00    +0.136 A 
ATOM     17  F1  UNL     1      20.227   4.083  21.729  0.00  0.00    -0.205 F 
ATOM     18  C18 UNL     1      21.558   5.298  20.189  0.00  0.00    +0.042 A 
ENDBRANCH   7  15
ENDBRANCH   1   9
BRANCH   5  19
ATOM     19  N2  UNL     1      21.445   2.808  28.802  0.00  0.00    -0.312 N 
ATOM     20  C12 UNL     1      21.746   2.682  30.198  0.00  0.00    +0.216 C 
ATOM     21  O2  UNL     1      22.585   1.831  30.597  0.00  0.00    -0.276 OA
ATOM     22  H15 UNL     1      20.730   3.517  28.517  0.00  0.00    +0.149 HD
BRANCH  20  23
ATOM     23  C13 UNL     1      21.096   3.599  31.190  0.00  0.00    +0.075 C 
ATOM     24  C14 UNL     1      21.801   4.933  31.386  0.00  0.00    +0.013 C 
ATOM     25  C15 UNL     1      21.915   3.853  32.446  0.00  0.00    +0.013 C 
ENDBRANCH  20  23
ENDBRANCH   5  19
TORSDOF 4
ENDMDL
MODEL 4
REMARK VINA RESULT:    -5.619      6.051      8.573
REMARK INTER + INTRA:          -7.391
REMARK INTER:                  -7.126
REMARK INTRA:                  -0.265
REMARK UNBOUND:                -0.458
REMARK  Name = /home/qwerty/github/datacon2025hack/step_04_hit_selection/docking/ligands/lig_141.pdb
REMARK  5 active torsions:
REMARK  status: ('A' for Active; 'I' for Inactive)
REMARK    1  A    between atoms: C1_1  and  C2_2
REMARK    2  A    between atoms: C5_5  and  C6_6
REMARK    3  A    between atoms: N1_8  and  C7_9
REMARK    4  A    between atoms: C11_13  and  N2_14
REMARK    5  A    between atoms: C12_15  and  C13_17
REMARK                            x       y       z     vdW  Elec       q    Type
REMARK                         _______ _______ _______ _____ _____    ______ ____
ROOT
ATOM      1  C7  UNL     1      16.101  10.244  36.817  0.00  0.00    +0.075 C 
ATOM      2  C8  UNL     1      16.804  10.294  35.433  0.00  0.00    +0.022 C 
ATOM      3  C9  UNL     1      18.071  11.154  35.450  0.00  0.00    +0.004 C 
ATOM      4  C10 UNL     1      19.106  10.634  36.467  0.00  0.00    +0.022 C 
ATOM      5  C11 UNL     1      18.476  10.005  37.740  0.00  0.00    +0.075 C 
ATOM      6  C16 UNL     1      17.065  10.567  37.988  0.00  0.00    +0.044 C 
ENDROOT
BRANCH   1   9
ATOM      7  C6  UNL     1      13.662  10.766  36.329  0.00  0.00    +0.247 C 
ATOM      8  O1  UNL     1      13.445   9.561  36.029  0.00  0.00    -0.270 OA
ATOM      9  N1  UNL     1      14.948  11.154  36.840  0.00  0.00    -0.308 N 
ATOM     10  H6  UNL     1      15.032  12.080  37.317  0.00  0.00    +0.149 HD
BRANCH   7  15
ATOM     11  C1  UNL     1       9.454  14.705  35.689  0.00  0.00    +0.044 C 
ATOM     12  C2  UNL     1      10.523  13.664  35.840  0.00  0.00    -0.048 A 
ATOM     13  C3  UNL     1      11.629  13.657  34.979  0.00  0.00    +0.004 A 
ATOM     14  C4  UNL     1      12.646  12.712  35.145  0.00  0.00    +0.016 A 
ATOM     15  C5  UNL     1      12.575  11.759  36.175  0.00  0.00    +0.072 A 
ATOM     16  C17 UNL     1      11.478  11.790  37.061  0.00  0.00    +0.136 A 
ATOM     17  F1  UNL     1      11.411  10.944  38.119  0.00  0.00    -0.205 F 
ATOM     18  C18 UNL     1      10.464  12.738  36.893  0.00  0.00    +0.042 A 
ENDBRANCH   7  15
ENDBRANCH   1   9
BRANCH   5  19
ATOM     19  N2  UNL     1      18.430   8.540  37.638  0.00  0.00    -0.312 N 
ATOM     20  C12 UNL     1      19.617   7.738  37.550  0.00  0.00    +0.216 C 
ATOM     21  O2  UNL     1      20.755   8.280  37.552  0.00  0.00    -0.276 OA
ATOM     22  H15 UNL     1      17.507   8.051  37.617  0.00  0.00    +0.149 HD
BRANCH  20  23
ATOM     23  C13 UNL     1      19.509   6.244  37.503  0.00  0.00    +0.075 C 
ATOM     24  C14 UNL     1      19.025   5.679  36.176  0.00  0.00    +0.013 C 
ATOM     25  C15 UNL     1      18.089   5.717  37.370  0.00  0.00    +0.013 C 
ENDBRANCH  20  23
ENDBRANCH   5  19
TORSDOF 4
ENDMDL
MODEL 5
REMARK VINA RESULT:    -5.571      8.499     11.100
REMARK INTER + INTRA:          -7.332
REMARK INTER:                  -6.883
REMARK INTRA:                  -0.449
REMARK UNBOUND:                -0.458
REMARK  Name = /home/qwerty/github/datacon2025hack/step_04_hit_selection/docking/ligands/lig_141.pdb
REMARK  5 active torsions:
REMARK  status: ('A' for Active; 'I' for Inactive)
REMARK    1  A    between atoms: C1_1  and  C2_2
REMARK    2  A    between atoms: C5_5  and  C6_6
REMARK    3  A    between atoms: N1_8  and  C7_9
REMARK    4  A    between atoms: C11_13  and  N2_14
REMARK    5  A    between atoms: C12_15  and  C13_17
REMARK                            x       y       z     vdW  Elec       q    Type
REMARK                         _______ _______ _______ _____ _____    ______ ____
ROOT
ATOM      1  C7  UNL     1      19.467   9.153  36.003  0.00  0.00    +0.075 C 
ATOM      2  C8  UNL     1      19.564   8.795  37.511  0.00  0.00    +0.022 C 
ATOM      3  C9  UNL     1      18.907   7.450  37.836  0.00  0.00    +0.004 C 
ATOM      4  C10 UNL     1      19.550   6.290  37.051  0.00  0.00    +0.022 C 
ATOM      5  C11 UNL     1      20.039   6.688  35.632  0.00  0.00    +0.075 C 
ATOM      6  C16 UNL     1      19.262   7.907  35.105  0.00  0.00    +0.044 C 
ENDROOT
BRANCH   1   9
ATOM      7  C6  UNL     1      18.540  11.518  36.112  0.00  0.00    +0.247 C 
ATOM      8  O1  UNL     1      19.674  11.969  36.427  0.00  0.00    -0.270 OA
ATOM      9  N1  UNL     1      18.392  10.128  35.776  0.00  0.00    -0.308 N 
ATOM     10  H6  UNL     1      17.523   9.830  35.278  0.00  0.00    +0.149 HD
BRANCH   7  15
ATOM     11  C1  UNL     1      14.048  15.180  35.890  0.00  0.00    +0.044 C 
ATOM     12  C2  UNL     1      15.192  14.211  35.932  0.00  0.00    -0.048 A 
ATOM     13  C3  UNL     1      16.267  14.346  35.042  0.00  0.00    +0.004 A 
ATOM     14  C4  UNL     1      17.351  13.467  35.107  0.00  0.00    +0.016 A 
ATOM     15  C5  UNL     1      17.382  12.439  36.065  0.00  0.00    +0.072 A 
ATOM     16  C17 UNL     1      16.316  12.326  36.981  0.00  0.00    +0.136 A 
ATOM     17  F1  UNL     1      16.343  11.402  37.974  0.00  0.00    -0.205 F 
ATOM     18  C18 UNL     1      15.233  13.209  36.913  0.00  0.00    +0.042 A 
ENDBRANCH   7  15
ENDBRANCH   1   9
BRANCH   5  19
ATOM     19  N2  UNL     1      21.483   6.963  35.628  0.00  0.00    -0.312 N 
ATOM     20  C12 UNL     1      22.419   6.147  34.909  0.00  0.00    +0.216 C 
ATOM     21  O2  UNL     1      22.022   5.148  34.251  0.00  0.00    -0.276 OA
ATOM     22  H15 UNL     1      21.857   7.773  36.173  0.00  0.00    +0.149 HD
BRANCH  20  23
ATOM     23  C13 UNL     1      23.873   6.509  34.898  0.00  0.00    +0.075 C 
ATOM     24  C14 UNL     1      24.285   7.469  33.791  0.00  0.00    +0.013 C 
ATOM     25  C15 UNL     1      24.642   5.997  33.689  0.00  0.00    +0.013 C 
ENDBRANCH  20  23
ENDBRANCH   5  19
TORSDOF 4
ENDMDL
MODEL 6
REMARK VINA RESULT:    -5.539      2.547      3.072
REMARK INTER + INTRA:          -7.292
REMARK INTER:                  -6.824
REMARK INTRA:                  -0.468
REMARK UNBOUND:                -0.458
REMARK  Name = /home/qwerty/github/datacon2025hack/step_04_hit_selection/docking/ligands/lig_141.pdb
REMARK  5 active torsions:
REMARK  status: ('A' for Active; 'I' for Inactive)
REMARK    1  A    between atoms: C1_1  and  C2_2
REMARK    2  A    between atoms: C5_5  and  C6_6
REMARK    3  A    between atoms: N1_8  and  C7_9
REMARK    4  A    between atoms: C11_13  and  N2_14
REMARK    5  A    between atoms: C12_15  and  C13_17
REMARK                            x       y       z     vdW  Elec       q    Type
REMARK                         _______ _______ _______ _____ _____    ______ ____
ROOT
ATOM      1  C7  UNL     1      11.988  12.185  34.860  0.00  0.00    +0.075 C 
ATOM      2  C8  UNL     1      11.124  12.971  35.884  0.00  0.00    +0.022 C 
ATOM      3  C9  UNL     1      10.521  12.063  36.960  0.00  0.00    +0.004 C 
ATOM      4  C10 UNL     1      11.608  11.318  37.760  0.00  0.00    +0.022 C 
ATOM      5  C11 UNL     1      12.859  10.942  36.920  0.00  0.00    +0.075 C 
ATOM      6  C16 UNL     1      12.506  10.838  35.426  0.00  0.00    +0.044 C 
ENDROOT
BRANCH   1   9
ATOM      7  C6  UNL     1      11.727  12.397  32.340  0.00  0.00    +0.247 C 
ATOM      8  O1  UNL     1      12.915  12.807  32.233  0.00  0.00    -0.270 OA
ATOM      9  N1  UNL     1      11.235  11.961  33.619  0.00  0.00    -0.308 N 
ATOM     10  H6  UNL     1      10.357  11.396  33.644  0.00  0.00    +0.149 HD
BRANCH   7  15
ATOM     11  C1  UNL     1       8.333  12.269  27.639  0.00  0.00    +0.044 C 
ATOM     12  C2  UNL     1       9.236  12.293  28.837  0.00  0.00    -0.048 A 
ATOM     13  C3  UNL     1       9.714  13.511  29.338  0.00  0.00    +0.004 A 
ATOM     14  C4  UNL     1      10.523  13.537  30.478  0.00  0.00    +0.016 A 
ATOM     15  C5  UNL     1      10.867  12.345  31.137  0.00  0.00    +0.072 A 
ATOM     16  C17 UNL     1      10.356  11.124  30.651  0.00  0.00    +0.136 A 
ATOM     17  F1  UNL     1      10.594   9.958  31.305  0.00  0.00    -0.205 F 
ATOM     18  C18 UNL     1       9.546  11.102  29.512  0.00  0.00    +0.042 A 
ENDBRANCH   7  15
ENDBRANCH   1   9
BRANCH   5  19
ATOM     19  N2  UNL     1      13.942  11.915  37.121  0.00  0.00    -0.312 N 
ATOM     20  C12 UNL     1      15.327  11.552  37.029  0.00  0.00    +0.216 C 
ATOM     21  O2  UNL     1      15.661  10.364  36.772  0.00  0.00    -0.276 OA
ATOM     22  H15 UNL     1      13.710  12.908  37.352  0.00  0.00    +0.149 HD
BRANCH  20  23
ATOM     23  C13 UNL     1      16.387  12.600  37.190  0.00  0.00    +0.075 C 
ATOM     24  C14 UNL     1      16.719  13.374  35.923  0.00  0.00    +0.013 C 
ATOM     25  C15 UNL     1      17.677  12.313  36.436  0.00  0.00    +0.013 C 
ENDBRANCH  20  23
ENDBRANCH   5  19
TORSDOF 4
ENDMDL
MODEL 7
REMARK VINA RESULT:    -5.529     13.497     16.243
REMARK INTER + INTRA:          -7.280
REMARK INTER:                  -6.808
REMARK INTRA:                  -0.472
REMARK UNBOUND:                -0.458
REMARK  Name = /home/qwerty/github/datacon2025hack/step_04_hit_selection/docking/ligands/lig_141.pdb
REMARK  5 active torsions:
REMARK  status: ('A' for Active; 'I' for Inactive)
REMARK    1  A    between atoms: C1_1  and  C2_2
REMARK    2  A    between atoms: C5_5  and  C6_6
REMARK    3  A    between atoms: N1_8  and  C7_9
REMARK    4  A    between atoms: C11_13  and  N2_14
REMARK    5  A    between atoms: C12_15  and  C13_17
REMARK                            x       y       z     vdW  Elec       q    Type
REMARK                         _______ _______ _______ _____ _____    ______ ____
ROOT
ATOM      1  C7  UNL     1      21.756   3.465  30.725  0.00  0.00    +0.075 C 
ATOM      2  C8  UNL     1      22.250   1.996  30.837  0.00  0.00    +0.022 C 
ATOM      3  C9  UNL     1      21.121   0.982  30.628  0.00  0.00    +0.004 C 
ATOM      4  C10 UNL     1      20.458   1.134  29.245  0.00  0.00    +0.022 C 
ATOM      5  C11 UNL     1      20.404   2.599  28.733  0.00  0.00    +0.075 C 
ATOM      6  C16 UNL     1      20.446   3.593  29.907  0.00  0.00    +0.044 C 
ENDROOT
BRANCH   1   9
ATOM      7  C6  UNL     1      22.137   5.332  32.408  0.00  0.00    +0.247 C 
ATOM      8  O1  UNL     1      22.616   6.072  31.507  0.00  0.00    -0.270 OA
ATOM      9  N1  UNL     1      21.583   4.051  32.060  0.00  0.00    -0.308 N 
ATOM     10  H6  UNL     1      20.971   3.571  32.758  0.00  0.00    +0.149 HD
BRANCH   7  15
ATOM     11  C1  UNL     1      22.022   7.238  37.884  0.00  0.00    +0.044 C 
ATOM     12  C2  UNL     1      22.056   6.715  36.478  0.00  0.00    -0.048 A 
ATOM     13  C3  UNL     1      20.868   6.580  35.746  0.00  0.00    +0.004 A 
ATOM     14  C4  UNL     1      20.903   6.130  34.423  0.00  0.00    +0.016 A 
ATOM     15  C5  UNL     1      22.126   5.809  33.809  0.00  0.00    +0.072 A 
ATOM     16  C17 UNL     1      23.321   5.980  34.536  0.00  0.00    +0.136 A 
ATOM     17  F1  UNL     1      24.528   5.763  33.956  0.00  0.00    -0.205 F 
ATOM     18  C18 UNL     1      23.282   6.431  35.859  0.00  0.00    +0.042 A 
ENDBRANCH   7  15
ENDBRANCH   1   9
BRANCH   5  19
ATOM     19  N2  UNL     1      21.501   2.873  27.795  0.00  0.00    -0.312 N 
ATOM     20  C12 UNL     1      21.271   3.338  26.457  0.00  0.00    +0.216 C 
ATOM     21  O2  UNL     1      20.097   3.525  26.039  0.00  0.00    -0.276 OA
ATOM     22  H15 UNL     1      22.491   2.716  28.094  0.00  0.00    +0.149 HD
BRANCH  20  23
ATOM     23  C13 UNL     1      22.432   3.652  25.563  0.00  0.00    +0.075 C 
ATOM     24  C14 UNL     1      22.982   5.064  25.700  0.00  0.00    +0.013 C 
ATOM     25  C15 UNL     1      22.141   4.692  24.492  0.00  0.00    +0.013 C 
ENDBRANCH  20  23
ENDBRANCH   5  19
TORSDOF 4
ENDMDL
MODEL 8
REMARK VINA RESULT:    -5.452     15.384     18.282
REMARK INTER + INTRA:          -7.185
REMARK INTER:                  -6.705
REMARK INTRA:                  -0.481
REMARK UNBOUND:                -0.458
REMARK  Name = /home/qwerty/github/datacon2025hack/step_04_hit_selection/docking/ligands/lig_141.pdb
REMARK  5 active torsions:
REMARK  status: ('A' for Active; 'I' for Inactive)
REMARK    1  A    between atoms: C1_1  and  C2_2
REMARK    2  A    between atoms: C5_5  and  C6_6
REMARK    3  A    between atoms: N1_8  and  C7_9
REMARK    4  A    between atoms: C11_13  and  N2_14
REMARK    5  A    between atoms: C12_15  and  C13_17
REMARK                            x       y       z     vdW  Elec       q    Type
REMARK                         _______ _______ _______ _____ _____    ______ ____
ROOT
ATOM      1  C7  UNL     1      17.952   0.311  25.118  0.00  0.00    +0.075 C 
ATOM      2  C8  UNL     1      18.447  -1.135  24.840  0.00  0.00    +0.022 C 
ATOM      3  C9  UNL     1      17.394  -2.191  25.188  0.00  0.00    +0.004 C 
ATOM      4  C10 UNL     1      16.093  -1.994  24.386  0.00  0.00    +0.022 C 
ATOM      5  C11 UNL     1      15.755  -0.507  24.093  0.00  0.00    +0.075 C 
ATOM      6  C16 UNL     1      16.406   0.419  25.136  0.00  0.00    +0.044 C 
ENDROOT
BRANCH   1   9
ATOM      7  C6  UNL     1      19.833   1.377  26.456  0.00  0.00    +0.247 C 
ATOM      8  O1  UNL     1      20.463   1.639  25.396  0.00  0.00    -0.270 OA
ATOM      9  N1  UNL     1      18.513   0.811  26.380  0.00  0.00    -0.308 N 
ATOM     10  H6  UNL     1      17.913   0.839  27.235  0.00  0.00    +0.149 HD
BRANCH   7  15
ATOM     11  C1  UNL     1      22.245   2.665  31.570  0.00  0.00    +0.044 C 
ATOM     12  C2  UNL     1      21.602   2.312  30.262  0.00  0.00    -0.048 A 
ATOM     13  C3  UNL     1      20.677   3.183  29.670  0.00  0.00    +0.004 A 
ATOM     14  C4  UNL     1      20.107   2.872  28.433  0.00  0.00    +0.016 A 
ATOM     15  C5  UNL     1      20.452   1.686  27.764  0.00  0.00    +0.072 A 
ATOM     16  C17 UNL     1      21.408   0.828  28.345  0.00  0.00    +0.136 A 
ATOM     17  F1  UNL     1      21.834  -0.285  27.696  0.00  0.00    -0.205 F 
ATOM     18  C18 UNL     1      21.978   1.143  29.582  0.00  0.00    +0.042 A 
ENDBRANCH   7  15
ENDBRANCH   1   9
BRANCH   5  19
ATOM     19  N2  UNL     1      16.177  -0.126  22.738  0.00  0.00    -0.312 N 
ATOM     20  C12 UNL     1      15.281   0.477  21.795  0.00  0.00    +0.216 C 
ATOM     21  O2  UNL     1      14.079   0.698  22.107  0.00  0.00    -0.276 OA
ATOM     22  H15 UNL     1      17.161  -0.306  22.433  0.00  0.00    +0.149 HD
BRANCH  20  23
ATOM     23  C13 UNL     1      15.782   0.894  20.446  0.00  0.00    +0.075 C 
ATOM     24  C14 UNL     1      16.482   2.245  20.413  0.00  0.00    +0.013 C 
ATOM     25  C15 UNL     1      15.076   2.106  19.857  0.00  0.00    +0.013 C 
ENDBRANCH  20  23
ENDBRANCH   5  19
TORSDOF 4
ENDMDL
MODEL 9
REMARK VINA RESULT:    -5.401     14.920     17.149
REMARK INTER + INTRA:          -7.122
REMARK INTER:                  -6.628
REMARK INTRA:                  -0.494
REMARK UNBOUND:                -0.458
REMARK  Name = /home/qwerty/github/datacon2025hack/step_04_hit_selection/docking/ligands/lig_141.pdb
REMARK  5 active torsions:
REMARK  status: ('A' for Active; 'I' for Inactive)
REMARK    1  A    between atoms: C1_1  and  C2_2
REMARK    2  A    between atoms: C5_5  and  C6_6
REMARK    3  A    between atoms: N1_8  and  C7_9
REMARK    4  A    between atoms: C11_13  and  N2_14
REMARK    5  A    between atoms: C12_15  and  C13_17
REMARK                            x       y       z     vdW  Elec       q    Type
REMARK                         _______ _______ _______ _____ _____    ______ ____
ROOT
ATOM      1  C7  UNL     1      21.319   5.156  23.397  0.00  0.00    +0.075 C 
ATOM      2  C8  UNL     1      20.673   4.240  22.322  0.00  0.00    +0.022 C 
ATOM      3  C9  UNL     1      19.326   4.776  21.828  0.00  0.00    +0.004 C 
ATOM      4  C10 UNL     1      19.457   6.181  21.209  0.00  0.00    +0.022 C 
ATOM      5  C11 UNL     1      20.540   7.066  21.883  0.00  0.00    +0.075 C 
ATOM      6  C16 UNL     1      20.795   6.613  23.332  0.00  0.00    +0.044 C 
ENDROOT
BRANCH   1   9
ATOM      7  C6  UNL     1      22.163   4.544  25.715  0.00  0.00    +0.247 C 
ATOM      8  O1  UNL     1      23.243   5.159  25.505  0.00  0.00    -0.270 OA
ATOM      9  N1  UNL     1      21.109   4.598  24.739  0.00  0.00    -0.308 N 
ATOM     10  H6  UNL     1      20.149   4.308  25.032  0.00  0.00    +0.149 HD
BRANCH   7  15
ATOM     11  C1  UNL     1      21.490   1.551  30.637  0.00  0.00    +0.044 C 
ATOM     12  C2  UNL     1      21.687   2.342  29.378  0.00  0.00    -0.048 A 
ATOM     13  C3  UNL     1      22.390   1.790  28.299  0.00  0.00    +0.004 A 
ATOM     14  C4  UNL     1      22.541   2.512  27.111  0.00  0.00    +0.016 A 
ATOM     15  C5  UNL     1      21.988   3.798  26.982  0.00  0.00    +0.072 A 
ATOM     16  C17 UNL     1      21.252   4.337  28.056  0.00  0.00    +0.136 A 
ATOM     17  F1  UNL     1      20.631   5.538  27.944  0.00  0.00    -0.205 F 
ATOM     18  C18 UNL     1      21.103   3.611  29.242  0.00  0.00    +0.042 A 
ENDBRANCH   7  15
ENDBRANCH   1   9
BRANCH   5  19
ATOM     19  N2  UNL     1      21.793   7.046  21.115  0.00  0.00    -0.312 N 
ATOM     20  C12 UNL     1      22.478   8.247  20.730  0.00  0.00    +0.216 C 
ATOM     21  O2  UNL     1      22.012   9.376  21.042  0.00  0.00    -0.276 OA
ATOM     22  H15 UNL     1      22.206   6.132  20.822  0.00  0.00    +0.149 HD
BRANCH  20  23
ATOM     23  C13 UNL     1      23.781   8.162  19.994  0.00  0.00    +0.075 C 
ATOM     24  C14 UNL     1      24.997   7.911  20.874  0.00  0.00    +0.013 C 
ATOM     25  C15 UNL     1      24.751   9.294  20.297  0.00  0.00    +0.013 C 
ENDBRANCH  20  23
ENDBRANCH   5  19
TORSDOF 4
ENDMDL
