REMARK  Name = /home/qwerty/github/datacon2025hack/step_04_hit_selection/docking/ligands/lig_613.pdb
REMARK  5 active torsions:
REMARK  status: ('A' for Active; 'I' for Inactive)
REMARK    1  A    between atoms: N1_3  and  C2_4
REMARK    2  A    between atoms: C2_4  and  C3_5
REMARK    3  A    between atoms: N2_9  and  C6_10
REMARK    4  A    between atoms: N3_14  and  C10_15
REMARK    5  A    between atoms: C12_17  and  C13_18
REMARK                            x       y       z     vdW  Elec       q    Type
REMARK                         _______ _______ _______ _____ _____    ______ ____
ROOT
ATOM      1  O1  UNL     1       0.574  -2.101  -0.042  0.00  0.00    -0.252 OA
ATOM      2  C1  UNL     1       0.323  -0.961   0.436  0.00  0.00    +0.306 C 
ATOM      3  N1  UNL     1      -0.988  -0.668   0.935  0.00  0.00    -0.299 N 
ATOM      4  N3  UNL     1       1.343   0.047   0.483  0.00  0.00    -0.238 N 
ATOM      5  H1  UNL     1      -1.170   0.284   1.327  0.00  0.00    +0.150 HD
ATOM      6  H14 UNL     1       1.107   0.977   0.896  0.00  0.00    +0.159 HD
ENDROOT
BRANCH   4   7
ATOM      7  C10 UNL     1       2.674  -0.159  -0.005  0.00  0.00    +0.226 A 
ATOM      8  C11 UNL     1       3.686   0.773   0.021  0.00  0.00    +0.097 A 
ATOM      9  C12 UNL     1       4.752   0.101  -0.556  0.00  0.00    +0.115 A 
ATOM     10  N4  UNL     1       4.363  -1.149  -0.891  0.00  0.00    -0.076 NA
ATOM     11  O3  UNL     1       3.114  -1.269  -0.547  0.00  0.00    -0.339 OA
BRANCH   9  12
ATOM     12  C13 UNL     1       6.119   0.627  -0.788  0.00  0.00    +0.004 A 
ATOM     13  C14 UNL     1       7.073  -0.166  -1.453  0.00  0.00    +0.013 A 
ATOM     14  C15 UNL     1       8.366   0.317  -1.678  0.00  0.00    +0.039 A 
ATOM     15  C16 UNL     1       8.722   1.595  -1.241  0.00  0.00    +0.123 A 
ATOM     16  F1  UNL     1       9.977   2.061  -1.457  0.00  0.00    -0.205 F 
ATOM     17  C17 UNL     1       7.786   2.392  -0.578  0.00  0.00    +0.039 A 
ATOM     18  C18 UNL     1       6.491   1.914  -0.351  0.00  0.00    +0.013 A 
ENDBRANCH   9  12
ENDBRANCH   4   7
BRANCH   3  19
ATOM     19  C2  UNL     1      -2.059  -1.664   0.901  0.00  0.00    +0.111 C 
BRANCH  19  20
ATOM     20  C3  UNL     1      -3.377  -1.089   1.452  0.00  0.00    +0.032 C 
ATOM     21  C4  UNL     1      -4.485  -2.162   1.527  0.00  0.00    +0.102 C 
ATOM     22  C5  UNL     1      -5.655  -1.479   0.943  0.00  0.00    +0.216 C 
ATOM     23  O2  UNL     1      -6.820  -1.957   0.953  0.00  0.00    -0.276 OA
ATOM     24  N2  UNL     1      -5.337  -0.230   0.364  0.00  0.00    -0.298 N 
ATOM     25  C9  UNL     1      -3.932   0.070   0.583  0.00  0.00    +0.113 C 
BRANCH  24  26
ATOM     26  C6  UNL     1      -6.327   0.745  -0.088  0.00  0.00    +0.076 C 
ATOM     27  C7  UNL     1      -7.085   0.307  -1.331  0.00  0.00    +0.024 C 
ATOM     28  C8  UNL     1      -6.012   1.379  -1.434  0.00  0.00    +0.024 C 
ENDBRANCH  24  26
ENDBRANCH  19  20
ENDBRANCH   3  19
TORSDOF 5
