MODEL 1
REMARK VINA RESULT:    -6.814      0.000      0.000
REMARK INTER + INTRA:          -9.456
REMARK INTER:                  -8.806
REMARK INTRA:                  -0.649
REMARK UNBOUND:                -0.649
REMARK  Name = /home/qwerty/github/datacon2025hack/step_04_hit_selection/docking/ligands/lig_191.pdb
REMARK  8 active torsions:
REMARK  status: ('A' for Active; 'I' for Inactive)
REMARK    1  A    between atoms: C1_1  and  C2_2
REMARK    2  A    between atoms: C2_2  and  C3_3
REMARK    3  A    between atoms: C2_2  and  C4_4
REMARK    4  A    between atoms: C4_4  and  C5_5
REMARK    5  A    between atoms: N1_7  and  C6_8
REMARK    6  A    between atoms: C9_11  and  N2_12
REMARK    7  A    between atoms: N3_15  and  C11_16
REMARK    8  A    between atoms: N4_22  and  C17_23
REMARK                            x       y       z     vdW  Elec       q    Type
REMARK                         _______ _______ _______ _____ _____    ______ ____
ROOT
ATOM      1  N2  UNL     1      10.996  14.345  30.772  0.00  0.00    -0.269 N 
ATOM      2  C10 UNL     1      11.488  13.704  31.958  0.00  0.00    +0.308 C 
ATOM      3  O2  UNL     1      11.504  12.445  32.041  0.00  0.00    -0.252 OA
ATOM      4  N3  UNL     1      11.961  14.507  33.050  0.00  0.00    -0.269 N 
ATOM      5  H13 UNL     1      11.244  15.351  30.629  0.00  0.00    +0.156 HD
ATOM      6  H14 UNL     1      11.689  15.516  33.059  0.00  0.00    +0.156 HD
ENDROOT
BRANCH   4   7
ATOM      7  C11 UNL     1      12.671  13.988  34.187  0.00  0.00    +0.037 A 
ATOM      8  C12 UNL     1      11.995  13.610  35.360  0.00  0.00    +0.027 A 
ATOM      9  C13 UNL     1      12.703  13.086  36.442  0.00  0.00    +0.049 A 
ATOM     10  C14 UNL     1      14.086  12.911  36.361  0.00  0.00    +0.143 A 
ATOM     11  C15 UNL     1      14.785  13.279  35.196  0.00  0.00    +0.080 A 
ATOM     12  C16 UNL     1      14.060  13.806  34.107  0.00  0.00    +0.050 A 
ATOM     13  N4  UNL     1      16.228  13.146  35.168  0.00  0.00    -0.269 N 
ATOM     14  C17 UNL     1      17.011  13.630  34.023  0.00  0.00    +0.138 C 
ATOM     15  C18 UNL     1      16.888  12.557  36.308  0.00  0.00    +0.257 C 
ATOM     16  O3  UNL     1      18.144  12.596  36.420  0.00  0.00    -0.272 OA
ATOM     17  C19 UNL     1      16.084  11.829  37.342  0.00  0.00    +0.325 C 
ATOM     18  O4  UNL     1      14.774  12.379  37.455  0.00  0.00    -0.481 OA
ENDBRANCH   4   7
BRANCH   1  22
ATOM     19  C6  UNL     1       8.877  12.271  27.716  0.00  0.00    +0.033 A 
ATOM     20  C7  UNL     1       8.214  12.743  28.857  0.00  0.00    +0.025 A 
ATOM     21  C8  UNL     1       8.918  13.421  29.857  0.00  0.00    +0.025 A 
ATOM     22  C9  UNL     1      10.291  13.667  29.718  0.00  0.00    +0.035 A 
ATOM     23  C20 UNL     1      10.958  13.195  28.574  0.00  0.00    +0.025 A 
ATOM     24  C21 UNL     1      10.255  12.515  27.576  0.00  0.00    +0.025 A 
BRANCH  19  27
ATOM     25  C5  UNL     1       8.236  10.189  26.413  0.00  0.00    +0.217 C 
ATOM     26  O1  UNL     1       8.864   9.424  27.195  0.00  0.00    -0.275 OA
ATOM     27  N1  UNL     1       8.127  11.593  26.694  0.00  0.00    -0.285 N 
ATOM     28  H10 UNL     1       7.389  12.135  26.190  0.00  0.00    +0.155 HD
BRANCH  25  29
ATOM     29  C4  UNL     1       7.534   9.603  25.221  0.00  0.00    +0.099 C 
BRANCH  29  31
ATOM     30  C1  UNL     1       7.914  10.300  22.827  0.00  0.00    +0.008 C 
ATOM     31  C2  UNL     1       8.473   9.486  24.001  0.00  0.00    -0.008 C 
ATOM     32  C3  UNL     1       8.672   8.024  23.578  0.00  0.00    +0.008 C 
ENDBRANCH  29  31
ENDBRANCH  25  29
ENDBRANCH  19  27
ENDBRANCH   1  22
TORSDOF 5
ENDMDL
MODEL 2
REMARK VINA RESULT:    -6.662      3.207     12.083
REMARK INTER + INTRA:          -9.258
REMARK INTER:                  -8.577
REMARK INTRA:                  -0.681
REMARK UNBOUND:                -0.649
REMARK  Name = /home/qwerty/github/datacon2025hack/step_04_hit_selection/docking/ligands/lig_191.pdb
REMARK  8 active torsions:
REMARK  status: ('A' for Active; 'I' for Inactive)
REMARK    1  A    between atoms: C1_1  and  C2_2
REMARK    2  A    between atoms: C2_2  and  C3_3
REMARK    3  A    between atoms: C2_2  and  C4_4
REMARK    4  A    between atoms: C4_4  and  C5_5
REMARK    5  A    between atoms: N1_7  and  C6_8
REMARK    6  A    between atoms: C9_11  and  N2_12
REMARK    7  A    between atoms: N3_15  and  C11_16
REMARK    8  A    between atoms: N4_22  and  C17_23
REMARK                            x       y       z     vdW  Elec       q    Type
REMARK                         _______ _______ _______ _____ _____    ______ ____
ROOT
ATOM      1  N2  UNL     1       7.706  10.801  26.776  0.00  0.00    -0.269 N 
ATOM      2  C10 UNL     1       8.380  10.339  25.596  0.00  0.00    +0.308 C 
ATOM      3  O2  UNL     1       9.640  10.383  25.524  0.00  0.00    -0.252 OA
ATOM      4  N3  UNL     1       7.611   9.828  24.497  0.00  0.00    -0.269 N 
ATOM      5  H13 UNL     1       6.712  10.504  26.909  0.00  0.00    +0.156 HD
ATOM      6  H14 UNL     1       6.590  10.052  24.479  0.00  0.00    +0.156 HD
ENDROOT
BRANCH   4   7
ATOM      7  C11 UNL     1       8.173   9.144  23.364  0.00  0.00    +0.037 A 
ATOM      8  C12 UNL     1       8.516   9.834  22.190  0.00  0.00    +0.027 A 
ATOM      9  C13 UNL     1       9.084   9.153  21.113  0.00  0.00    +0.049 A 
ATOM     10  C14 UNL     1       9.336   7.782  21.201  0.00  0.00    +0.143 A 
ATOM     11  C15 UNL     1       9.004   7.069  22.368  0.00  0.00    +0.080 A 
ATOM     12  C16 UNL     1       8.433   7.767  23.452  0.00  0.00    +0.050 A 
ATOM     13  N4  UNL     1       9.219   5.636  22.404  0.00  0.00    -0.269 N 
ATOM     14  C17 UNL     1       8.777   4.832  23.551  0.00  0.00    +0.138 C 
ATOM     15  C18 UNL     1       9.849   5.005  21.269  0.00  0.00    +0.257 C 
ATOM     16  O3  UNL     1       9.882   3.749  21.163  0.00  0.00    -0.272 OA
ATOM     17  C19 UNL     1      10.534   5.844  20.234  0.00  0.00    +0.325 C 
ATOM     18  O4  UNL     1       9.911   7.121  20.112  0.00  0.00    -0.481 OA
ENDBRANCH   4   7
BRANCH   1  22
ATOM     19  C6  UNL     1       9.643  13.021  29.848  0.00  0.00    +0.033 A 
ATOM     20  C7  UNL     1       9.056  13.670  28.754  0.00  0.00    +0.025 A 
ATOM     21  C8  UNL     1       8.424  12.933  27.748  0.00  0.00    +0.025 A 
ATOM     22  C9  UNL     1       8.340  11.536  27.835  0.00  0.00    +0.035 A 
ATOM     23  C20 UNL     1       8.929  10.883  28.933  0.00  0.00    +0.025 A 
ATOM     24  C21 UNL     1       9.563  11.621  29.937  0.00  0.00    +0.025 A 
BRANCH  19  27
ATOM     25  C5  UNL     1      11.681  14.072  30.939  0.00  0.00    +0.217 C 
ATOM     26  O1  UNL     1      12.430  13.794  29.963  0.00  0.00    -0.275 OA
ATOM     27  N1  UNL     1      10.271  13.804  30.878  0.00  0.00    -0.285 N 
ATOM     28  H10 UNL     1       9.653  14.285  31.570  0.00  0.00    +0.155 HD
BRANCH  25  29
ATOM     29  C4  UNL     1      12.265  14.761  32.139  0.00  0.00    +0.099 C 
BRANCH  29  31
ATOM     30  C1  UNL     1      11.255  14.081  34.347  0.00  0.00    +0.008 C 
ATOM     31  C2  UNL     1      12.385  13.808  33.347  0.00  0.00    -0.008 C 
ATOM     32  C3  UNL     1      13.746  13.946  34.044  0.00  0.00    +0.008 C 
ENDBRANCH  29  31
ENDBRANCH  25  29
ENDBRANCH  19  27
ENDBRANCH   1  22
TORSDOF 5
ENDMDL
MODEL 3
REMARK VINA RESULT:    -6.657     12.510     16.940
REMARK INTER + INTRA:          -9.252
REMARK INTER:                  -8.654
REMARK INTRA:                  -0.598
REMARK UNBOUND:                -0.649
REMARK  Name = /home/qwerty/github/datacon2025hack/step_04_hit_selection/docking/ligands/lig_191.pdb
REMARK  8 active torsions:
REMARK  status: ('A' for Active; 'I' for Inactive)
REMARK    1  A    between atoms: C1_1  and  C2_2
REMARK    2  A    between atoms: C2_2  and  C3_3
REMARK    3  A    between atoms: C2_2  and  C4_4
REMARK    4  A    between atoms: C4_4  and  C5_5
REMARK    5  A    between atoms: N1_7  and  C6_8
REMARK    6  A    between atoms: C9_11  and  N2_12
REMARK    7  A    between atoms: N3_15  and  C11_16
REMARK    8  A    between atoms: N4_22  and  C17_23
REMARK                            x       y       z     vdW  Elec       q    Type
REMARK                         _______ _______ _______ _____ _____    ______ ____
ROOT
ATOM      1  N2  UNL     1      15.594   0.177  22.602  0.00  0.00    -0.269 N 
ATOM      2  C10 UNL     1      14.347   0.777  22.981  0.00  0.00    +0.308 C 
ATOM      3  O2  UNL     1      14.297   1.583  23.951  0.00  0.00    -0.252 OA
ATOM      4  N3  UNL     1      13.155   0.453  22.248  0.00  0.00    -0.269 N 
ATOM      5  H13 UNL     1      15.650  -0.258  21.653  0.00  0.00    +0.156 HD
ATOM      6  H14 UNL     1      13.179  -0.400  21.644  0.00  0.00    +0.156 HD
ENDROOT
BRANCH   4   7
ATOM      7  C11 UNL     1      11.904   1.147  22.391  0.00  0.00    +0.037 A 
ATOM      8  C12 UNL     1      10.884   0.650  23.220  0.00  0.00    +0.027 A 
ATOM      9  C13 UNL     1       9.687   1.354  23.362  0.00  0.00    +0.049 A 
ATOM     10  C14 UNL     1       9.501   2.568  22.699  0.00  0.00    +0.143 A 
ATOM     11  C15 UNL     1      10.510   3.087  21.865  0.00  0.00    +0.080 A 
ATOM     12  C16 UNL     1      11.716   2.370  21.729  0.00  0.00    +0.050 A 
ATOM     13  N4  UNL     1      10.260   4.317  21.139  0.00  0.00    -0.269 N 
ATOM     14  C17 UNL     1      11.232   4.833  20.165  0.00  0.00    +0.138 C 
ATOM     15  C18 UNL     1       9.016   5.012  21.367  0.00  0.00    +0.257 C 
ATOM     16  O3  UNL     1       8.665   5.970  20.626  0.00  0.00    -0.272 OA
ATOM     17  C19 UNL     1       8.158   4.641  22.538  0.00  0.00    +0.325 C 
ATOM     18  O4  UNL     1       8.297   3.259  22.859  0.00  0.00    -0.481 OA
ENDBRANCH   4   7
BRANCH   1  22
ATOM     19  C6  UNL     1      19.100   0.352  25.011  0.00  0.00    +0.033 A 
ATOM     20  C7  UNL     1      18.270  -0.777  25.031  0.00  0.00    +0.025 A 
ATOM     21  C8  UNL     1      17.118  -0.825  24.238  0.00  0.00    +0.025 A 
ATOM     22  C9  UNL     1      16.795   0.242  23.388  0.00  0.00    +0.035 A 
ATOM     23  C20 UNL     1      17.627   1.375  23.366  0.00  0.00    +0.025 A 
ATOM     24  C21 UNL     1      18.776   1.424  24.160  0.00  0.00    +0.025 A 
BRANCH  19  27
ATOM     25  C5  UNL     1      20.461   1.202  26.979  0.00  0.00    +0.217 C 
ATOM     26  O1  UNL     1      19.484   1.832  27.468  0.00  0.00    -0.275 OA
ATOM     27  N1  UNL     1      20.287   0.368  25.821  0.00  0.00    -0.285 N 
ATOM     28  H10 UNL     1      21.031  -0.335  25.612  0.00  0.00    +0.155 HD
BRANCH  25  29
ATOM     29  C4  UNL     1      21.795   1.269  27.665  0.00  0.00    +0.099 C 
BRANCH  29  31
ATOM     30  C1  UNL     1      22.378   1.322  30.118  0.00  0.00    +0.008 C 
ATOM     31  C2  UNL     1      21.805   0.465  28.983  0.00  0.00    -0.008 C 
ATOM     32  C3  UNL     1      22.612  -0.834  28.847  0.00  0.00    +0.008 C 
ENDBRANCH  29  31
ENDBRANCH  25  29
ENDBRANCH  19  27
ENDBRANCH   1  22
TORSDOF 5
ENDMDL
MODEL 4
REMARK VINA RESULT:    -6.616     12.874     16.552
REMARK INTER + INTRA:          -9.200
REMARK INTER:                  -8.538
REMARK INTRA:                  -0.661
REMARK UNBOUND:                -0.649
REMARK  Name = /home/qwerty/github/datacon2025hack/step_04_hit_selection/docking/ligands/lig_191.pdb
REMARK  8 active torsions:
REMARK  status: ('A' for Active; 'I' for Inactive)
REMARK    1  A    between atoms: C1_1  and  C2_2
REMARK    2  A    between atoms: C2_2  and  C3_3
REMARK    3  A    between atoms: C2_2  and  C4_4
REMARK    4  A    between atoms: C4_4  and  C5_5
REMARK    5  A    between atoms: N1_7  and  C6_8
REMARK    6  A    between atoms: C9_11  and  N2_12
REMARK    7  A    between atoms: N3_15  and  C11_16
REMARK    8  A    between atoms: N4_22  and  C17_23
REMARK                            x       y       z     vdW  Elec       q    Type
REMARK                         _______ _______ _______ _____ _____    ______ ____
ROOT
ATOM      1  N2  UNL     1      22.403   2.021  29.672  0.00  0.00    -0.269 N 
ATOM      2  C10 UNL     1      21.864   2.724  28.542  0.00  0.00    +0.308 C 
ATOM      3  O2  UNL     1      20.880   3.500  28.685  0.00  0.00    -0.252 OA
ATOM      4  N3  UNL     1      22.454   2.536  27.247  0.00  0.00    -0.269 N 
ATOM      5  H13 UNL     1      23.360   1.613  29.573  0.00  0.00    +0.156 HD
ATOM      6  H14 UNL     1      23.074   1.704  27.116  0.00  0.00    +0.156 HD
ENDROOT
BRANCH   4   7
ATOM      7  C11 UNL     1      22.149   3.339  26.094  0.00  0.00    +0.037 A 
ATOM      8  C12 UNL     1      22.945   4.441  25.740  0.00  0.00    +0.027 A 
ATOM      9  C13 UNL     1      22.643   5.191  24.602  0.00  0.00    +0.049 A 
ATOM     10  C14 UNL     1      21.560   4.840  23.794  0.00  0.00    +0.143 A 
ATOM     11  C15 UNL     1      20.749   3.738  24.127  0.00  0.00    +0.080 A 
ATOM     12  C16 UNL     1      21.064   2.985  25.277  0.00  0.00    +0.050 A 
ATOM     13  N4  UNL     1      19.594   3.439  23.304  0.00  0.00    -0.269 N 
ATOM     14  C17 UNL     1      18.651   2.376  23.679  0.00  0.00    +0.138 C 
ATOM     15  C18 UNL     1      19.368   4.231  22.120  0.00  0.00    +0.257 C 
ATOM     16  O3  UNL     1      18.284   4.145  21.481  0.00  0.00    -0.272 OA
ATOM     17  C19 UNL     1      20.455   5.120  21.597  0.00  0.00    +0.325 C 
ATOM     18  O4  UNL     1      21.279   5.601  22.656  0.00  0.00    -0.481 OA
ENDBRANCH   4   7
BRANCH   1  22
ATOM     19  C6  UNL     1      20.429   1.810  33.438  0.00  0.00    +0.033 A 
ATOM     20  C7  UNL     1      20.151   0.879  32.428  0.00  0.00    +0.025 A 
ATOM     21  C8  UNL     1      20.802   0.958  31.192  0.00  0.00    +0.025 A 
ATOM     22  C9  UNL     1      21.766   1.949  30.958  0.00  0.00    +0.035 A 
ATOM     23  C20 UNL     1      22.047   2.883  31.971  0.00  0.00    +0.025 A 
ATOM     24  C21 UNL     1      21.394   2.805  33.204  0.00  0.00    +0.025 A 
BRANCH  19  27
ATOM     25  C5  UNL     1      18.582   2.437  35.063  0.00  0.00    +0.217 C 
ATOM     26  O1  UNL     1      17.948   3.094  34.193  0.00  0.00    -0.275 OA
ATOM     27  N1  UNL     1      19.759   1.695  34.705  0.00  0.00    -0.285 N 
ATOM     28  H10 UNL     1      20.093   0.961  35.369  0.00  0.00    +0.155 HD
BRANCH  25  29
ATOM     29  C4  UNL     1      18.049   2.372  36.466  0.00  0.00    +0.099 C 
BRANCH  29  31
ATOM     30  C1  UNL     1      16.772   0.280  35.871  0.00  0.00    +0.008 C 
ATOM     31  C2  UNL     1      17.720   0.924  36.890  0.00  0.00    -0.008 C 
ATOM     32  C3  UNL     1      17.098   0.873  38.292  0.00  0.00    +0.008 C 
ENDBRANCH  29  31
ENDBRANCH  25  29
ENDBRANCH  19  27
ENDBRANCH   1  22
TORSDOF 5
ENDMDL
MODEL 5
REMARK VINA RESULT:    -6.600     11.033     13.190
REMARK INTER + INTRA:          -9.178
REMARK INTER:                  -8.557
REMARK INTRA:                  -0.622
REMARK UNBOUND:                -0.649
REMARK  Name = /home/qwerty/github/datacon2025hack/step_04_hit_selection/docking/ligands/lig_191.pdb
REMARK  8 active torsions:
REMARK  status: ('A' for Active; 'I' for Inactive)
REMARK    1  A    between atoms: C1_1  and  C2_2
REMARK    2  A    between atoms: C2_2  and  C3_3
REMARK    3  A    between atoms: C2_2  and  C4_4
REMARK    4  A    between atoms: C4_4  and  C5_5
REMARK    5  A    between atoms: N1_7  and  C6_8
REMARK    6  A    between atoms: C9_11  and  N2_12
REMARK    7  A    between atoms: N3_15  and  C11_16
REMARK    8  A    between atoms: N4_22  and  C17_23
REMARK                            x       y       z     vdW  Elec       q    Type
REMARK                         _______ _______ _______ _____ _____    ______ ____
ROOT
ATOM      1  N2  UNL     1      22.334   2.431  31.819  0.00  0.00    -0.269 N 
ATOM      2  C10 UNL     1      22.187   3.801  32.223  0.00  0.00    +0.308 C 
ATOM      3  O2  UNL     1      21.464   4.588  31.553  0.00  0.00    -0.252 OA
ATOM      4  N3  UNL     1      22.871   4.268  33.396  0.00  0.00    -0.269 N 
ATOM      5  H13 UNL     1      22.706   1.758  32.527  0.00  0.00    +0.156 HD
ATOM      6  H14 UNL     1      23.655   3.681  33.762  0.00  0.00    +0.156 HD
ENDROOT
BRANCH   4   7
ATOM      7  C11 UNL     1      22.632   5.542  34.018  0.00  0.00    +0.037 A 
ATOM      8  C12 UNL     1      23.491   6.633  33.800  0.00  0.00    +0.027 A 
ATOM      9  C13 UNL     1      23.225   7.867  34.395  0.00  0.00    +0.049 A 
ATOM     10  C14 UNL     1      22.092   8.035  35.194  0.00  0.00    +0.143 A 
ATOM     11  C15 UNL     1      21.216   6.957  35.424  0.00  0.00    +0.080 A 
ATOM     12  C16 UNL     1      21.491   5.715  34.817  0.00  0.00    +0.050 A 
ATOM     13  N4  UNL     1      20.085   7.146  36.310  0.00  0.00    -0.269 N 
ATOM     14  C17 UNL     1      19.213   6.021  36.677  0.00  0.00    +0.138 C 
ATOM     15  C18 UNL     1      19.848   8.460  36.856  0.00  0.00    +0.257 C 
ATOM     16  O3  UNL     1      19.005   8.637  37.778  0.00  0.00    -0.272 OA
ATOM     17  C19 UNL     1      20.561   9.647  36.281  0.00  0.00    +0.325 C 
ATOM     18  O4  UNL     1      21.842   9.281  35.775  0.00  0.00    -0.481 OA
ENDBRANCH   4   7
BRANCH   1  22
ATOM     19  C6  UNL     1      21.068   0.962  28.029  0.00  0.00    +0.033 A 
ATOM     20  C7  UNL     1      22.418   1.246  28.275  0.00  0.00    +0.025 A 
ATOM     21  C8  UNL     1      22.825   1.731  29.522  0.00  0.00    +0.025 A 
ATOM     22  C9  UNL     1      21.893   1.909  30.554  0.00  0.00    +0.035 A 
ATOM     23  C20 UNL     1      20.538   1.624  30.310  0.00  0.00    +0.025 A 
ATOM     24  C21 UNL     1      20.132   1.142  29.062  0.00  0.00    +0.025 A 
BRANCH  19  27
ATOM     25  C5  UNL     1      20.156   1.255  25.678  0.00  0.00    +0.217 C 
ATOM     26  O1  UNL     1      20.198   2.514  25.746  0.00  0.00    -0.275 OA
ATOM     27  N1  UNL     1      20.679   0.447  26.745  0.00  0.00    -0.285 N 
ATOM     28  H10 UNL     1      20.875  -0.559  26.542  0.00  0.00    +0.155 HD
BRANCH  25  29
ATOM     29  C4  UNL     1      19.626   0.606  24.432  0.00  0.00    +0.099 C 
BRANCH  29  31
ATOM     30  C1  UNL     1      18.023  -1.292  24.868  0.00  0.00    +0.008 C 
ATOM     31  C2  UNL     1      18.141   0.209  24.578  0.00  0.00    -0.008 C 
ATOM     32  C3  UNL     1      17.333   0.566  23.322  0.00  0.00    +0.008 C 
ENDBRANCH  29  31
ENDBRANCH  25  29
ENDBRANCH  19  27
ENDBRANCH   1  22
TORSDOF 5
ENDMDL
MODEL 6
REMARK VINA RESULT:    -6.471     13.487     15.745
REMARK INTER + INTRA:          -9.012
REMARK INTER:                  -8.538
REMARK INTRA:                  -0.474
REMARK UNBOUND:                -0.649
REMARK  Name = /home/qwerty/github/datacon2025hack/step_04_hit_selection/docking/ligands/lig_191.pdb
REMARK  8 active torsions:
REMARK  status: ('A' for Active; 'I' for Inactive)
REMARK    1  A    between atoms: C1_1  and  C2_2
REMARK    2  A    between atoms: C2_2  and  C3_3
REMARK    3  A    between atoms: C2_2  and  C4_4
REMARK    4  A    between atoms: C4_4  and  C5_5
REMARK    5  A    between atoms: N1_7  and  C6_8
REMARK    6  A    between atoms: C9_11  and  N2_12
REMARK    7  A    between atoms: N3_15  and  C11_16
REMARK    8  A    between atoms: N4_22  and  C17_23
REMARK                            x       y       z     vdW  Elec       q    Type
REMARK                         _______ _______ _______ _____ _____    ______ ____
ROOT
ATOM      1  N2  UNL     1      16.975   7.855  18.770  0.00  0.00    -0.269 N 
ATOM      2  C10 UNL     1      16.963   6.816  19.760  0.00  0.00    +0.308 C 
ATOM      3  O2  UNL     1      17.290   7.068  20.952  0.00  0.00    -0.252 OA
ATOM      4  N3  UNL     1      16.577   5.486  19.382  0.00  0.00    -0.269 N 
ATOM      5  H13 UNL     1      16.450   7.681  17.882  0.00  0.00    +0.156 HD
ATOM      6  H14 UNL     1      16.575   5.256  18.362  0.00  0.00    +0.156 HD
ENDROOT
BRANCH   4   7
ATOM      7  C11 UNL     1      16.318   4.423  20.315  0.00  0.00    +0.037 A 
ATOM      8  C12 UNL     1      17.346   3.874  21.101  0.00  0.00    +0.027 A 
ATOM      9  C13 UNL     1      17.066   2.860  22.018  0.00  0.00    +0.049 A 
ATOM     10  C14 UNL     1      15.759   2.396  22.178  0.00  0.00    +0.143 A 
ATOM     11  C15 UNL     1      14.712   2.932  21.404  0.00  0.00    +0.080 A 
ATOM     12  C16 UNL     1      15.004   3.958  20.482  0.00  0.00    +0.050 A 
ATOM     13  N4  UNL     1      13.378   2.384  21.547  0.00  0.00    -0.269 N 
ATOM     14  C17 UNL     1      12.280   2.825  20.676  0.00  0.00    +0.138 C 
ATOM     15  C18 UNL     1      13.154   1.365  22.544  0.00  0.00    +0.257 C 
ATOM     16  O3  UNL     1      12.072   0.720  22.579  0.00  0.00    -0.272 OA
ATOM     17  C19 UNL     1      14.190   1.112  23.598  0.00  0.00    +0.325 C 
ATOM     18  O4  UNL     1      15.500   1.384  23.106  0.00  0.00    -0.481 OA
ENDBRANCH   4   7
BRANCH   1  22
ATOM     19  C6  UNL     1      18.639  11.740  19.287  0.00  0.00    +0.033 A 
ATOM     20  C7  UNL     1      17.253  11.539  19.338  0.00  0.00    +0.025 A 
ATOM     21  C8  UNL     1      16.715  10.260  19.164  0.00  0.00    +0.025 A 
ATOM     22  C9  UNL     1      17.555   9.155  18.969  0.00  0.00    +0.035 A 
ATOM     23  C20 UNL     1      18.946   9.354  18.918  0.00  0.00    +0.025 A 
ATOM     24  C21 UNL     1      19.484  10.633  19.089  0.00  0.00    +0.025 A 
BRANCH  19  27
ATOM     25  C5  UNL     1      19.618  13.565  20.755  0.00  0.00    +0.217 C 
ATOM     26  O1  UNL     1      19.760  12.790  21.740  0.00  0.00    -0.275 OA
ATOM     27  N1  UNL     1      19.167  13.061  19.487  0.00  0.00    -0.285 N 
ATOM     28  H10 UNL     1      19.321  13.659  18.644  0.00  0.00    +0.155 HD
BRANCH  25  29
ATOM     29  C4  UNL     1      20.001  15.010  20.898  0.00  0.00    +0.099 C 
BRANCH  29  31
ATOM     30  C1  UNL     1      21.858  16.147  22.171  0.00  0.00    +0.008 C 
ATOM     31  C2  UNL     1      21.530  15.191  21.018  0.00  0.00    -0.008 C 
ATOM     32  C3  UNL     1      22.143  15.714  19.712  0.00  0.00    +0.008 C 
ENDBRANCH  29  31
ENDBRANCH  25  29
ENDBRANCH  19  27
ENDBRANCH   1  22
TORSDOF 5
ENDMDL
MODEL 7
REMARK VINA RESULT:    -6.445     12.684     16.483
REMARK INTER + INTRA:          -8.979
REMARK INTER:                  -8.338
REMARK INTRA:                  -0.640
REMARK UNBOUND:                -0.649
REMARK  Name = /home/qwerty/github/datacon2025hack/step_04_hit_selection/docking/ligands/lig_191.pdb
REMARK  8 active torsions:
REMARK  status: ('A' for Active; 'I' for Inactive)
REMARK    1  A    between atoms: C1_1  and  C2_2
REMARK    2  A    between atoms: C2_2  and  C3_3
REMARK    3  A    between atoms: C2_2  and  C4_4
REMARK    4  A    between atoms: C4_4  and  C5_5
REMARK    5  A    between atoms: N1_7  and  C6_8
REMARK    6  A    between atoms: C9_11  and  N2_12
REMARK    7  A    between atoms: N3_15  and  C11_16
REMARK    8  A    between atoms: N4_22  and  C17_23
REMARK                            x       y       z     vdW  Elec       q    Type
REMARK                         _______ _______ _______ _____ _____    ______ ____
ROOT
ATOM      1  N2  UNL     1      22.358   5.459  25.685  0.00  0.00    -0.269 N 
ATOM      2  C10 UNL     1      21.726   5.433  24.396  0.00  0.00    +0.308 C 
ATOM      3  O2  UNL     1      20.734   4.681  24.189  0.00  0.00    -0.252 OA
ATOM      4  N3  UNL     1      22.232   6.270  23.345  0.00  0.00    -0.269 N 
ATOM      5  H13 UNL     1      22.983   6.270  25.898  0.00  0.00    +0.156 HD
ATOM      6  H14 UNL     1      23.193   6.664  23.464  0.00  0.00    +0.156 HD
ENDROOT
BRANCH   4   7
ATOM      7  C11 UNL     1      21.559   6.492  22.094  0.00  0.00    +0.037 A 
ATOM      8  C12 UNL     1      21.948   5.816  20.925  0.00  0.00    +0.027 A 
ATOM      9  C13 UNL     1      21.265   6.029  19.727  0.00  0.00    +0.049 A 
ATOM     10  C14 UNL     1      20.175   6.900  19.685  0.00  0.00    +0.143 A 
ATOM     11  C15 UNL     1      19.764   7.587  20.843  0.00  0.00    +0.080 A 
ATOM     12  C16 UNL     1      20.460   7.363  22.049  0.00  0.00    +0.050 A 
ATOM     13  N4  UNL     1      18.670   8.534  20.750  0.00  0.00    -0.269 N 
ATOM     14  C17 UNL     1      18.286   9.363  21.901  0.00  0.00    +0.138 C 
ATOM     15  C18 UNL     1      17.983   8.672  19.490  0.00  0.00    +0.257 C 
ATOM     16  O3  UNL     1      17.163   9.611  19.299  0.00  0.00    -0.272 OA
ATOM     17  C19 UNL     1      18.190   7.653  18.411  0.00  0.00    +0.325 C 
ATOM     18  O4  UNL     1      19.501   7.095  18.476  0.00  0.00    -0.481 OA
ENDBRANCH   4   7
BRANCH   1  22
ATOM     19  C6  UNL     1      21.615   2.720  28.858  0.00  0.00    +0.033 A 
ATOM     20  C7  UNL     1      21.143   4.037  28.921  0.00  0.00    +0.025 A 
ATOM     21  C8  UNL     1      21.394   4.932  27.875  0.00  0.00    +0.025 A 
ATOM     22  C9  UNL     1      22.093   4.514  26.735  0.00  0.00    +0.035 A 
ATOM     23  C20 UNL     1      22.568   3.192  26.669  0.00  0.00    +0.025 A 
ATOM     24  C21 UNL     1      22.319   2.299  27.716  0.00  0.00    +0.025 A 
BRANCH  19  27
ATOM     25  C5  UNL     1      20.091   1.097  30.079  0.00  0.00    +0.217 C 
ATOM     26  O1  UNL     1      19.253   1.071  29.138  0.00  0.00    -0.275 OA
ATOM     27  N1  UNL     1      21.328   1.815  29.938  0.00  0.00    -0.285 N 
ATOM     28  H10 UNL     1      22.099   1.595  30.608  0.00  0.00    +0.155 HD
BRANCH  25  29
ATOM     29  C4  UNL     1      19.821   0.302  31.324  0.00  0.00    +0.099 C 
BRANCH  29  31
ATOM     30  C1  UNL     1      20.151   1.757  33.358  0.00  0.00    +0.008 C 
ATOM     31  C2  UNL     1      19.115   1.150  32.405  0.00  0.00    -0.008 C 
ATOM     32  C3  UNL     1      18.095   0.320  33.198  0.00  0.00    +0.008 C 
ENDBRANCH  29  31
ENDBRANCH  25  29
ENDBRANCH  19  27
ENDBRANCH   1  22
TORSDOF 5
ENDMDL
MODEL 8
REMARK VINA RESULT:    -6.399     12.411     17.681
REMARK INTER + INTRA:          -8.919
REMARK INTER:                  -8.312
REMARK INTRA:                  -0.606
REMARK UNBOUND:                -0.649
REMARK  Name = /home/qwerty/github/datacon2025hack/step_04_hit_selection/docking/ligands/lig_191.pdb
REMARK  8 active torsions:
REMARK  status: ('A' for Active; 'I' for Inactive)
REMARK    1  A    between atoms: C1_1  and  C2_2
REMARK    2  A    between atoms: C2_2  and  C3_3
REMARK    3  A    between atoms: C2_2  and  C4_4
REMARK    4  A    between atoms: C4_4  and  C5_5
REMARK    5  A    between atoms: N1_7  and  C6_8
REMARK    6  A    between atoms: C9_11  and  N2_12
REMARK    7  A    between atoms: N3_15  and  C11_16
REMARK    8  A    between atoms: N4_22  and  C17_23
REMARK                            x       y       z     vdW  Elec       q    Type
REMARK                         _______ _______ _______ _____ _____    ______ ____
ROOT
ATOM      1  N2  UNL     1      20.972   0.751  26.353  0.00  0.00    -0.269 N 
ATOM      2  C10 UNL     1      19.619   0.509  25.941  0.00  0.00    +0.308 C 
ATOM      3  O2  UNL     1      18.656   0.865  26.676  0.00  0.00    -0.252 OA
ATOM      4  N3  UNL     1      19.368  -0.141  24.686  0.00  0.00    -0.269 N 
ATOM      5  H13 UNL     1      21.716   0.695  25.620  0.00  0.00    +0.156 HD
ATOM      6  H14 UNL     1      20.164  -0.653  24.242  0.00  0.00    +0.156 HD
ENDROOT
BRANCH   4   7
ATOM      7  C11 UNL     1      18.072  -0.241  24.071  0.00  0.00    +0.037 A 
ATOM      8  C12 UNL     1      17.232  -1.341  24.311  0.00  0.00    +0.027 A 
ATOM      9  C13 UNL     1      15.968  -1.404  23.723  0.00  0.00    +0.049 A 
ATOM     10  C14 UNL     1      15.519  -0.363  22.907  0.00  0.00    +0.143 A 
ATOM     11  C15 UNL     1      16.342   0.751  22.654  0.00  0.00    +0.080 A 
ATOM     12  C16 UNL     1      17.616   0.806  23.255  0.00  0.00    +0.050 A 
ATOM     13  N4  UNL     1      15.872   1.783  21.751  0.00  0.00    -0.269 N 
ATOM     14  C17 UNL     1      16.741   2.901  21.360  0.00  0.00    +0.138 C 
ATOM     15  C18 UNL     1      14.538   1.672  21.211  0.00  0.00    +0.257 C 
ATOM     16  O3  UNL     1      14.152   2.427  20.278  0.00  0.00    -0.272 OA
ATOM     17  C19 UNL     1      13.570   0.696  21.809  0.00  0.00    +0.325 C 
ATOM     18  O4  UNL     1      14.248  -0.444  22.332  0.00  0.00    -0.481 OA
ENDBRANCH   4   7
BRANCH   1  22
ATOM     19  C6  UNL     1      22.166   2.074  30.220  0.00  0.00    +0.033 A 
ATOM     20  C7  UNL     1      21.786   2.992  29.231  0.00  0.00    +0.025 A 
ATOM     21  C8  UNL     1      21.398   2.549  27.963  0.00  0.00    +0.025 A 
ATOM     22  C9  UNL     1      21.352   1.179  27.672  0.00  0.00    +0.035 A 
ATOM     23  C20 UNL     1      21.732   0.256  28.662  0.00  0.00    +0.025 A 
ATOM     24  C21 UNL     1      22.123   0.699  29.929  0.00  0.00    +0.025 A 
BRANCH  19  27
ATOM     25  C5  UNL     1      21.618   3.097  32.478  0.00  0.00    +0.217 C 
ATOM     26  O1  UNL     1      20.374   2.995  32.298  0.00  0.00    -0.275 OA
ATOM     27  N1  UNL     1      22.543   2.555  31.521  0.00  0.00    -0.285 N 
ATOM     28  H10 UNL     1      23.533   2.416  31.825  0.00  0.00    +0.155 HD
BRANCH  25  29
ATOM     29  C4  UNL     1      22.127   3.723  33.745  0.00  0.00    +0.099 C 
BRANCH  29  31
ATOM     30  C1  UNL     1      23.678   5.559  32.981  0.00  0.00    +0.008 C 
ATOM     31  C2  UNL     1      22.309   5.250  33.598  0.00  0.00    -0.008 C 
ATOM     32  C3  UNL     1      22.168   5.969  34.948  0.00  0.00    +0.008 C 
ENDBRANCH  29  31
ENDBRANCH  25  29
ENDBRANCH  19  27
ENDBRANCH   1  22
TORSDOF 5
ENDMDL
MODEL 9
REMARK VINA RESULT:    -6.348     14.290     16.296
REMARK INTER + INTRA:          -8.853
REMARK INTER:                  -8.689
REMARK INTRA:                  -0.164
REMARK UNBOUND:                -0.649
REMARK  Name = /home/qwerty/github/datacon2025hack/step_04_hit_selection/docking/ligands/lig_191.pdb
REMARK  8 active torsions:
REMARK  status: ('A' for Active; 'I' for Inactive)
REMARK    1  A    between atoms: C1_1  and  C2_2
REMARK    2  A    between atoms: C2_2  and  C3_3
REMARK    3  A    between atoms: C2_2  and  C4_4
REMARK    4  A    between atoms: C4_4  and  C5_5
REMARK    5  A    between atoms: N1_7  and  C6_8
REMARK    6  A    between atoms: C9_11  and  N2_12
REMARK    7  A    between atoms: N3_15  and  C11_16
REMARK    8  A    between atoms: N4_22  and  C17_23
REMARK                            x       y       z     vdW  Elec       q    Type
REMARK                         _______ _______ _______ _____ _____    ______ ____
ROOT
ATOM      1  N2  UNL     1      21.909   6.693  21.416  0.00  0.00    -0.269 N 
ATOM      2  C10 UNL     1      21.240   7.953  21.257  0.00  0.00    +0.308 C 
ATOM      3  O2  UNL     1      20.429   8.359  22.134  0.00  0.00    -0.252 OA
ATOM      4  N3  UNL     1      21.501   8.747  20.090  0.00  0.00    -0.269 N 
ATOM      5  H13 UNL     1      22.755   6.518  20.827  0.00  0.00    +0.156 HD
ATOM      6  H14 UNL     1      21.954   8.273  19.276  0.00  0.00    +0.156 HD
ENDROOT
BRANCH   4   7
ATOM      7  C11 UNL     1      21.066  10.108  19.924  0.00  0.00    +0.037 A 
ATOM      8  C12 UNL     1      19.920  10.422  19.174  0.00  0.00    +0.027 A 
ATOM      9  C13 UNL     1      19.503  11.748  19.048  0.00  0.00    +0.049 A 
ATOM     10  C14 UNL     1      20.208  12.771  19.683  0.00  0.00    +0.143 A 
ATOM     11  C15 UNL     1      21.358  12.481  20.442  0.00  0.00    +0.080 A 
ATOM     12  C16 UNL     1      21.770  11.138  20.566  0.00  0.00    +0.050 A 
ATOM     13  N4  UNL     1      22.105  13.573  21.034  0.00  0.00    -0.269 N 
ATOM     14  C17 UNL     1      23.376  13.331  21.731  0.00  0.00    +0.138 C 
ATOM     15  C18 UNL     1      21.592  14.914  20.897  0.00  0.00    +0.257 C 
ATOM     16  O3  UNL     1      22.293  15.912  21.218  0.00  0.00    -0.272 OA
ATOM     17  C19 UNL     1      20.184  15.130  20.431  0.00  0.00    +0.325 C 
ATOM     18  O4  UNL     1      19.770  14.092  19.547  0.00  0.00    -0.481 OA
ENDBRANCH   4   7
BRANCH   1  22
ATOM     19  C6  UNL     1      20.982   3.780  24.380  0.00  0.00    +0.033 A 
ATOM     20  C7  UNL     1      21.795   4.880  24.683  0.00  0.00    +0.025 A 
ATOM     21  C8  UNL     1      22.097   5.831  23.703  0.00  0.00    +0.025 A 
ATOM     22  C9  UNL     1      21.564   5.714  22.412  0.00  0.00    +0.035 A 
ATOM     23  C20 UNL     1      20.748   4.612  22.105  0.00  0.00    +0.025 A 
ATOM     24  C21 UNL     1      20.449   3.660  23.084  0.00  0.00    +0.025 A 
BRANCH  19  27
ATOM     25  C5  UNL     1      21.640   2.286  26.325  0.00  0.00    +0.217 C 
ATOM     26  O1  UNL     1      22.798   2.779  26.398  0.00  0.00    -0.275 OA
ATOM     27  N1  UNL     1      20.672   2.827  25.410  0.00  0.00    -0.285 N 
ATOM     28  H10 UNL     1      19.667   2.584  25.565  0.00  0.00    +0.155 HD
BRANCH  25  29
ATOM     29  C4  UNL     1      21.254   1.176  27.259  0.00  0.00    +0.099 C 
BRANCH  29  31
ATOM     30  C1  UNL     1      22.445  -0.454  28.771  0.00  0.00    +0.008 C 
ATOM     31  C2  UNL     1      22.260   1.027  28.421  0.00  0.00    -0.008 C 
ATOM     32  C3  UNL     1      21.808   1.807  29.665  0.00  0.00    +0.008 C 
ENDBRANCH  29  31
ENDBRANCH  25  29
ENDBRANCH  19  27
ENDBRANCH   1  22
TORSDOF 5
ENDMDL
