REMARK  Name = /home/qwerty/github/datacon2025hack/step_04_hit_selection/docking/ligands/lig_534.pdb
REMARK  4 active torsions:
REMARK  status: ('A' for Active; 'I' for Inactive)
REMARK    1  A    between atoms: C1_2  and  C11_14
REMARK    2  A    between atoms: N1_3  and  C2_4
REMARK    3  A    between atoms: C2_4  and  C3_5
REMARK    4  A    between atoms: N2_16  and  C12_17
REMARK                            x       y       z     vdW  Elec       q    Type
REMARK                         _______ _______ _______ _____ _____    ______ ____
ROOT
ATOM      1  O1  UNL     1      -1.863  -1.263  -1.761  0.00  0.00    -0.265 OA
ATOM      2  C1  UNL     1      -1.316  -0.150  -1.986  0.00  0.00    +0.300 C 
ATOM      3  N1  UNL     1      -2.118   0.979  -2.367  0.00  0.00    -0.303 N 
ATOM      4  H1  UNL     1      -1.655   1.887  -2.599  0.00  0.00    +0.149 HD
ENDROOT
BRANCH   2   5
ATOM      5  C11 UNL     1       0.147  -0.018  -1.849  0.00  0.00    +0.303 C 
ATOM      6  O3  UNL     1       0.693   1.097  -2.070  0.00  0.00    -0.265 OA
ATOM      7  N2  UNL     1       0.950  -1.160  -1.503  0.00  0.00    -0.276 N 
ATOM      8  H11 UNL     1       0.541  -2.111  -1.646  0.00  0.00    +0.155 HD
BRANCH   7   9
ATOM      9  C12 UNL     1       2.322  -1.078  -1.079  0.00  0.00    +0.052 A 
ATOM     10  C13 UNL     1       3.200  -2.127  -1.373  0.00  0.00    +0.134 A 
ATOM     11  N3  UNL     1       4.492  -2.079  -0.955  0.00  0.00    -0.258 NA
ATOM     12  C14 UNL     1       4.979  -1.041  -0.224  0.00  0.00    +0.045 A 
ATOM     13  C15 UNL     1       4.134   0.043   0.097  0.00  0.00    -0.024 A 
ATOM     14  C16 UNL     1       2.796   0.000  -0.316  0.00  0.00    +0.030 A 
ATOM     15  C17 UNL     1       4.602   1.179   0.976  0.00  0.00    +0.037 C 
ATOM     16  C18 UNL     1       6.129   1.293   1.025  0.00  0.00    +0.005 C 
ATOM     17  C19 UNL     1       6.760  -0.076   1.287  0.00  0.00    +0.006 C 
ATOM     18  C20 UNL     1       6.442  -1.038   0.138  0.00  0.00    +0.056 C 
ENDBRANCH   7   9
ENDBRANCH   2   5
BRANCH   3  19
ATOM     19  C2  UNL     1      -3.575   0.912  -2.447  0.00  0.00    +0.140 C 
BRANCH  19  20
ATOM     20  C3  UNL     1      -4.170   0.863  -1.066  0.00  0.00    -0.030 A 
ATOM     21  C4  UNL     1      -4.138   2.014  -0.243  0.00  0.00    +0.009 A 
ATOM     22  C5  UNL     1      -4.669   1.974   1.057  0.00  0.00    +0.046 A 
ATOM     23  C6  UNL     1      -5.218   0.776   1.508  0.00  0.00    +0.124 A 
ATOM     24  C7  UNL     1      -5.250  -0.340   0.724  0.00  0.00    -0.002 A 
ATOM     25  C8  UNL     1      -4.732  -0.333  -0.571  0.00  0.00    +0.012 A 
ATOM     26  C9  UNL     1      -5.883  -1.461   1.466  0.00  0.00    +0.080 C 
ATOM     27  C10 UNL     1      -6.224  -0.814   2.831  0.00  0.00    +0.234 C 
ATOM     28  O2  UNL     1      -5.777   0.540   2.744  0.00  0.00    -0.491 OA
ENDBRANCH  19  20
ENDBRANCH   3  19
TORSDOF 4
