MODEL 1
REMARK VINA RESULT:    -6.245      0.000      0.000
REMARK INTER + INTRA:          -8.447
REMARK INTER:                  -7.340
REMARK INTRA:                  -1.106
REMARK UNBOUND:                -1.106
REMARK  Name = /home/qwerty/github/datacon2025hack/step_04_hit_selection/docking/ligands/lig_678.pdb
REMARK  4 active torsions:
REMARK  status: ('A' for Active; 'I' for Inactive)
REMARK    1  A    between atoms: C1_1  and  C2_2
REMARK    2  A    between atoms: N1_4  and  C3_5
REMARK    3  A    between atoms: C6_8  and  N2_9
REMARK    4  A    between atoms: C11_16  and  C12_17
REMARK                            x       y       z     vdW  Elec       q    Type
REMARK                         _______ _______ _______ _____ _____    ______ ____
ROOT
ATOM      1  N2  UNL     1      19.813   9.149  34.646  0.00  0.00    -0.269 N 
ATOM      2  C7  UNL     1      21.206   9.088  34.301  0.00  0.00    +0.307 C 
ATOM      3  O2  UNL     1      21.740  10.051  33.687  0.00  0.00    -0.252 OA
ATOM      4  N3  UNL     1      21.987   7.924  34.614  0.00  0.00    -0.278 N 
ATOM      5  C8  UNL     1      23.194   7.583  33.880  0.00  0.00    +0.110 C 
ATOM      6  C9  UNL     1      24.034   6.739  34.827  0.00  0.00    +0.021 C 
ATOM      7  C10 UNL     1      23.080   6.253  35.916  0.00  0.00    +0.029 C 
ATOM      8  C11 UNL     1      21.892   7.218  35.887  0.00  0.00    +0.108 C 
ATOM      9  H7  UNL     1      19.250   8.272  34.570  0.00  0.00    +0.156 HD
ENDROOT
BRANCH   8  10
ATOM     10  C12 UNL     1      20.572   6.492  36.030  0.00  0.00    -0.023 A 
ATOM     11  C13 UNL     1      20.128   5.632  35.010  0.00  0.00    +0.009 A 
ATOM     12  C14 UNL     1      18.944   4.906  35.161  0.00  0.00    +0.050 A 
ATOM     13  C15 UNL     1      18.195   5.031  36.333  0.00  0.00    +0.162 A 
ATOM     14  C16 UNL     1      18.605   5.915  37.337  0.00  0.00    +0.162 A 
ATOM     15  C17 UNL     1      19.791   6.637  37.193  0.00  0.00    +0.055 A 
ATOM     16  O3  UNL     1      17.819   6.055  38.486  0.00  0.00    -0.485 OA
ATOM     17  C18 UNL     1      16.499   5.514  38.548  0.00  0.00    +0.270 C 
ATOM     18  C19 UNL     1      16.446   4.163  37.824  0.00  0.00    +0.270 C 
ATOM     19  O4  UNL     1      17.036   4.275  36.528  0.00  0.00    -0.485 OA
ENDBRANCH   8  10
BRANCH   1  23
ATOM     20  C3  UNL     1      17.700  12.747  35.475  0.00  0.00    +0.033 A 
ATOM     21  C4  UNL     1      18.657  12.272  36.384  0.00  0.00    +0.025 A 
ATOM     22  C5  UNL     1      19.360  11.091  36.120  0.00  0.00    +0.025 A 
ATOM     23  C6  UNL     1      19.122  10.374  34.934  0.00  0.00    +0.035 A 
ATOM     24  C20 UNL     1      18.152  10.841  34.035  0.00  0.00    +0.025 A 
ATOM     25  C21 UNL     1      17.458  12.026  34.294  0.00  0.00    +0.025 A 
BRANCH  20  29
ATOM     26  C1  UNL     1      15.209  15.426  36.767  0.00  0.00    +0.109 C 
ATOM     27  C2  UNL     1      15.800  14.082  36.487  0.00  0.00    +0.214 C 
ATOM     28  O1  UNL     1      15.213  13.049  36.904  0.00  0.00    -0.276 OA
ATOM     29  N1  UNL     1      16.996  13.979  35.702  0.00  0.00    -0.286 N 
ATOM     30  H4  UNL     1      17.309  14.829  35.173  0.00  0.00    +0.155 HD
ENDBRANCH  20  29
ENDBRANCH   1  23
TORSDOF 3
ENDMDL
MODEL 2
REMARK VINA RESULT:    -6.217     15.303     16.551
REMARK INTER + INTRA:          -8.413
REMARK INTER:                  -7.362
REMARK INTRA:                  -1.051
REMARK UNBOUND:                -1.106
REMARK  Name = /home/qwerty/github/datacon2025hack/step_04_hit_selection/docking/ligands/lig_678.pdb
REMARK  4 active torsions:
REMARK  status: ('A' for Active; 'I' for Inactive)
REMARK    1  A    between atoms: C1_1  and  C2_2
REMARK    2  A    between atoms: N1_4  and  C3_5
REMARK    3  A    between atoms: C6_8  and  N2_9
REMARK    4  A    between atoms: C11_16  and  C12_17
REMARK                            x       y       z     vdW  Elec       q    Type
REMARK                         _______ _______ _______ _____ _____    ______ ____
ROOT
ATOM      1  N2  UNL     1      12.973   1.157  22.044  0.00  0.00    -0.269 N 
ATOM      2  C7  UNL     1      13.223   2.266  21.166  0.00  0.00    +0.307 C 
ATOM      3  O2  UNL     1      12.257   2.949  20.733  0.00  0.00    -0.252 OA
ATOM      4  N3  UNL     1      14.560   2.578  20.744  0.00  0.00    -0.278 N 
ATOM      5  C8  UNL     1      14.834   3.309  19.518  0.00  0.00    +0.110 C 
ATOM      6  C9  UNL     1      16.189   3.968  19.719  0.00  0.00    +0.021 C 
ATOM      7  C10 UNL     1      16.849   3.231  20.881  0.00  0.00    +0.029 C 
ATOM      8  C11 UNL     1      15.706   2.558  21.647  0.00  0.00    +0.108 C 
ATOM      9  H7  UNL     1      13.554   0.296  21.925  0.00  0.00    +0.156 HD
ENDROOT
BRANCH   8  10
ATOM     10  C12 UNL     1      16.064   1.150  22.070  0.00  0.00    -0.023 A 
ATOM     11  C13 UNL     1      16.368   0.179  21.100  0.00  0.00    +0.009 A 
ATOM     12  C14 UNL     1      16.763  -1.106  21.482  0.00  0.00    +0.050 A 
ATOM     13  C15 UNL     1      16.861  -1.430  22.837  0.00  0.00    +0.162 A 
ATOM     14  C16 UNL     1      16.521  -0.484  23.811  0.00  0.00    +0.162 A 
ATOM     15  C17 UNL     1      16.132   0.803  23.434  0.00  0.00    +0.055 A 
ATOM     16  O3  UNL     1      16.588  -0.842  25.162  0.00  0.00    -0.485 OA
ATOM     17  C18 UNL     1      16.749  -2.204  25.557  0.00  0.00    +0.270 C 
ATOM     18  C19 UNL     1      17.701  -2.925  24.595  0.00  0.00    +0.270 C 
ATOM     19  O4  UNL     1      17.305  -2.691  23.243  0.00  0.00    -0.485 OA
ENDBRANCH   8  10
BRANCH   1  23
ATOM     20  C3  UNL     1       9.734   1.083  24.800  0.00  0.00    +0.033 A 
ATOM     21  C4  UNL     1       9.528   0.695  23.468  0.00  0.00    +0.025 A 
ATOM     22  C5  UNL     1      10.587   0.713  22.553  0.00  0.00    +0.025 A 
ATOM     23  C6  UNL     1      11.872   1.109  22.964  0.00  0.00    +0.035 A 
ATOM     24  C20 UNL     1      12.071   1.514  24.292  0.00  0.00    +0.025 A 
ATOM     25  C21 UNL     1      11.017   1.485  25.208  0.00  0.00    +0.025 A 
BRANCH  20  29
ATOM     26  C1  UNL     1       6.574   1.883  26.904  0.00  0.00    +0.109 C 
ATOM     27  C2  UNL     1       7.712   2.081  25.957  0.00  0.00    +0.214 C 
ATOM     28  O1  UNL     1       7.844   3.186  25.368  0.00  0.00    -0.276 OA
ATOM     29  N1  UNL     1       8.673   1.031  25.769  0.00  0.00    -0.286 N 
ATOM     30  H4  UNL     1       8.669   0.236  26.452  0.00  0.00    +0.155 HD
ENDBRANCH  20  29
ENDBRANCH   1  23
TORSDOF 3
ENDMDL
MODEL 3
REMARK VINA RESULT:    -6.211      9.220     12.336
REMARK INTER + INTRA:          -8.406
REMARK INTER:                  -7.364
REMARK INTRA:                  -1.043
REMARK UNBOUND:                -1.106
REMARK  Name = /home/qwerty/github/datacon2025hack/step_04_hit_selection/docking/ligands/lig_678.pdb
REMARK  4 active torsions:
REMARK  status: ('A' for Active; 'I' for Inactive)
REMARK    1  A    between atoms: C1_1  and  C2_2
REMARK    2  A    between atoms: N1_4  and  C3_5
REMARK    3  A    between atoms: C6_8  and  N2_9
REMARK    4  A    between atoms: C11_16  and  C12_17
REMARK                            x       y       z     vdW  Elec       q    Type
REMARK                         _______ _______ _______ _____ _____    ______ ____
ROOT
ATOM      1  N2  UNL     1      11.240  10.967  29.597  0.00  0.00    -0.269 N 
ATOM      2  C7  UNL     1      11.449  11.559  28.305  0.00  0.00    +0.307 C 
ATOM      3  O2  UNL     1      11.214  10.887  27.265  0.00  0.00    -0.252 OA
ATOM      4  N3  UNL     1      11.962  12.895  28.186  0.00  0.00    -0.278 N 
ATOM      5  C8  UNL     1      12.658  13.354  26.995  0.00  0.00    +0.110 C 
ATOM      6  C9  UNL     1      12.485  14.864  26.966  0.00  0.00    +0.021 C 
ATOM      7  C10 UNL     1      12.075  15.268  28.380  0.00  0.00    +0.029 C 
ATOM      8  C11 UNL     1      11.514  14.000  29.028  0.00  0.00    +0.108 C 
ATOM      9  H7  UNL     1      11.925  11.190  30.355  0.00  0.00    +0.156 HD
ENDROOT
BRANCH   8  10
ATOM     10  C12 UNL     1      11.982  13.842  30.458  0.00  0.00    -0.023 A 
ATOM     11  C13 UNL     1      13.334  13.566  30.730  0.00  0.00    +0.009 A 
ATOM     12  C14 UNL     1      13.789  13.484  32.048  0.00  0.00    +0.050 A 
ATOM     13  C15 UNL     1      12.898  13.680  33.106  0.00  0.00    +0.162 A 
ATOM     14  C16 UNL     1      11.543  13.915  32.848  0.00  0.00    +0.162 A 
ATOM     15  C17 UNL     1      11.085  14.004  31.532  0.00  0.00    +0.055 A 
ATOM     16  O3  UNL     1      10.661  14.070  33.923  0.00  0.00    -0.485 OA
ATOM     17  C18 UNL     1      11.058  13.749  35.256  0.00  0.00    +0.270 C 
ATOM     18  C19 UNL     1      12.518  14.157  35.486  0.00  0.00    +0.270 C 
ATOM     19  O4  UNL     1      13.342  13.656  34.431  0.00  0.00    -0.485 OA
ENDBRANCH   8  10
BRANCH   1  23
ATOM     20  C3  UNL     1       8.228   8.054  30.325  0.00  0.00    +0.033 A 
ATOM     21  C4  UNL     1       9.565   7.655  30.170  0.00  0.00    +0.025 A 
ATOM     22  C5  UNL     1      10.563   8.605  29.933  0.00  0.00    +0.025 A 
ATOM     23  C6  UNL     1      10.240   9.972  29.859  0.00  0.00    +0.035 A 
ATOM     24  C20 UNL     1       8.901  10.366  29.996  0.00  0.00    +0.025 A 
ATOM     25  C21 UNL     1       7.905   9.418  30.244  0.00  0.00    +0.025 A 
BRANCH  20  29
ATOM     26  C1  UNL     1       5.685   5.134  30.080  0.00  0.00    +0.109 C 
ATOM     27  C2  UNL     1       6.678   6.165  29.653  0.00  0.00    +0.214 C 
ATOM     28  O1  UNL     1       7.020   6.232  28.444  0.00  0.00    -0.276 OA
ATOM     29  N1  UNL     1       7.190   7.101  30.612  0.00  0.00    -0.286 N 
ATOM     30  H4  UNL     1       6.701   7.171  31.537  0.00  0.00    +0.155 HD
ENDBRANCH  20  29
ENDBRANCH   1  23
TORSDOF 3
ENDMDL
MODEL 4
REMARK VINA RESULT:    -6.061     15.534     17.695
REMARK INTER + INTRA:          -8.230
REMARK INTER:                  -7.311
REMARK INTRA:                  -0.919
REMARK UNBOUND:                -1.106
REMARK  Name = /home/qwerty/github/datacon2025hack/step_04_hit_selection/docking/ligands/lig_678.pdb
REMARK  4 active torsions:
REMARK  status: ('A' for Active; 'I' for Inactive)
REMARK    1  A    between atoms: C1_1  and  C2_2
REMARK    2  A    between atoms: N1_4  and  C3_5
REMARK    3  A    between atoms: C6_8  and  N2_9
REMARK    4  A    between atoms: C11_16  and  C12_17
REMARK                            x       y       z     vdW  Elec       q    Type
REMARK                         _______ _______ _______ _____ _____    ______ ____
ROOT
ATOM      1  N2  UNL     1      11.450   3.839  23.154  0.00  0.00    -0.269 N 
ATOM      2  C7  UNL     1      12.775   3.538  22.691  0.00  0.00    +0.307 C 
ATOM      3  O2  UNL     1      13.522   2.791  23.378  0.00  0.00    -0.252 OA
ATOM      4  N3  UNL     1      13.273   4.112  21.471  0.00  0.00    -0.278 N 
ATOM      5  C8  UNL     1      14.695   4.271  21.215  0.00  0.00    +0.110 C 
ATOM      6  C9  UNL     1      14.846   4.296  19.702  0.00  0.00    +0.021 C 
ATOM      7  C10 UNL     1      13.456   4.596  19.144  0.00  0.00    +0.029 C 
ATOM      8  C11 UNL     1      12.473   4.218  20.255  0.00  0.00    +0.108 C 
ATOM      9  H7  UNL     1      11.086   4.808  23.004  0.00  0.00    +0.156 HD
ENDROOT
BRANCH   8  10
ATOM     10  C12 UNL     1      11.365   5.237  20.399  0.00  0.00    -0.023 A 
ATOM     11  C13 UNL     1      10.027   4.814  20.503  0.00  0.00    +0.009 A 
ATOM     12  C14 UNL     1       9.003   5.743  20.702  0.00  0.00    +0.050 A 
ATOM     13  C15 UNL     1       9.307   7.103  20.801  0.00  0.00    +0.162 A 
ATOM     14  C16 UNL     1      10.628   7.540  20.657  0.00  0.00    +0.162 A 
ATOM     15  C17 UNL     1      11.656   6.614  20.465  0.00  0.00    +0.055 A 
ATOM     16  O3  UNL     1      10.905   8.910  20.721  0.00  0.00    -0.485 OA
ATOM     17  C18 UNL     1       9.856   9.877  20.677  0.00  0.00    +0.270 C 
ATOM     18  C19 UNL     1       8.638   9.373  21.461  0.00  0.00    +0.270 C 
ATOM     19  O4  UNL     1       8.305   8.045  21.053  0.00  0.00    -0.485 OA
ENDBRANCH   8  10
BRANCH   1  23
ATOM     20  C3  UNL     1       9.148   1.104  25.459  0.00  0.00    +0.033 A 
ATOM     21  C4  UNL     1       9.829   2.154  26.093  0.00  0.00    +0.025 A 
ATOM     22  C5  UNL     1      10.587   3.060  25.345  0.00  0.00    +0.025 A 
ATOM     23  C6  UNL     1      10.665   2.936  23.946  0.00  0.00    +0.035 A 
ATOM     24  C20 UNL     1       9.998   1.875  23.316  0.00  0.00    +0.025 A 
ATOM     25  C21 UNL     1       9.231   0.977  24.062  0.00  0.00    +0.025 A 
BRANCH  20  29
ATOM     26  C1  UNL     1       6.162  -0.609  27.248  0.00  0.00    +0.109 C 
ATOM     27  C2  UNL     1       6.972   0.456  26.583  0.00  0.00    +0.214 C 
ATOM     28  O1  UNL     1       6.471   1.598  26.410  0.00  0.00    -0.276 OA
ATOM     29  N1  UNL     1       8.328   0.185  26.200  0.00  0.00    -0.286 N 
ATOM     30  H4  UNL     1       8.780  -0.681  26.582  0.00  0.00    +0.155 HD
ENDBRANCH  20  29
ENDBRANCH   1  23
TORSDOF 3
ENDMDL
MODEL 5
REMARK VINA RESULT:    -6.011      4.290      9.354
REMARK INTER + INTRA:          -8.171
REMARK INTER:                  -7.085
REMARK INTRA:                  -1.086
REMARK UNBOUND:                -1.106
REMARK  Name = /home/qwerty/github/datacon2025hack/step_04_hit_selection/docking/ligands/lig_678.pdb
REMARK  4 active torsions:
REMARK  status: ('A' for Active; 'I' for Inactive)
REMARK    1  A    between atoms: C1_1  and  C2_2
REMARK    2  A    between atoms: N1_4  and  C3_5
REMARK    3  A    between atoms: C6_8  and  N2_9
REMARK    4  A    between atoms: C11_16  and  C12_17
REMARK                            x       y       z     vdW  Elec       q    Type
REMARK                         _______ _______ _______ _____ _____    ______ ____
ROOT
ATOM      1  N2  UNL     1      19.714   4.992  33.424  0.00  0.00    -0.269 N 
ATOM      2  C7  UNL     1      18.823   4.968  34.549  0.00  0.00    +0.307 C 
ATOM      3  O2  UNL     1      17.874   4.139  34.577  0.00  0.00    -0.252 OA
ATOM      4  N3  UNL     1      18.977   5.906  35.626  0.00  0.00    -0.278 N 
ATOM      5  C8  UNL     1      17.873   6.274  36.496  0.00  0.00    +0.110 C 
ATOM      6  C9  UNL     1      18.505   6.735  37.801  0.00  0.00    +0.021 C 
ATOM      7  C10 UNL     1      19.966   7.037  37.477  0.00  0.00    +0.029 C 
ATOM      8  C11 UNL     1      20.274   6.266  36.191  0.00  0.00    +0.108 C 
ATOM      9  H7  UNL     1      20.049   5.922  33.083  0.00  0.00    +0.156 HD
ENDROOT
BRANCH   8  10
ATOM     10  C12 UNL     1      21.100   7.088  35.225  0.00  0.00    -0.023 A 
ATOM     11  C13 UNL     1      20.578   8.280  34.690  0.00  0.00    +0.009 A 
ATOM     12  C14 UNL     1      21.357   9.079  33.850  0.00  0.00    +0.050 A 
ATOM     13  C15 UNL     1      22.663   8.696  33.539  0.00  0.00    +0.162 A 
ATOM     14  C16 UNL     1      23.178   7.492  34.032  0.00  0.00    +0.162 A 
ATOM     15  C17 UNL     1      22.406   6.693  34.877  0.00  0.00    +0.055 A 
ATOM     16  O3  UNL     1      24.476   7.108  33.675  0.00  0.00    -0.485 OA
ATOM     17  C18 UNL     1      25.185   7.781  32.635  0.00  0.00    +0.270 C 
ATOM     18  C19 UNL     1      24.888   9.285  32.679  0.00  0.00    +0.270 C 
ATOM     19  O4  UNL     1      23.478   9.507  32.744  0.00  0.00    -0.485 OA
ENDBRANCH   8  10
BRANCH   1  23
ATOM     20  C3  UNL     1      20.707   1.592  31.068  0.00  0.00    +0.033 A 
ATOM     21  C4  UNL     1      21.024   1.614  32.435  0.00  0.00    +0.025 A 
ATOM     22  C5  UNL     1      20.700   2.726  33.219  0.00  0.00    +0.025 A 
ATOM     23  C6  UNL     1      20.042   3.830  32.649  0.00  0.00    +0.035 A 
ATOM     24  C20 UNL     1      19.742   3.813  31.278  0.00  0.00    +0.025 A 
ATOM     25  C21 UNL     1      20.055   2.698  30.498  0.00  0.00    +0.025 A 
BRANCH  20  29
ATOM     26  C1  UNL     1      22.468  -1.023  28.808  0.00  0.00    +0.109 C 
ATOM     27  C2  UNL     1      22.219   0.259  29.533  0.00  0.00    +0.214 C 
ATOM     28  O1  UNL     1      23.070   1.184  29.467  0.00  0.00    -0.276 OA
ATOM     29  N1  UNL     1      20.990   0.444  30.251  0.00  0.00    -0.286 N 
ATOM     30  H4  UNL     1      20.215  -0.240  30.077  0.00  0.00    +0.155 HD
ENDBRANCH  20  29
ENDBRANCH   1  23
TORSDOF 3
ENDMDL
MODEL 6
REMARK VINA RESULT:    -5.965      9.086     11.841
REMARK INTER + INTRA:          -8.118
REMARK INTER:                  -7.015
REMARK INTRA:                  -1.104
REMARK UNBOUND:                -1.106
REMARK  Name = /home/qwerty/github/datacon2025hack/step_04_hit_selection/docking/ligands/lig_678.pdb
REMARK  4 active torsions:
REMARK  status: ('A' for Active; 'I' for Inactive)
REMARK    1  A    between atoms: C1_1  and  C2_2
REMARK    2  A    between atoms: N1_4  and  C3_5
REMARK    3  A    between atoms: C6_8  and  N2_9
REMARK    4  A    between atoms: C11_16  and  C12_17
REMARK                            x       y       z     vdW  Elec       q    Type
REMARK                         _______ _______ _______ _____ _____    ______ ____
ROOT
ATOM      1  N2  UNL     1      19.071   2.880  28.240  0.00  0.00    -0.269 N 
ATOM      2  C7  UNL     1      20.203   3.756  28.116  0.00  0.00    +0.307 C 
ATOM      3  O2  UNL     1      20.491   4.541  29.058  0.00  0.00    -0.252 OA
ATOM      4  N3  UNL     1      20.986   3.774  26.911  0.00  0.00    -0.278 N 
ATOM      5  C8  UNL     1      21.777   4.929  26.520  0.00  0.00    +0.110 C 
ATOM      6  C9  UNL     1      22.884   4.392  25.626  0.00  0.00    +0.021 C 
ATOM      7  C10 UNL     1      22.426   3.007  25.174  0.00  0.00    +0.029 C 
ATOM      8  C11 UNL     1      21.376   2.564  26.196  0.00  0.00    +0.108 C 
ATOM      9  H7  UNL     1      18.483   2.715  27.392  0.00  0.00    +0.156 HD
ENDROOT
BRANCH   8  10
ATOM     10  C12 UNL     1      20.192   1.895  25.533  0.00  0.00    -0.023 A 
ATOM     11  C13 UNL     1      19.350   2.635  24.683  0.00  0.00    +0.009 A 
ATOM     12  C14 UNL     1      18.294   2.012  24.015  0.00  0.00    +0.050 A 
ATOM     13  C15 UNL     1      18.070   0.644  24.188  0.00  0.00    +0.162 A 
ATOM     14  C16 UNL     1      18.875  -0.093  25.063  0.00  0.00    +0.162 A 
ATOM     15  C17 UNL     1      19.937   0.524  25.727  0.00  0.00    +0.055 A 
ATOM     16  O3  UNL     1      18.609  -1.454  25.251  0.00  0.00    -0.485 OA
ATOM     17  C18 UNL     1      17.400  -2.043  24.773  0.00  0.00    +0.270 C 
ATOM     18  C19 UNL     1      17.015  -1.436  23.418  0.00  0.00    +0.270 C 
ATOM     19  O4  UNL     1      17.052  -0.010  23.488  0.00  0.00    -0.485 OA
ENDBRANCH   8  10
BRANCH   1  23
ATOM     20  C3  UNL     1      17.798   1.292  31.976  0.00  0.00    +0.033 A 
ATOM     21  C4  UNL     1      17.160   2.422  31.441  0.00  0.00    +0.025 A 
ATOM     22  C5  UNL     1      17.569   2.951  30.213  0.00  0.00    +0.025 A 
ATOM     23  C6  UNL     1      18.617   2.348  29.494  0.00  0.00    +0.035 A 
ATOM     24  C20 UNL     1      19.265   1.230  30.038  0.00  0.00    +0.025 A 
ATOM     25  C21 UNL     1      18.849   0.695  31.260  0.00  0.00    +0.025 A 
BRANCH  20  29
ATOM     26  C1  UNL     1      17.219   0.551  35.740  0.00  0.00    +0.109 C 
ATOM     27  C2  UNL     1      17.815   1.145  34.505  0.00  0.00    +0.214 C 
ATOM     28  O1  UNL     1      18.739   1.993  34.610  0.00  0.00    -0.276 OA
ATOM     29  N1  UNL     1      17.368   0.704  33.215  0.00  0.00    -0.286 N 
ATOM     30  H4  UNL     1      16.786  -0.167  33.170  0.00  0.00    +0.155 HD
ENDBRANCH  20  29
ENDBRANCH   1  23
TORSDOF 3
ENDMDL
MODEL 7
REMARK VINA RESULT:    -5.964      3.015      8.240
REMARK INTER + INTRA:          -8.117
REMARK INTER:                  -7.237
REMARK INTRA:                  -0.880
REMARK UNBOUND:                -1.106
REMARK  Name = /home/qwerty/github/datacon2025hack/step_04_hit_selection/docking/ligands/lig_678.pdb
REMARK  4 active torsions:
REMARK  status: ('A' for Active; 'I' for Inactive)
REMARK    1  A    between atoms: C1_1  and  C2_2
REMARK    2  A    between atoms: N1_4  and  C3_5
REMARK    3  A    between atoms: C6_8  and  N2_9
REMARK    4  A    between atoms: C11_16  and  C12_17
REMARK                            x       y       z     vdW  Elec       q    Type
REMARK                         _______ _______ _______ _____ _____    ______ ____
ROOT
ATOM      1  N2  UNL     1      18.916   5.845  35.178  0.00  0.00    -0.269 N 
ATOM      2  C7  UNL     1      18.005   6.952  35.275  0.00  0.00    +0.307 C 
ATOM      3  O2  UNL     1      16.776   6.768  35.067  0.00  0.00    -0.252 OA
ATOM      4  N3  UNL     1      18.487   8.273  35.566  0.00  0.00    -0.278 N 
ATOM      5  C8  UNL     1      17.750   9.467  35.185  0.00  0.00    +0.110 C 
ATOM      6  C9  UNL     1      18.193  10.556  36.149  0.00  0.00    +0.021 C 
ATOM      7  C10 UNL     1      19.501  10.065  36.767  0.00  0.00    +0.029 C 
ATOM      8  C11 UNL     1      19.506   8.547  36.574  0.00  0.00    +0.108 C 
ATOM      9  H7  UNL     1      19.855   6.018  34.754  0.00  0.00    +0.156 HD
ENDROOT
BRANCH   8  10
ATOM     10  C12 UNL     1      20.866   8.037  36.150  0.00  0.00    -0.023 A 
ATOM     11  C13 UNL     1      21.554   7.112  36.956  0.00  0.00    +0.009 A 
ATOM     12  C14 UNL     1      22.780   6.585  36.543  0.00  0.00    +0.050 A 
ATOM     13  C15 UNL     1      23.328   6.976  35.319  0.00  0.00    +0.162 A 
ATOM     14  C16 UNL     1      22.673   7.927  34.528  0.00  0.00    +0.162 A 
ATOM     15  C17 UNL     1      21.445   8.451  34.935  0.00  0.00    +0.055 A 
ATOM     16  O3  UNL     1      23.260   8.334  33.325  0.00  0.00    -0.485 OA
ATOM     17  C18 UNL     1      24.611   7.996  33.011  0.00  0.00    +0.270 C 
ATOM     18  C19 UNL     1      24.928   6.576  33.499  0.00  0.00    +0.270 C 
ATOM     19  O4  UNL     1      24.527   6.422  34.861  0.00  0.00    -0.485 OA
ENDBRANCH   8  10
BRANCH   1  23
ATOM     20  C3  UNL     1      17.904   1.810  36.064  0.00  0.00    +0.033 A 
ATOM     21  C4  UNL     1      17.581   2.828  36.973  0.00  0.00    +0.025 A 
ATOM     22  C5  UNL     1      17.907   4.159  36.691  0.00  0.00    +0.025 A 
ATOM     23  C6  UNL     1      18.551   4.492  35.487  0.00  0.00    +0.035 A 
ATOM     24  C20 UNL     1      18.889   3.470  34.587  0.00  0.00    +0.025 A 
ATOM     25  C21 UNL     1      18.553   2.142  34.864  0.00  0.00    +0.025 A 
BRANCH  20  29
ATOM     26  C1  UNL     1      15.951  -1.532  36.333  0.00  0.00    +0.109 C 
ATOM     27  C2  UNL     1      16.207  -0.069  36.172  0.00  0.00    +0.214 C 
ATOM     28  O1  UNL     1      15.240   0.710  35.962  0.00  0.00    -0.276 OA
ATOM     29  N1  UNL     1      17.541   0.441  36.311  0.00  0.00    -0.286 N 
ATOM     30  H4  UNL     1      18.266  -0.193  36.726  0.00  0.00    +0.155 HD
ENDBRANCH  20  29
ENDBRANCH   1  23
TORSDOF 3
ENDMDL
MODEL 8
REMARK VINA RESULT:    -5.930     15.107     16.875
REMARK INTER + INTRA:          -8.076
REMARK INTER:                  -6.988
REMARK INTRA:                  -1.088
REMARK UNBOUND:                -1.106
REMARK  Name = /home/qwerty/github/datacon2025hack/step_04_hit_selection/docking/ligands/lig_678.pdb
REMARK  4 active torsions:
REMARK  status: ('A' for Active; 'I' for Inactive)
REMARK    1  A    between atoms: C1_1  and  C2_2
REMARK    2  A    between atoms: N1_4  and  C3_5
REMARK    3  A    between atoms: C6_8  and  N2_9
REMARK    4  A    between atoms: C11_16  and  C12_17
REMARK                            x       y       z     vdW  Elec       q    Type
REMARK                         _______ _______ _______ _____ _____    ______ ____
ROOT
ATOM      1  N2  UNL     1      13.489   2.278  22.765  0.00  0.00    -0.269 N 
ATOM      2  C7  UNL     1      13.760   0.966  23.281  0.00  0.00    +0.307 C 
ATOM      3  O2  UNL     1      12.939   0.422  24.067  0.00  0.00    -0.252 OA
ATOM      4  N3  UNL     1      14.978   0.283  22.941  0.00  0.00    -0.278 N 
ATOM      5  C8  UNL     1      15.541  -0.759  23.783  0.00  0.00    +0.110 C 
ATOM      6  C9  UNL     1      16.386  -1.627  22.864  0.00  0.00    +0.021 C 
ATOM      7  C10 UNL     1      16.637  -0.793  21.610  0.00  0.00    +0.029 C 
ATOM      8  C11 UNL     1      15.536   0.271  21.593  0.00  0.00    +0.108 C 
ATOM      9  H7  UNL     1      14.291   2.941  22.664  0.00  0.00    +0.156 HD
ENDROOT
BRANCH   8  10
ATOM     10  C12 UNL     1      16.071   1.629  21.195  0.00  0.00    -0.023 A 
ATOM     11  C13 UNL     1      15.646   2.230  19.996  0.00  0.00    +0.009 A 
ATOM     12  C14 UNL     1      16.082   3.511  19.651  0.00  0.00    +0.050 A 
ATOM     13  C15 UNL     1      16.945   4.205  20.502  0.00  0.00    +0.162 A 
ATOM     14  C16 UNL     1      17.408   3.602  21.678  0.00  0.00    +0.162 A 
ATOM     15  C17 UNL     1      16.969   2.324  22.029  0.00  0.00    +0.055 A 
ATOM     16  O3  UNL     1      18.303   4.299  22.496  0.00  0.00    -0.485 OA
ATOM     17  C18 UNL     1      18.942   5.492  22.042  0.00  0.00    +0.270 C 
ATOM     18  C19 UNL     1      17.969   6.327  21.200  0.00  0.00    +0.270 C 
ATOM     19  O4  UNL     1      17.352   5.509  20.204  0.00  0.00    -0.485 OA
ENDBRANCH   8  10
BRANCH   1  23
ATOM     20  C3  UNL     1       9.544   3.692  22.038  0.00  0.00    +0.033 A 
ATOM     21  C4  UNL     1      10.172   3.970  23.261  0.00  0.00    +0.025 A 
ATOM     22  C5  UNL     1      11.470   3.512  23.510  0.00  0.00    +0.025 A 
ATOM     23  C6  UNL     1      12.164   2.778  22.531  0.00  0.00    +0.035 A 
ATOM     24  C20 UNL     1      11.527   2.486  21.316  0.00  0.00    +0.025 A 
ATOM     25  C21 UNL     1      10.235   2.954  21.063  0.00  0.00    +0.025 A 
BRANCH  20  29
ATOM     26  C1  UNL     1       6.576   5.781  20.666  0.00  0.00    +0.109 C 
ATOM     27  C2  UNL     1       7.976   5.410  21.032  0.00  0.00    +0.214 C 
ATOM     28  O1  UNL     1       8.918   6.198  20.756  0.00  0.00    -0.276 OA
ATOM     29  N1  UNL     1       8.227   4.188  21.741  0.00  0.00    -0.286 N 
ATOM     30  H4  UNL     1       7.407   3.691  22.166  0.00  0.00    +0.155 HD
ENDBRANCH  20  29
ENDBRANCH   1  23
TORSDOF 3
ENDMDL
MODEL 9
REMARK VINA RESULT:    -5.778      7.736     11.043
REMARK INTER + INTRA:          -7.898
REMARK INTER:                  -6.792
REMARK INTRA:                  -1.106
REMARK UNBOUND:                -1.106
REMARK  Name = /home/qwerty/github/datacon2025hack/step_04_hit_selection/docking/ligands/lig_678.pdb
REMARK  4 active torsions:
REMARK  status: ('A' for Active; 'I' for Inactive)
REMARK    1  A    between atoms: C1_1  and  C2_2
REMARK    2  A    between atoms: N1_4  and  C3_5
REMARK    3  A    between atoms: C6_8  and  N2_9
REMARK    4  A    between atoms: C11_16  and  C12_17
REMARK                            x       y       z     vdW  Elec       q    Type
REMARK                         _______ _______ _______ _____ _____    ______ ____
ROOT
ATOM      1  N2  UNL     1      14.588  15.271  29.289  0.00  0.00    -0.269 N 
ATOM      2  C7  UNL     1      13.637  14.898  28.280  0.00  0.00    +0.307 C 
ATOM      3  O2  UNL     1      13.834  15.234  27.082  0.00  0.00    -0.252 OA
ATOM      4  N3  UNL     1      12.443  14.179  28.629  0.00  0.00    -0.278 N 
ATOM      5  C8  UNL     1      11.247  14.220  27.804  0.00  0.00    +0.110 C 
ATOM      6  C9  UNL     1      10.487  12.938  28.108  0.00  0.00    +0.021 C 
ATOM      7  C10 UNL     1      11.052  12.416  29.428  0.00  0.00    +0.029 C 
ATOM      8  C11 UNL     1      12.428  13.070  29.577  0.00  0.00    +0.108 C 
ATOM      9  H7  UNL     1      14.223  15.556  30.226  0.00  0.00    +0.156 HD
ENDROOT
BRANCH   8  10
ATOM     10  C12 UNL     1      12.679  13.538  30.994  0.00  0.00    -0.023 A 
ATOM     11  C13 UNL     1      11.832  14.497  31.579  0.00  0.00    +0.009 A 
ATOM     12  C14 UNL     1      12.015  14.886  32.908  0.00  0.00    +0.050 A 
ATOM     13  C15 UNL     1      13.043  14.320  33.665  0.00  0.00    +0.162 A 
ATOM     14  C16 UNL     1      13.917  13.396  33.081  0.00  0.00    +0.162 A 
ATOM     15  C17 UNL     1      13.734  12.999  31.755  0.00  0.00    +0.055 A 
ATOM     16  O3  UNL     1      14.965  12.870  33.845  0.00  0.00    -0.485 OA
ATOM     17  C18 UNL     1      15.310  13.434  35.110  0.00  0.00    +0.270 C 
ATOM     18  C19 UNL     1      14.044  13.865  35.861  0.00  0.00    +0.270 C 
ATOM     19  O4  UNL     1      13.211  14.655  35.011  0.00  0.00    -0.485 OA
ENDBRANCH   8  10
BRANCH   1  23
ATOM     20  C3  UNL     1      18.752  15.782  28.585  0.00  0.00    +0.033 A 
ATOM     21  C4  UNL     1      18.221  14.492  28.735  0.00  0.00    +0.025 A 
ATOM     22  C5  UNL     1      16.853  14.312  28.965  0.00  0.00    +0.025 A 
ATOM     23  C6  UNL     1      15.993  15.422  29.035  0.00  0.00    +0.035 A 
ATOM     24  C20 UNL     1      16.529  16.712  28.902  0.00  0.00    +0.025 A 
ATOM     25  C21 UNL     1      17.894  16.891  28.661  0.00  0.00    +0.025 A 
BRANCH  20  29
ATOM     26  C1  UNL     1      22.139  16.371  26.786  0.00  0.00    +0.109 C 
ATOM     27  C2  UNL     1      20.698  16.028  26.981  0.00  0.00    +0.214 C 
ATOM     28  O1  UNL     1      19.992  15.728  25.982  0.00  0.00    -0.276 OA
ATOM     29  N1  UNL     1      20.146  15.990  28.305  0.00  0.00    -0.286 N 
ATOM     30  H4  UNL     1      20.815  16.001  29.113  0.00  0.00    +0.155 HD
ENDBRANCH  20  29
ENDBRANCH   1  23
TORSDOF 3
ENDMDL
