MODEL 1
REMARK VINA RESULT:    -7.075      0.000      0.000
REMARK INTER + INTRA:          -9.754
REMARK INTER:                  -8.730
REMARK INTRA:                  -1.024
REMARK UNBOUND:                -1.024
REMARK  Name = /home/qwerty/github/datacon2025hack/step_04_hit_selection/docking/ligands/lig_787.pdb
REMARK  5 active torsions:
REMARK  status: ('A' for Active; 'I' for Inactive)
REMARK    1  A    between atoms: C1_1  and  O1_2
REMARK    2  A    between atoms: O1_2  and  C2_3
REMARK    3  A    between atoms: C5_6  and  C6_7
REMARK    4  A    between atoms: N1_9  and  C7_10
REMARK    5  A    between atoms: C12_16  and  C13_17
REMARK                            x       y       z     vdW  Elec       q    Type
REMARK                         _______ _______ _______ _____ _____    ______ ____
ROOT
ATOM      1  C7  UNL     1       7.752   9.856  27.535  0.00  0.00    +0.049 A 
ATOM      2  C8  UNL     1       7.210   8.697  28.111  0.00  0.00    +0.062 A 
ATOM      3  C9  UNL     1       7.181   8.542  29.499  0.00  0.00    +0.125 A 
ATOM      4  F1  UNL     1       6.668   7.411  30.044  0.00  0.00    -0.205 F 
ATOM      5  C10 UNL     1       7.680   9.548  30.325  0.00  0.00    +0.039 A 
ATOM      6  C11 UNL     1       8.198  10.720  29.768  0.00  0.00    +0.018 A 
ATOM      7  C12 UNL     1       8.231  10.893  28.374  0.00  0.00    +0.058 A 
ENDROOT
BRANCH   7   8
ATOM      8  C13 UNL     1       8.697  12.180  27.820  0.00  0.00    +0.249 C 
ATOM      9  O3  UNL     1       7.915  12.886  27.129  0.00  0.00    -0.270 OA
ATOM     10  N2  UNL     1      10.035  12.626  28.037  0.00  0.00    -0.292 N 
ATOM     11  C14 UNL     1      10.856  13.789  27.636  0.00  0.00    +0.145 C 
ATOM     12  C15 UNL     1      12.128  13.264  28.208  0.00  0.00    +0.144 C 
ATOM     13  C16 UNL     1      11.292  12.099  28.614  0.00  0.00    +0.145 C 
ATOM     14  N3  UNL     1      13.172  12.967  27.232  0.00  0.00    -0.282 N 
ATOM     15  C17 UNL     1      14.365  13.564  27.732  0.00  0.00    +0.307 C 
ATOM     16  O4  UNL     1      15.471  13.502  27.133  0.00  0.00    -0.252 OA
ATOM     17  N4  UNL     1      14.188  14.236  28.971  0.00  0.00    -0.238 N 
ATOM     18  C18 UNL     1      12.812  14.058  29.276  0.00  0.00    +0.247 C 
ATOM     19  O5  UNL     1      12.264  14.518  30.313  0.00  0.00    -0.273 OA
ATOM     20  H14 UNL     1      13.072  12.427  26.344  0.00  0.00    +0.151 HD
ATOM     21  H15 UNL     1      14.907  14.746  29.532  0.00  0.00    +0.159 HD
ENDBRANCH   7   8
BRANCH   1  24
ATOM     22  C6  UNL     1       8.859   9.348  25.331  0.00  0.00    +0.248 C 
ATOM     23  O2  UNL     1       9.602   8.478  25.866  0.00  0.00    -0.270 OA
ATOM     24  N1  UNL     1       7.809   9.955  26.103  0.00  0.00    -0.281 N 
ATOM     25  H6  UNL     1       6.954  10.288  25.603  0.00  0.00    +0.155 HD
BRANCH  22  29
ATOM     26  C2  UNL     1       9.496  10.435  21.214  0.00  0.00    +0.120 A 
ATOM     27  C3  UNL     1       8.194  10.417  21.749  0.00  0.00    +0.046 A 
ATOM     28  C4  UNL     1       7.985  10.063  23.085  0.00  0.00    +0.016 A 
ATOM     29  C5  UNL     1       9.069   9.714  23.911  0.00  0.00    +0.037 A 
ATOM     30  C19 UNL     1      10.368   9.744  23.373  0.00  0.00    +0.016 A 
ATOM     31  C20 UNL     1      10.575  10.098  22.037  0.00  0.00    +0.046 A 
BRANCH  26  33
ATOM     32  C1  UNL     1      10.928  10.403  19.165  0.00  0.00    +0.277 C 
ATOM     33  O1  UNL     1       9.756  10.782  19.880  0.00  0.00    -0.495 OA
ENDBRANCH  26  33
ENDBRANCH  22  29
ENDBRANCH   1  24
TORSDOF 4
ENDMDL
MODEL 2
REMARK VINA RESULT:    -7.018      4.467      9.517
REMARK INTER + INTRA:          -9.683
REMARK INTER:                  -8.547
REMARK INTRA:                  -1.136
REMARK UNBOUND:                -1.024
REMARK  Name = /home/qwerty/github/datacon2025hack/step_04_hit_selection/docking/ligands/lig_787.pdb
REMARK  5 active torsions:
REMARK  status: ('A' for Active; 'I' for Inactive)
REMARK    1  A    between atoms: C1_1  and  O1_2
REMARK    2  A    between atoms: O1_2  and  C2_3
REMARK    3  A    between atoms: C5_6  and  C6_7
REMARK    4  A    between atoms: N1_9  and  C7_10
REMARK    5  A    between atoms: C12_16  and  C13_17
REMARK                            x       y       z     vdW  Elec       q    Type
REMARK                         _______ _______ _______ _____ _____    ______ ____
ROOT
ATOM      1  C7  UNL     1      11.692  14.183  29.675  0.00  0.00    +0.049 A 
ATOM      2  C8  UNL     1      12.805  14.813  29.097  0.00  0.00    +0.062 A 
ATOM      3  C9  UNL     1      12.963  14.839  27.709  0.00  0.00    +0.125 A 
ATOM      4  F1  UNL     1      14.050  15.437  27.163  0.00  0.00    -0.205 F 
ATOM      5  C10 UNL     1      12.005  14.248  26.886  0.00  0.00    +0.039 A 
ATOM      6  C11 UNL     1      10.878  13.641  27.445  0.00  0.00    +0.018 A 
ATOM      7  C12 UNL     1      10.702  13.609  28.839  0.00  0.00    +0.058 A 
ENDROOT
BRANCH   7   8
ATOM      8  C13 UNL     1       9.456  13.045  29.393  0.00  0.00    +0.249 C 
ATOM      9  O3  UNL     1       8.664  13.783  30.037  0.00  0.00    -0.270 OA
ATOM     10  N2  UNL     1       9.146  11.661  29.230  0.00  0.00    -0.292 N 
ATOM     11  C14 UNL     1       8.060  10.749  29.649  0.00  0.00    +0.145 C 
ATOM     12  C15 UNL     1       8.718   9.510  29.144  0.00  0.00    +0.144 C 
ATOM     13  C16 UNL     1       9.804  10.438  28.718  0.00  0.00    +0.145 C 
ATOM     14  N3  UNL     1       9.095   8.544  30.170  0.00  0.00    -0.282 N 
ATOM     15  C17 UNL     1       8.626   7.277  29.716  0.00  0.00    +0.307 C 
ATOM     16  O4  UNL     1       8.784   6.210  30.364  0.00  0.00    -0.252 OA
ATOM     17  N4  UNL     1       7.965   7.334  28.460  0.00  0.00    -0.238 N 
ATOM     18  C18 UNL     1       8.015   8.707  28.096  0.00  0.00    +0.247 C 
ATOM     19  O5  UNL     1       7.525   9.161  27.028  0.00  0.00    -0.273 OA
ATOM     20  H14 UNL     1       9.606   8.734  31.061  0.00  0.00    +0.151 HD
ATOM     21  H15 UNL     1       7.539   6.545  27.924  0.00  0.00    +0.159 HD
ENDBRANCH   7   8
BRANCH   1  24
ATOM     22  C6  UNL     1      12.078  13.020  31.876  0.00  0.00    +0.248 C 
ATOM     23  O2  UNL     1      12.857  12.186  31.336  0.00  0.00    -0.270 OA
ATOM     24  N1  UNL     1      11.592  14.134  31.107  0.00  0.00    -0.281 N 
ATOM     25  H6  UNL     1      11.358  15.020  31.610  0.00  0.00    +0.155 HD
BRANCH  22  29
ATOM     26  C2  UNL     1      10.943  12.497  35.996  0.00  0.00    +0.120 A 
ATOM     27  C3  UNL     1      10.920  13.777  35.411  0.00  0.00    +0.046 A 
ATOM     28  C4  UNL     1      11.290  13.949  34.074  0.00  0.00    +0.016 A 
ATOM     29  C5  UNL     1      11.696  12.850  33.297  0.00  0.00    +0.037 A 
ATOM     30  C19 UNL     1      11.707  11.572  33.884  0.00  0.00    +0.016 A 
ATOM     31  C20 UNL     1      11.337  11.402  35.221  0.00  0.00    +0.046 A 
BRANCH  26  33
ATOM     32  C1  UNL     1      10.950  11.120  38.082  0.00  0.00    +0.277 C 
ATOM     33  O1  UNL     1      10.582  12.273  37.333  0.00  0.00    -0.495 OA
ENDBRANCH  26  33
ENDBRANCH  22  29
ENDBRANCH   1  24
TORSDOF 4
ENDMDL
MODEL 3
REMARK VINA RESULT:    -6.959      5.952      8.720
REMARK INTER + INTRA:          -9.611
REMARK INTER:                  -8.554
REMARK INTRA:                  -1.056
REMARK UNBOUND:                -1.024
REMARK  Name = /home/qwerty/github/datacon2025hack/step_04_hit_selection/docking/ligands/lig_787.pdb
REMARK  5 active torsions:
REMARK  status: ('A' for Active; 'I' for Inactive)
REMARK    1  A    between atoms: C1_1  and  O1_2
REMARK    2  A    between atoms: O1_2  and  C2_3
REMARK    3  A    between atoms: C5_6  and  C6_7
REMARK    4  A    between atoms: N1_9  and  C7_10
REMARK    5  A    between atoms: C12_16  and  C13_17
REMARK                            x       y       z     vdW  Elec       q    Type
REMARK                         _______ _______ _______ _____ _____    ______ ____
ROOT
ATOM      1  C7  UNL     1      12.260  11.881  34.791  0.00  0.00    +0.049 A 
ATOM      2  C8  UNL     1      11.298  10.872  34.947  0.00  0.00    +0.062 A 
ATOM      3  C9  UNL     1      11.093  10.276  36.194  0.00  0.00    +0.125 A 
ATOM      4  F1  UNL     1      10.171   9.291  36.330  0.00  0.00    -0.205 F 
ATOM      5  C10 UNL     1      11.838  10.690  37.298  0.00  0.00    +0.039 A 
ATOM      6  C11 UNL     1      12.780  11.713  37.164  0.00  0.00    +0.018 A 
ATOM      7  C12 UNL     1      12.996  12.325  35.917  0.00  0.00    +0.058 A 
ENDROOT
BRANCH   7   8
ATOM      8  C13 UNL     1      13.930  13.466  35.829  0.00  0.00    +0.249 C 
ATOM      9  O3  UNL     1      13.525  14.630  36.088  0.00  0.00    -0.270 OA
ATOM     10  N2  UNL     1      15.285  13.269  35.427  0.00  0.00    -0.292 N 
ATOM     11  C14 UNL     1      16.469  14.123  35.194  0.00  0.00    +0.145 C 
ATOM     12  C15 UNL     1      17.325  13.029  34.654  0.00  0.00    +0.144 C 
ATOM     13  C16 UNL     1      16.129  12.174  34.900  0.00  0.00    +0.145 C 
ATOM     14  N3  UNL     1      17.707  13.172  33.253  0.00  0.00    -0.282 N 
ATOM     15  C17 UNL     1      19.112  12.937  33.198  0.00  0.00    +0.307 C 
ATOM     16  O4  UNL     1      19.777  12.981  32.131  0.00  0.00    -0.252 OA
ATOM     17  N4  UNL     1      19.689  12.646  34.463  0.00  0.00    -0.238 N 
ATOM     18  C18 UNL     1      18.597  12.700  35.371  0.00  0.00    +0.247 C 
ATOM     19  O5  UNL     1      18.711  12.495  36.608  0.00  0.00    -0.273 OA
ATOM     20  H14 UNL     1      17.084  13.401  32.448  0.00  0.00    +0.151 HD
ATOM     21  H15 UNL     1      20.690  12.440  34.678  0.00  0.00    +0.159 HD
ENDBRANCH   7   8
BRANCH   1  24
ATOM     22  C6  UNL     1      11.673  13.505  32.957  0.00  0.00    +0.248 C 
ATOM     23  O2  UNL     1      10.943  14.176  33.739  0.00  0.00    -0.270 OA
ATOM     24  N1  UNL     1      12.475  12.433  33.482  0.00  0.00    -0.281 N 
ATOM     25  H6  UNL     1      13.368  12.197  32.994  0.00  0.00    +0.155 HD
BRANCH  22  29
ATOM     26  C2  UNL     1      11.778  14.534  28.777  0.00  0.00    +0.120 A 
ATOM     27  C3  UNL     1      10.692  13.809  29.302  0.00  0.00    +0.046 A 
ATOM     28  C4  UNL     1      10.657  13.472  30.659  0.00  0.00    +0.016 A 
ATOM     29  C5  UNL     1      11.707  13.847  31.516  0.00  0.00    +0.037 A 
ATOM     30  C19 UNL     1      12.785  14.580  30.988  0.00  0.00    +0.016 A 
ATOM     31  C20 UNL     1      12.818  14.915  29.631  0.00  0.00    +0.046 A 
BRANCH  26  33
ATOM     32  C1  UNL     1      13.068  14.919  26.671  0.00  0.00    +0.277 C 
ATOM     33  O1  UNL     1      11.860  14.894  27.424  0.00  0.00    -0.495 OA
ENDBRANCH  26  33
ENDBRANCH  22  29
ENDBRANCH   1  24
TORSDOF 4
ENDMDL
MODEL 4
REMARK VINA RESULT:    -6.912      4.540      9.238
REMARK INTER + INTRA:          -9.553
REMARK INTER:                  -8.510
REMARK INTRA:                  -1.043
REMARK UNBOUND:                -1.024
REMARK  Name = /home/qwerty/github/datacon2025hack/step_04_hit_selection/docking/ligands/lig_787.pdb
REMARK  5 active torsions:
REMARK  status: ('A' for Active; 'I' for Inactive)
REMARK    1  A    between atoms: C1_1  and  O1_2
REMARK    2  A    between atoms: O1_2  and  C2_3
REMARK    3  A    between atoms: C5_6  and  C6_7
REMARK    4  A    between atoms: N1_9  and  C7_10
REMARK    5  A    between atoms: C12_16  and  C13_17
REMARK                            x       y       z     vdW  Elec       q    Type
REMARK                         _______ _______ _______ _____ _____    ______ ____
ROOT
ATOM      1  C7  UNL     1      10.154   9.190  22.640  0.00  0.00    +0.049 A 
ATOM      2  C8  UNL     1      11.132  10.177  22.447  0.00  0.00    +0.062 A 
ATOM      3  C9  UNL     1      11.715  10.362  21.191  0.00  0.00    +0.125 A 
ATOM      4  F1  UNL     1      12.670  11.309  21.020  0.00  0.00    -0.205 F 
ATOM      5  C10 UNL     1      11.317   9.571  20.114  0.00  0.00    +0.039 A 
ATOM      6  C11 UNL     1      10.325   8.603  20.283  0.00  0.00    +0.018 A 
ATOM      7  C12 UNL     1       9.727   8.407  21.539  0.00  0.00    +0.058 A 
ENDROOT
BRANCH   7   8
ATOM      8  C13 UNL     1       8.616   7.441  21.664  0.00  0.00    +0.249 C 
ATOM      9  O3  UNL     1       7.472   7.742  21.232  0.00  0.00    -0.270 OA
ATOM     10  N2  UNL     1       8.816   6.176  22.293  0.00  0.00    -0.292 N 
ATOM     11  C14 UNL     1       7.983   5.001  22.627  0.00  0.00    +0.145 C 
ATOM     12  C15 UNL     1       9.045   4.294  23.400  0.00  0.00    +0.144 C 
ATOM     13  C16 UNL     1       9.879   5.480  23.052  0.00  0.00    +0.145 C 
ATOM     14  N3  UNL     1       8.770   4.127  24.823  0.00  0.00    -0.282 N 
ATOM     15  C17 UNL     1       9.046   2.762  25.123  0.00  0.00    +0.307 C 
ATOM     16  O4  UNL     1       8.915   2.268  26.273  0.00  0.00    -0.252 OA
ATOM     17  N4  UNL     1       9.487   2.011  24.000  0.00  0.00    -0.238 N 
ATOM     18  C18 UNL     1       9.490   2.946  22.930  0.00  0.00    +0.247 C 
ATOM     19  O5  UNL     1       9.826   2.652  21.752  0.00  0.00    -0.273 OA
ATOM     20  H14 UNL     1       8.437   4.855  25.493  0.00  0.00    +0.151 HD
ATOM     21  H15 UNL     1       9.749   1.001  23.968  0.00  0.00    +0.159 HD
ENDBRANCH   7   8
BRANCH   1  24
ATOM     22  C6  UNL     1       8.474   9.727  24.437  0.00  0.00    +0.248 C 
ATOM     23  O2  UNL     1       7.744  10.349  23.615  0.00  0.00    -0.270 OA
ATOM     24  N1  UNL     1       9.616   8.998  23.958  0.00  0.00    -0.281 N 
ATOM     25  H6  UNL     1       9.930   8.158  24.495  0.00  0.00    +0.155 HD
BRANCH  22  29
ATOM     26  C2  UNL     1       7.435   9.760  28.616  0.00  0.00    +0.120 A 
ATOM     27  C3  UNL     1       8.045  10.884  28.028  0.00  0.00    +0.046 A 
ATOM     28  C4  UNL     1       8.385  10.875  26.672  0.00  0.00    +0.016 A 
ATOM     29  C5  UNL     1       8.128   9.743  25.878  0.00  0.00    +0.037 A 
ATOM     30  C19 UNL     1       7.509   8.626  26.468  0.00  0.00    +0.016 A 
ATOM     31  C20 UNL     1       7.171   8.637  27.825  0.00  0.00    +0.046 A 
BRANCH  26  33
ATOM     32  C1  UNL     1       7.143   8.555  30.786  0.00  0.00    +0.277 C 
ATOM     33  O1  UNL     1       7.077   9.720  29.972  0.00  0.00    -0.495 OA
ENDBRANCH  26  33
ENDBRANCH  22  29
ENDBRANCH   1  24
TORSDOF 4
ENDMDL
MODEL 5
REMARK VINA RESULT:    -6.843     13.440     15.696
REMARK INTER + INTRA:          -9.467
REMARK INTER:                  -8.394
REMARK INTRA:                  -1.074
REMARK UNBOUND:                -1.024
REMARK  Name = /home/qwerty/github/datacon2025hack/step_04_hit_selection/docking/ligands/lig_787.pdb
REMARK  5 active torsions:
REMARK  status: ('A' for Active; 'I' for Inactive)
REMARK    1  A    between atoms: C1_1  and  O1_2
REMARK    2  A    between atoms: O1_2  and  C2_3
REMARK    3  A    between atoms: C5_6  and  C6_7
REMARK    4  A    between atoms: N1_9  and  C7_10
REMARK    5  A    between atoms: C12_16  and  C13_17
REMARK                            x       y       z     vdW  Elec       q    Type
REMARK                         _______ _______ _______ _____ _____    ______ ____
ROOT
ATOM      1  C7  UNL     1      20.791   2.719  31.651  0.00  0.00    +0.049 A 
ATOM      2  C8  UNL     1      19.888   2.603  32.718  0.00  0.00    +0.062 A 
ATOM      3  C9  UNL     1      19.268   1.381  32.991  0.00  0.00    +0.125 A 
ATOM      4  F1  UNL     1      18.385   1.284  34.016  0.00  0.00    -0.205 F 
ATOM      5  C10 UNL     1      19.555   0.262  32.211  0.00  0.00    +0.039 A 
ATOM      6  C11 UNL     1      20.474   0.355  31.162  0.00  0.00    +0.018 A 
ATOM      7  C12 UNL     1      21.108   1.576  30.876  0.00  0.00    +0.058 A 
ENDROOT
BRANCH   7   8
ATOM      8  C13 UNL     1      22.142   1.619  29.823  0.00  0.00    +0.249 C 
ATOM      9  O3  UNL     1      23.302   1.191  30.064  0.00  0.00    -0.270 OA
ATOM     10  N2  UNL     1      21.852   2.166  28.537  0.00  0.00    -0.292 N 
ATOM     11  C14 UNL     1      22.595   2.409  27.282  0.00  0.00    +0.145 C 
ATOM     12  C15 UNL     1      21.491   3.148  26.608  0.00  0.00    +0.144 C 
ATOM     13  C16 UNL     1      20.746   2.892  27.874  0.00  0.00    +0.145 C 
ATOM     14  N3  UNL     1      21.766   4.553  26.324  0.00  0.00    -0.282 N 
ATOM     15  C17 UNL     1      21.389   4.765  24.967  0.00  0.00    +0.307 C 
ATOM     16  O4  UNL     1      21.494   5.878  24.387  0.00  0.00    -0.252 OA
ATOM     17  N4  UNL     1      20.881   3.602  24.329  0.00  0.00    -0.238 N 
ATOM     18  C18 UNL     1      20.939   2.597  25.332  0.00  0.00    +0.247 C 
ATOM     19  O5  UNL     1      20.569   1.407  25.145  0.00  0.00    -0.273 OA
ATOM     20  H14 UNL     1      22.161   5.265  26.978  0.00  0.00    +0.151 HD
ATOM     21  H15 UNL     1      20.542   3.506  23.346  0.00  0.00    +0.159 HD
ENDBRANCH   7   8
BRANCH   1  24
ATOM     22  C6  UNL     1      22.559   4.473  32.027  0.00  0.00    +0.248 C 
ATOM     23  O2  UNL     1      23.285   3.654  32.657  0.00  0.00    -0.270 OA
ATOM     24  N1  UNL     1      21.368   4.005  31.371  0.00  0.00    -0.281 N 
ATOM     25  H6  UNL     1      21.037   4.513  30.520  0.00  0.00    +0.155 HD
BRANCH  22  29
ATOM     26  C2  UNL     1      23.724   8.612  31.784  0.00  0.00    +0.120 A 
ATOM     27  C3  UNL     1      24.281   7.774  32.769  0.00  0.00    +0.046 A 
ATOM     28  C4  UNL     1      23.903   6.431  32.850  0.00  0.00    +0.016 A 
ATOM     29  C5  UNL     1      22.958   5.899  31.956  0.00  0.00    +0.037 A 
ATOM     30  C19 UNL     1      22.412   6.737  30.968  0.00  0.00    +0.016 A 
ATOM     31  C20 UNL     1      22.791   8.080  30.888  0.00  0.00    +0.046 A 
BRANCH  26  33
ATOM     32  C1  UNL     1      23.727  10.786  30.551  0.00  0.00    +0.277 C 
ATOM     33  O1  UNL     1      24.070   9.966  31.663  0.00  0.00    -0.495 OA
ENDBRANCH  26  33
ENDBRANCH  22  29
ENDBRANCH   1  24
TORSDOF 4
ENDMDL
MODEL 6
REMARK VINA RESULT:    -6.619     14.303     15.914
REMARK INTER + INTRA:          -9.191
REMARK INTER:                  -8.187
REMARK INTRA:                  -1.003
REMARK UNBOUND:                -1.024
REMARK  Name = /home/qwerty/github/datacon2025hack/step_04_hit_selection/docking/ligands/lig_787.pdb
REMARK  5 active torsions:
REMARK  status: ('A' for Active; 'I' for Inactive)
REMARK    1  A    between atoms: C1_1  and  O1_2
REMARK    2  A    between atoms: O1_2  and  C2_3
REMARK    3  A    between atoms: C5_6  and  C6_7
REMARK    4  A    between atoms: N1_9  and  C7_10
REMARK    5  A    between atoms: C12_16  and  C13_17
REMARK                            x       y       z     vdW  Elec       q    Type
REMARK                         _______ _______ _______ _____ _____    ______ ____
ROOT
ATOM      1  C7  UNL     1      20.875   1.900  31.281  0.00  0.00    +0.049 A 
ATOM      2  C8  UNL     1      21.290   0.835  30.466  0.00  0.00    +0.062 A 
ATOM      3  C9  UNL     1      21.767   1.075  29.175  0.00  0.00    +0.125 A 
ATOM      4  F1  UNL     1      22.150   0.038  28.391  0.00  0.00    -0.205 F 
ATOM      5  C10 UNL     1      21.846   2.381  28.691  0.00  0.00    +0.039 A 
ATOM      6  C11 UNL     1      21.463   3.453  29.500  0.00  0.00    +0.018 A 
ATOM      7  C12 UNL     1      20.985   3.229  30.802  0.00  0.00    +0.058 A 
ENDROOT
BRANCH   7   8
ATOM      8  C13 UNL     1      20.678   4.388  31.665  0.00  0.00    +0.249 C 
ATOM      9  O3  UNL     1      19.493   4.595  32.038  0.00  0.00    -0.270 OA
ATOM     10  N2  UNL     1      21.706   5.295  32.061  0.00  0.00    -0.292 N 
ATOM     11  C14 UNL     1      21.790   6.539  32.856  0.00  0.00    +0.145 C 
ATOM     12  C15 UNL     1      23.226   6.799  32.552  0.00  0.00    +0.144 C 
ATOM     13  C16 UNL     1      23.134   5.540  31.759  0.00  0.00    +0.145 C 
ATOM     14  N3  UNL     1      23.487   8.005  31.772  0.00  0.00    -0.282 N 
ATOM     15  C17 UNL     1      24.542   8.690  32.442  0.00  0.00    +0.307 C 
ATOM     16  O4  UNL     1      25.023   9.781  32.036  0.00  0.00    -0.252 OA
ATOM     17  N4  UNL     1      25.001   8.025  33.610  0.00  0.00    -0.238 N 
ATOM     18  C18 UNL     1      24.196   6.856  33.689  0.00  0.00    +0.247 C 
ATOM     19  O5  UNL     1      24.305   5.999  34.606  0.00  0.00    -0.273 OA
ATOM     20  H14 UNL     1      23.003   8.311  30.899  0.00  0.00    +0.151 HD
ATOM     21  H15 UNL     1      25.758   8.327  34.263  0.00  0.00    +0.159 HD
ENDBRANCH   7   8
BRANCH   1  24
ATOM     22  C6  UNL     1      18.949   1.335  32.802  0.00  0.00    +0.248 C 
ATOM     23  O2  UNL     1      18.204   1.072  31.817  0.00  0.00    -0.270 OA
ATOM     24  N1  UNL     1      20.344   1.606  32.583  0.00  0.00    -0.281 N 
ATOM     25  H6  UNL     1      21.021   1.373  33.344  0.00  0.00    +0.155 HD
BRANCH  22  29
ATOM     26  C2  UNL     1      17.253   1.349  36.760  0.00  0.00    +0.120 A 
ATOM     27  C3  UNL     1      18.221   2.306  36.400  0.00  0.00    +0.046 A 
ATOM     28  C4  UNL     1      18.774   2.302  35.116  0.00  0.00    +0.016 A 
ATOM     29  C5  UNL     1      18.377   1.341  34.169  0.00  0.00    +0.037 A 
ATOM     30  C19 UNL     1      17.403   0.393  34.532  0.00  0.00    +0.016 A 
ATOM     31  C20 UNL     1      16.852   0.399  35.816  0.00  0.00    +0.046 A 
BRANCH  26  33
ATOM     32  C1  UNL     1      15.371   0.798  38.310  0.00  0.00    +0.277 C 
ATOM     33  O1  UNL     1      16.671   1.311  38.036  0.00  0.00    -0.495 OA
ENDBRANCH  26  33
ENDBRANCH  22  29
ENDBRANCH   1  24
TORSDOF 4
ENDMDL
MODEL 7
REMARK VINA RESULT:    -6.617      5.214      7.993
REMARK INTER + INTRA:          -9.189
REMARK INTER:                  -7.907
REMARK INTRA:                  -1.282
REMARK UNBOUND:                -1.024
REMARK  Name = /home/qwerty/github/datacon2025hack/step_04_hit_selection/docking/ligands/lig_787.pdb
REMARK  5 active torsions:
REMARK  status: ('A' for Active; 'I' for Inactive)
REMARK    1  A    between atoms: C1_1  and  O1_2
REMARK    2  A    between atoms: O1_2  and  C2_3
REMARK    3  A    between atoms: C5_6  and  C6_7
REMARK    4  A    between atoms: N1_9  and  C7_10
REMARK    5  A    between atoms: C12_16  and  C13_17
REMARK                            x       y       z     vdW  Elec       q    Type
REMARK                         _______ _______ _______ _____ _____    ______ ____
ROOT
ATOM      1  C7  UNL     1      13.864  13.700  28.454  0.00  0.00    +0.049 A 
ATOM      2  C8  UNL     1      14.204  14.524  27.371  0.00  0.00    +0.062 A 
ATOM      3  C9  UNL     1      15.344  15.329  27.423  0.00  0.00    +0.125 A 
ATOM      4  F1  UNL     1      15.654  16.133  26.376  0.00  0.00    -0.205 F 
ATOM      5  C10 UNL     1      16.163  15.308  28.551  0.00  0.00    +0.039 A 
ATOM      6  C11 UNL     1      15.854  14.472  29.627  0.00  0.00    +0.018 A 
ATOM      7  C12 UNL     1      14.712  13.654  29.588  0.00  0.00    +0.058 A 
ENDROOT
BRANCH   7   8
ATOM      8  C13 UNL     1      14.465  12.713  30.699  0.00  0.00    +0.249 C 
ATOM      9  O3  UNL     1      14.804  11.505  30.587  0.00  0.00    -0.270 OA
ATOM     10  N2  UNL     1      13.819  13.149  31.895  0.00  0.00    -0.292 N 
ATOM     11  C14 UNL     1      13.380  12.530  33.164  0.00  0.00    +0.145 C 
ATOM     12  C15 UNL     1      12.683  13.744  33.676  0.00  0.00    +0.144 C 
ATOM     13  C16 UNL     1      13.135  14.362  32.397  0.00  0.00    +0.145 C 
ATOM     14  N3  UNL     1      11.237  13.614  33.824  0.00  0.00    -0.282 N 
ATOM     15  C17 UNL     1      10.923  14.114  35.120  0.00  0.00    +0.307 C 
ATOM     16  O4  UNL     1       9.752  14.151  35.581  0.00  0.00    -0.252 OA
ATOM     17  N4  UNL     1      12.058  14.568  35.844  0.00  0.00    -0.238 N 
ATOM     18  C18 UNL     1      13.150  14.345  34.964  0.00  0.00    +0.247 C 
ATOM     19  O5  UNL     1      14.344  14.625  35.253  0.00  0.00    -0.273 OA
ATOM     20  H14 UNL     1      10.562  13.232  33.125  0.00  0.00    +0.151 HD
ATOM     21  H15 UNL     1      12.084  14.974  36.806  0.00  0.00    +0.159 HD
ENDBRANCH   7   8
BRANCH   1  24
ATOM     22  C6  UNL     1      11.427  13.357  28.989  0.00  0.00    +0.248 C 
ATOM     23  O2  UNL     1      11.306  14.558  29.361  0.00  0.00    -0.270 OA
ATOM     24  N1  UNL     1      12.657  12.925  28.381  0.00  0.00    -0.281 N 
ATOM     25  H6  UNL     1      12.620  12.143  27.690  0.00  0.00    +0.155 HD
BRANCH  22  29
ATOM     26  C2  UNL     1       8.120  10.653  29.531  0.00  0.00    +0.120 A 
ATOM     27  C3  UNL     1       9.440  10.166  29.519  0.00  0.00    +0.046 A 
ATOM     28  C4  UNL     1      10.515  11.042  29.341  0.00  0.00    +0.016 A 
ATOM     29  C5  UNL     1      10.294  12.419  29.166  0.00  0.00    +0.037 A 
ATOM     30  C19 UNL     1       8.973  12.902  29.190  0.00  0.00    +0.016 A 
ATOM     31  C20 UNL     1       7.900  12.025  29.367  0.00  0.00    +0.046 A 
BRANCH  26  33
ATOM     32  C1  UNL     1       7.005   8.644  30.514  0.00  0.00    +0.277 C 
ATOM     33  O1  UNL     1       7.009   9.815  29.704  0.00  0.00    -0.495 OA
ENDBRANCH  26  33
ENDBRANCH  22  29
ENDBRANCH   1  24
TORSDOF 4
ENDMDL
MODEL 8
REMARK VINA RESULT:    -6.440     13.384     14.791
REMARK INTER + INTRA:          -8.970
REMARK INTER:                  -7.878
REMARK INTRA:                  -1.092
REMARK UNBOUND:                -1.024
REMARK  Name = /home/qwerty/github/datacon2025hack/step_04_hit_selection/docking/ligands/lig_787.pdb
REMARK  5 active torsions:
REMARK  status: ('A' for Active; 'I' for Inactive)
REMARK    1  A    between atoms: C1_1  and  O1_2
REMARK    2  A    between atoms: O1_2  and  C2_3
REMARK    3  A    between atoms: C5_6  and  C6_7
REMARK    4  A    between atoms: N1_9  and  C7_10
REMARK    5  A    between atoms: C12_16  and  C13_17
REMARK                            x       y       z     vdW  Elec       q    Type
REMARK                         _______ _______ _______ _____ _____    ______ ____
ROOT
ATOM      1  C7  UNL     1      20.404   2.715  26.186  0.00  0.00    +0.049 A 
ATOM      2  C8  UNL     1      20.293   3.568  25.077  0.00  0.00    +0.062 A 
ATOM      3  C9  UNL     1      21.322   4.459  24.762  0.00  0.00    +0.125 A 
ATOM      4  F1  UNL     1      21.198   5.289  23.697  0.00  0.00    -0.205 F 
ATOM      5  C10 UNL     1      22.477   4.497  25.544  0.00  0.00    +0.039 A 
ATOM      6  C11 UNL     1      22.614   3.635  26.634  0.00  0.00    +0.018 A 
ATOM      7  C12 UNL     1      21.589   2.730  26.962  0.00  0.00    +0.058 A 
ENDROOT
BRANCH   7   8
ATOM      8  C13 UNL     1      21.804   1.768  28.062  0.00  0.00    +0.249 C 
ATOM      9  O3  UNL     1      22.044   0.560  27.801  0.00  0.00    -0.270 OA
ATOM     10  N2  UNL     1      21.717   2.187  29.424  0.00  0.00    -0.292 N 
ATOM     11  C14 UNL     1      21.830   1.545  30.751  0.00  0.00    +0.145 C 
ATOM     12  C15 UNL     1      21.428   2.755  31.524  0.00  0.00    +0.144 C 
ATOM     13  C16 UNL     1      21.325   3.396  30.182  0.00  0.00    +0.145 C 
ATOM     14  N3  UNL     1      20.170   2.638  32.253  0.00  0.00    -0.282 N 
ATOM     15  C17 UNL     1      20.428   3.113  33.571  0.00  0.00    +0.307 C 
ATOM     16  O4  UNL     1      19.552   3.153  34.474  0.00  0.00    -0.252 OA
ATOM     17  N4  UNL     1      21.769   3.539  33.769  0.00  0.00    -0.238 N 
ATOM     18  C18 UNL     1      22.396   3.323  32.512  0.00  0.00    +0.247 C 
ATOM     19  O5  UNL     1      23.609   3.583  32.288  0.00  0.00    -0.273 OA
ATOM     20  H14 UNL     1      19.259   2.278  31.889  0.00  0.00    +0.151 HD
ATOM     21  H15 UNL     1      22.196   3.924  34.640  0.00  0.00    +0.159 HD
ENDBRANCH   7   8
BRANCH   1  24
ATOM     22  C6  UNL     1      19.041   0.637  25.777  0.00  0.00    +0.248 C 
ATOM     23  O2  UNL     1      19.934   0.159  25.023  0.00  0.00    -0.270 OA
ATOM     24  N1  UNL     1      19.303   1.849  26.504  0.00  0.00    -0.281 N 
ATOM     25  H6  UNL     1      18.817   1.995  27.418  0.00  0.00    +0.155 HD
BRANCH  22  29
ATOM     26  C2  UNL     1      15.272  -1.414  26.143  0.00  0.00    +0.120 A 
ATOM     27  C3  UNL     1      15.572  -0.326  26.984  0.00  0.00    +0.046 A 
ATOM     28  C4  UNL     1      16.796   0.340  26.868  0.00  0.00    +0.016 A 
ATOM     29  C5  UNL     1      17.746  -0.070  25.916  0.00  0.00    +0.037 A 
ATOM     30  C19 UNL     1      17.437  -1.151  25.072  0.00  0.00    +0.016 A 
ATOM     31  C20 UNL     1      16.213  -1.816  25.190  0.00  0.00    +0.046 A 
BRANCH  26  33
ATOM     32  C1  UNL     1      13.140  -2.009  27.303  0.00  0.00    +0.277 C 
ATOM     33  O1  UNL     1      14.060  -2.115  26.222  0.00  0.00    -0.495 OA
ENDBRANCH  26  33
ENDBRANCH  22  29
ENDBRANCH   1  24
TORSDOF 4
ENDMDL
MODEL 9
REMARK VINA RESULT:    -6.401     12.828     14.238
REMARK INTER + INTRA:          -8.921
REMARK INTER:                  -8.032
REMARK INTRA:                  -0.889
REMARK UNBOUND:                -1.024
REMARK  Name = /home/qwerty/github/datacon2025hack/step_04_hit_selection/docking/ligands/lig_787.pdb
REMARK  5 active torsions:
REMARK  status: ('A' for Active; 'I' for Inactive)
REMARK    1  A    between atoms: C1_1  and  O1_2
REMARK    2  A    between atoms: O1_2  and  C2_3
REMARK    3  A    between atoms: C5_6  and  C6_7
REMARK    4  A    between atoms: N1_9  and  C7_10
REMARK    5  A    between atoms: C12_16  and  C13_17
REMARK                            x       y       z     vdW  Elec       q    Type
REMARK                         _______ _______ _______ _____ _____    ______ ____
ROOT
ATOM      1  C7  UNL     1      18.591   1.774  33.498  0.00  0.00    +0.049 A 
ATOM      2  C8  UNL     1      17.669   0.742  33.727  0.00  0.00    +0.062 A 
ATOM      3  C9  UNL     1      17.210   0.474  35.019  0.00  0.00    +0.125 A 
ATOM      4  F1  UNL     1      16.331  -0.536  35.230  0.00  0.00    -0.205 F 
ATOM      5  C10 UNL     1      17.659   1.244  36.093  0.00  0.00    +0.039 A 
ATOM      6  C11 UNL     1      18.555   2.293  35.877  0.00  0.00    +0.018 A 
ATOM      7  C12 UNL     1      19.023   2.577  34.583  0.00  0.00    +0.058 A 
ENDROOT
BRANCH   7   8
ATOM      8  C13 UNL     1      19.896   3.750  34.375  0.00  0.00    +0.249 C 
ATOM      9  O3  UNL     1      21.036   3.601  33.861  0.00  0.00    -0.270 OA
ATOM     10  N2  UNL     1      19.473   5.053  34.776  0.00  0.00    -0.292 N 
ATOM     11  C14 UNL     1      20.048   6.416  34.770  0.00  0.00    +0.145 C 
ATOM     12  C15 UNL     1      18.928   7.041  35.529  0.00  0.00    +0.144 C 
ATOM     13  C16 UNL     1      18.353   5.666  35.524  0.00  0.00    +0.145 C 
ATOM     14  N3  UNL     1      19.283   7.559  36.846  0.00  0.00    -0.282 N 
ATOM     15  C17 UNL     1      18.735   8.873  36.918  0.00  0.00    +0.307 C 
ATOM     16  O4  UNL     1      18.854   9.616  37.927  0.00  0.00    -0.252 OA
ATOM     17  N4  UNL     1      18.040   9.263  35.742  0.00  0.00    -0.238 N 
ATOM     18  C18 UNL     1      18.152   8.141  34.877  0.00  0.00    +0.247 C 
ATOM     19  O5  UNL     1      17.655   8.104  33.720  0.00  0.00    -0.273 OA
ATOM     20  H14 UNL     1      19.829   7.072  37.592  0.00  0.00    +0.151 HD
ATOM     21  H15 UNL     1      17.556  10.170  35.555  0.00  0.00    +0.159 HD
ENDBRANCH   7   8
BRANCH   1  24
ATOM     22  C6  UNL     1      20.195   1.258  31.626  0.00  0.00    +0.248 C 
ATOM     23  O2  UNL     1      20.602   0.219  32.217  0.00  0.00    -0.270 OA
ATOM     24  N1  UNL     1      19.076   1.984  32.162  0.00  0.00    -0.281 N 
ATOM     25  H6  UNL     1      18.467   2.517  31.501  0.00  0.00    +0.155 HD
BRANCH  22  29
ATOM     26  C2  UNL     1      22.167   2.522  28.013  0.00  0.00    +0.120 A 
ATOM     27  C3  UNL     1      21.476   3.456  28.808  0.00  0.00    +0.046 A 
ATOM     28  C4  UNL     1      20.833   3.047  29.980  0.00  0.00    +0.016 A 
ATOM     29  C5  UNL     1      20.862   1.699  30.379  0.00  0.00    +0.037 A 
ATOM     30  C19 UNL     1      21.563   0.772  29.587  0.00  0.00    +0.016 A 
ATOM     31  C20 UNL     1      22.205   1.183  28.415  0.00  0.00    +0.046 A 
BRANCH  26  33
ATOM     32  C1  UNL     1      22.201   2.954  25.552  0.00  0.00    +0.277 C 
ATOM     33  O1  UNL     1      22.826   2.883  26.829  0.00  0.00    -0.495 OA
ENDBRANCH  26  33
ENDBRANCH  22  29
ENDBRANCH   1  24
TORSDOF 4
ENDMDL
