MODEL 1
REMARK VINA RESULT:    -6.623      0.000      0.000
REMARK INTER + INTRA:          -8.134
REMARK INTER:                  -8.171
REMARK INTRA:                   0.038
REMARK UNBOUND:                 0.038
REMARK  Name = /home/qwerty/github/datacon2025hack/step_04_hit_selection/docking/ligands/lig_484.pdb
REMARK  4 active torsions:
REMARK  status: ('A' for Active; 'I' for Inactive)
REMARK    1  A    between atoms: C1_2  and  C8_12
REMARK    2  A    between atoms: N1_3  and  C2_4
REMARK    3  A    between atoms: C11_17  and  O3_18
REMARK    4  A    between atoms: O3_18  and  C12_19
REMARK                            x       y       z     vdW  Elec       q    Type
REMARK                         _______ _______ _______ _____ _____    ______ ____
ROOT
ATOM      1  C8  UNL     1      20.436   4.409  32.010  0.00  0.00    +0.302 C 
ATOM      2  O2  UNL     1      20.424   5.329  31.147  0.00  0.00    -0.265 OA
ATOM      3  N2  UNL     1      20.413   3.037  31.565  0.00  0.00    -0.290 N 
ATOM      4  C9  UNL     1      20.682   1.878  32.402  0.00  0.00    +0.112 C 
ATOM      5  C10 UNL     1      20.837   0.704  31.445  0.00  0.00    +0.065 C 
ATOM      6  C11 UNL     1      20.196   1.155  30.131  0.00  0.00    +0.192 C 
ATOM      7  C17 UNL     1      20.231   2.678  30.168  0.00  0.00    +0.152 C 
ENDROOT
BRANCH   1   9
ATOM      8  O1  UNL     1      20.050   3.979  34.319  0.00  0.00    -0.265 OA
ATOM      9  C1  UNL     1      20.470   4.783  33.444  0.00  0.00    +0.303 C 
ATOM     10  N1  UNL     1      20.936   6.085  33.839  0.00  0.00    -0.277 N 
ATOM     11  H1  UNL     1      21.047   6.819  33.105  0.00  0.00    +0.155 HD
BRANCH  10  12
ATOM     12  C2  UNL     1      21.199   6.449  35.207  0.00  0.00    +0.051 A 
ATOM     13  C3  UNL     1      20.138   6.674  36.102  0.00  0.00    +0.062 A 
ATOM     14  C4  UNL     1      20.394   6.998  37.437  0.00  0.00    +0.125 A 
ATOM     15  F1  UNL     1      19.363   7.214  38.292  0.00  0.00    -0.205 F 
ATOM     16  C5  UNL     1      21.709   7.092  37.894  0.00  0.00    +0.039 A 
ATOM     17  C6  UNL     1      22.772   6.857  37.019  0.00  0.00    +0.020 A 
ATOM     18  C7  UNL     1      22.525   6.531  35.679  0.00  0.00    +0.039 A 
ATOM     19 BR1  UNL     1      24.025   6.247  34.520  0.00  0.00    -0.048 Br
ENDBRANCH  10  12
ENDBRANCH   1   9
BRANCH   6  20
ATOM     20  O3  UNL     1      20.921   0.671  28.998  0.00  0.00    -0.487 OA
BRANCH  20  21
ATOM     21  C12 UNL     1      22.248   0.214  29.018  0.00  0.00    +0.124 A 
ATOM     22  C13 UNL     1      22.591  -1.140  28.845  0.00  0.00    +0.065 A 
ATOM     23  C14 UNL     1      23.936  -1.517  28.876  0.00  0.00    +0.114 A 
ATOM     24  N3  UNL     1      24.904  -0.583  29.071  0.00  0.00    -0.263 NA
ATOM     25  C15 UNL     1      24.600   0.731  29.238  0.00  0.00    +0.114 A 
ATOM     26  C16 UNL     1      23.268   1.151  29.213  0.00  0.00    +0.065 A 
ENDBRANCH  20  21
ENDBRANCH   6  20
TORSDOF 4
ENDMDL
MODEL 2
REMARK VINA RESULT:    -6.623      7.791     11.023
REMARK INTER + INTRA:          -8.134
REMARK INTER:                  -7.658
REMARK INTRA:                  -0.475
REMARK UNBOUND:                 0.038
REMARK  Name = /home/qwerty/github/datacon2025hack/step_04_hit_selection/docking/ligands/lig_484.pdb
REMARK  4 active torsions:
REMARK  status: ('A' for Active; 'I' for Inactive)
REMARK    1  A    between atoms: C1_2  and  C8_12
REMARK    2  A    between atoms: N1_3  and  C2_4
REMARK    3  A    between atoms: C11_17  and  O3_18
REMARK    4  A    between atoms: O3_18  and  C12_19
REMARK                            x       y       z     vdW  Elec       q    Type
REMARK                         _______ _______ _______ _____ _____    ______ ____
ROOT
ATOM      1  C8  UNL     1      17.269   0.530  26.201  0.00  0.00    +0.302 C 
ATOM      2  O2  UNL     1      16.392   0.171  27.034  0.00  0.00    -0.265 OA
ATOM      3  N2  UNL     1      18.571   0.918  26.685  0.00  0.00    -0.290 N 
ATOM      4  C9  UNL     1      19.754   1.101  25.859  0.00  0.00    +0.112 C 
ATOM      5  C10 UNL     1      20.923   1.206  26.828  0.00  0.00    +0.065 C 
ATOM      6  C11 UNL     1      20.304   1.536  28.188  0.00  0.00    +0.192 C 
ATOM      7  C17 UNL     1      18.863   1.047  28.104  0.00  0.00    +0.152 C 
ENDROOT
BRANCH   1   9
ATOM      8  O1  UNL     1      17.270  -0.415  24.016  0.00  0.00    -0.265 OA
ATOM      9  C1  UNL     1      16.917   0.539  24.761  0.00  0.00    +0.303 C 
ATOM     10  N1  UNL     1      16.217   1.661  24.196  0.00  0.00    -0.277 N 
ATOM     11  H1  UNL     1      16.149   2.540  24.756  0.00  0.00    +0.155 HD
BRANCH  10  12
ATOM     12  C2  UNL     1      15.657   1.657  22.870  0.00  0.00    +0.051 A 
ATOM     13  C3  UNL     1      16.377   2.197  21.789  0.00  0.00    +0.062 A 
ATOM     14  C4  UNL     1      15.845   2.167  20.498  0.00  0.00    +0.125 A 
ATOM     15  F1  UNL     1      16.548   2.691  19.463  0.00  0.00    -0.205 F 
ATOM     16  C5  UNL     1      14.595   1.589  20.269  0.00  0.00    +0.039 A 
ATOM     17  C6  UNL     1      13.876   1.036  21.331  0.00  0.00    +0.020 A 
ATOM     18  C7  UNL     1      14.401   1.062  22.629  0.00  0.00    +0.039 A 
ATOM     19 BR1  UNL     1      13.354   0.312  24.050  0.00  0.00    -0.048 Br
ENDBRANCH  10  12
ENDBRANCH   1   9
BRANCH   6  20
ATOM     20  O3  UNL     1      20.990   0.873  29.253  0.00  0.00    -0.487 OA
BRANCH  20  21
ATOM     21  C12 UNL     1      22.280   0.326  29.173  0.00  0.00    +0.124 A 
ATOM     22  C13 UNL     1      22.516  -1.035  28.907  0.00  0.00    +0.065 A 
ATOM     23  C14 UNL     1      23.830  -1.505  28.843  0.00  0.00    +0.114 A 
ATOM     24  N3  UNL     1      24.871  -0.652  29.035  0.00  0.00    -0.263 NA
ATOM     25  C15 UNL     1      24.671   0.667  29.291  0.00  0.00    +0.114 A 
ATOM     26  C16 UNL     1      23.374   1.178  29.362  0.00  0.00    +0.065 A 
ENDBRANCH  20  21
ENDBRANCH   6  20
TORSDOF 4
ENDMDL
MODEL 3
REMARK VINA RESULT:    -6.597      7.166     10.113
REMARK INTER + INTRA:          -8.102
REMARK INTER:                  -7.465
REMARK INTRA:                  -0.637
REMARK UNBOUND:                 0.038
REMARK  Name = /home/qwerty/github/datacon2025hack/step_04_hit_selection/docking/ligands/lig_484.pdb
REMARK  4 active torsions:
REMARK  status: ('A' for Active; 'I' for Inactive)
REMARK    1  A    between atoms: C1_2  and  C8_12
REMARK    2  A    between atoms: N1_3  and  C2_4
REMARK    3  A    between atoms: C11_17  and  O3_18
REMARK    4  A    between atoms: O3_18  and  C12_19
REMARK                            x       y       z     vdW  Elec       q    Type
REMARK                         _______ _______ _______ _____ _____    ______ ____
ROOT
ATOM      1  C8  UNL     1      17.447  11.935  35.730  0.00  0.00    +0.302 C 
ATOM      2  O2  UNL     1      18.000  12.775  34.968  0.00  0.00    -0.265 OA
ATOM      3  N2  UNL     1      18.175  10.745  36.096  0.00  0.00    -0.290 N 
ATOM      4  C9  UNL     1      17.795   9.821  37.154  0.00  0.00    +0.112 C 
ATOM      5  C10 UNL     1      19.000   8.913  37.362  0.00  0.00    +0.065 C 
ATOM      6  C11 UNL     1      19.852   9.062  36.100  0.00  0.00    +0.192 C 
ATOM      7  C17 UNL     1      19.461  10.410  35.506  0.00  0.00    +0.152 C 
ENDROOT
BRANCH   1   9
ATOM      8  O1  UNL     1      15.882  13.031  37.149  0.00  0.00    -0.265 OA
ATOM      9  C1  UNL     1      16.073  12.211  36.211  0.00  0.00    +0.303 C 
ATOM     10  N1  UNL     1      14.955  11.504  35.646  0.00  0.00    -0.277 N 
ATOM     11  H1  UNL     1      15.143  10.663  35.055  0.00  0.00    +0.155 HD
BRANCH  10  12
ATOM     12  C2  UNL     1      13.584  11.859  35.902  0.00  0.00    +0.051 A 
ATOM     13  C3  UNL     1      12.903  11.322  37.009  0.00  0.00    +0.062 A 
ATOM     14  C4  UNL     1      11.581  11.689  37.275  0.00  0.00    +0.125 A 
ATOM     15  F1  UNL     1      10.933  11.164  38.345  0.00  0.00    -0.205 F 
ATOM     16  C5  UNL     1      10.929  12.603  36.445  0.00  0.00    +0.039 A 
ATOM     17  C6  UNL     1      11.598  13.155  35.351  0.00  0.00    +0.020 A 
ATOM     18  C7  UNL     1      12.924  12.793  35.078  0.00  0.00    +0.039 A 
ATOM     19 BR1  UNL     1      13.780  13.564  33.545  0.00  0.00    -0.048 Br
ENDBRANCH  10  12
ENDBRANCH   1   9
BRANCH   6  20
ATOM     20  O3  UNL     1      21.249   9.041  36.402  0.00  0.00    -0.487 OA
BRANCH  20  21
ATOM     21  C12 UNL     1      22.207   8.236  35.765  0.00  0.00    +0.124 A 
ATOM     22  C13 UNL     1      22.670   8.490  34.460  0.00  0.00    +0.065 A 
ATOM     23  C14 UNL     1      23.625   7.642  33.894  0.00  0.00    +0.114 A 
ATOM     24  N3  UNL     1      24.104   6.583  34.599  0.00  0.00    -0.263 NA
ATOM     25  C15 UNL     1      23.675   6.317  35.861  0.00  0.00    +0.114 A 
ATOM     26  C16 UNL     1      22.722   7.140  36.465  0.00  0.00    +0.065 A 
ENDBRANCH  20  21
ENDBRANCH   6  20
TORSDOF 4
ENDMDL
MODEL 4
REMARK VINA RESULT:    -6.507      1.743      2.032
REMARK INTER + INTRA:          -7.991
REMARK INTER:                  -7.782
REMARK INTRA:                  -0.209
REMARK UNBOUND:                 0.038
REMARK  Name = /home/qwerty/github/datacon2025hack/step_04_hit_selection/docking/ligands/lig_484.pdb
REMARK  4 active torsions:
REMARK  status: ('A' for Active; 'I' for Inactive)
REMARK    1  A    between atoms: C1_2  and  C8_12
REMARK    2  A    between atoms: N1_3  and  C2_4
REMARK    3  A    between atoms: C11_17  and  O3_18
REMARK    4  A    between atoms: O3_18  and  C12_19
REMARK                            x       y       z     vdW  Elec       q    Type
REMARK                         _______ _______ _______ _____ _____    ______ ____
ROOT
ATOM      1  C8  UNL     1      21.215   4.312  31.889  0.00  0.00    +0.302 C 
ATOM      2  O2  UNL     1      21.584   5.196  31.068  0.00  0.00    -0.265 OA
ATOM      3  N2  UNL     1      20.867   3.003  31.393  0.00  0.00    -0.290 N 
ATOM      4  C9  UNL     1      20.679   1.817  32.213  0.00  0.00    +0.112 C 
ATOM      5  C10 UNL     1      20.627   0.646  31.241  0.00  0.00    +0.065 C 
ATOM      6  C11 UNL     1      20.329   1.259  29.871  0.00  0.00    +0.192 C 
ATOM      7  C17 UNL     1      20.788   2.709  29.971  0.00  0.00    +0.152 C 
ENDROOT
BRANCH   1   9
ATOM      8  O1  UNL     1      22.144   4.443  34.076  0.00  0.00    -0.265 OA
ATOM      9  C1  UNL     1      21.154   4.662  33.328  0.00  0.00    +0.303 C 
ATOM     10  N1  UNL     1      19.946   5.206  33.888  0.00  0.00    -0.277 N 
ATOM     11  H1  UNL     1      19.068   5.154  33.325  0.00  0.00    +0.155 HD
BRANCH  10  12
ATOM     12  C2  UNL     1      19.870   5.765  35.212  0.00  0.00    +0.051 A 
ATOM     13  C3  UNL     1      20.736   6.805  35.598  0.00  0.00    +0.062 A 
ATOM     14  C4  UNL     1      20.643   7.367  36.873  0.00  0.00    +0.125 A 
ATOM     15  F1  UNL     1      21.483   8.369  37.236  0.00  0.00    -0.205 F 
ATOM     16  C5  UNL     1      19.680   6.906  37.773  0.00  0.00    +0.039 A 
ATOM     17  C6  UNL     1      18.805   5.885  37.397  0.00  0.00    +0.020 A 
ATOM     18  C7  UNL     1      18.891   5.315  36.120  0.00  0.00    +0.039 A 
ATOM     19 BR1  UNL     1      17.680   3.898  35.673  0.00  0.00    -0.048 Br
ENDBRANCH  10  12
ENDBRANCH   1   9
BRANCH   6  20
ATOM     20  O3  UNL     1      21.038   0.586  28.828  0.00  0.00    -0.487 OA
BRANCH  20  21
ATOM     21  C12 UNL     1      22.358   0.117  28.914  0.00  0.00    +0.124 A 
ATOM     22  C13 UNL     1      22.693  -1.244  28.788  0.00  0.00    +0.065 A 
ATOM     23  C14 UNL     1      24.030  -1.634  28.885  0.00  0.00    +0.114 A 
ATOM     24  N3  UNL     1      25.000  -0.706  29.099  0.00  0.00    -0.263 NA
ATOM     25  C15 UNL     1      24.704   0.615  29.222  0.00  0.00    +0.114 A 
ATOM     26  C16 UNL     1      23.379   1.048  29.130  0.00  0.00    +0.065 A 
ENDBRANCH  20  21
ENDBRANCH   6  20
TORSDOF 4
ENDMDL
MODEL 5
REMARK VINA RESULT:    -6.503     13.839     15.544
REMARK INTER + INTRA:          -7.985
REMARK INTER:                  -7.421
REMARK INTRA:                  -0.565
REMARK UNBOUND:                 0.038
REMARK  Name = /home/qwerty/github/datacon2025hack/step_04_hit_selection/docking/ligands/lig_484.pdb
REMARK  4 active torsions:
REMARK  status: ('A' for Active; 'I' for Inactive)
REMARK    1  A    between atoms: C1_2  and  C8_12
REMARK    2  A    between atoms: N1_3  and  C2_4
REMARK    3  A    between atoms: C11_17  and  O3_18
REMARK    4  A    between atoms: O3_18  and  C12_19
REMARK                            x       y       z     vdW  Elec       q    Type
REMARK                         _______ _______ _______ _____ _____    ______ ____
ROOT
ATOM      1  C8  UNL     1      10.274   4.554  21.774  0.00  0.00    +0.302 C 
ATOM      2  O2  UNL     1       9.701   3.729  22.537  0.00  0.00    -0.265 OA
ATOM      3  N2  UNL     1      11.536   4.190  21.177  0.00  0.00    -0.290 N 
ATOM      4  C9  UNL     1      12.187   4.903  20.089  0.00  0.00    +0.112 C 
ATOM      5  C10 UNL     1      13.309   3.992  19.610  0.00  0.00    +0.065 C 
ATOM      6  C11 UNL     1      13.542   2.992  20.746  0.00  0.00    +0.192 C 
ATOM      7  C17 UNL     1      12.238   2.968  21.535  0.00  0.00    +0.152 C 
ENDROOT
BRANCH   1   9
ATOM      8  O1  UNL     1       8.713   5.966  20.663  0.00  0.00    -0.265 OA
ATOM      9  C1  UNL     1       9.623   5.863  21.528  0.00  0.00    +0.303 C 
ATOM     10  N1  UNL     1      10.063   7.032  22.241  0.00  0.00    -0.277 N 
ATOM     11  H1  UNL     1      10.965   6.988  22.765  0.00  0.00    +0.155 HD
BRANCH  10  12
ATOM     12  C2  UNL     1       9.353   8.284  22.220  0.00  0.00    +0.051 A 
ATOM     13  C3  UNL     1       8.339   8.545  23.160  0.00  0.00    +0.062 A 
ATOM     14  C4  UNL     1       7.670   9.772  23.157  0.00  0.00    +0.125 A 
ATOM     15  F1  UNL     1       6.694  10.013  24.068  0.00  0.00    -0.205 F 
ATOM     16  C5  UNL     1       8.012  10.754  22.225  0.00  0.00    +0.039 A 
ATOM     17  C6  UNL     1       9.026  10.512  21.297  0.00  0.00    +0.020 A 
ATOM     18  C7  UNL     1       9.703   9.286  21.291  0.00  0.00    +0.039 A 
ATOM     19 BR1  UNL     1      11.066   9.004  19.974  0.00  0.00    -0.048 Br
ENDBRANCH  10  12
ENDBRANCH   1   9
BRANCH   6  20
ATOM     20  O3  UNL     1      13.841   1.687  20.245  0.00  0.00    -0.487 OA
BRANCH  20  21
ATOM     21  C12 UNL     1      14.674   0.747  20.873  0.00  0.00    +0.124 A 
ATOM     22  C13 UNL     1      15.849   0.252  20.278  0.00  0.00    +0.065 A 
ATOM     23  C14 UNL     1      16.626  -0.683  20.966  0.00  0.00    +0.114 A 
ATOM     24  N3  UNL     1      16.249  -1.109  22.201  0.00  0.00    -0.263 NA
ATOM     25  C15 UNL     1      15.120  -0.646  22.798  0.00  0.00    +0.114 A 
ATOM     26  C16 UNL     1      14.315   0.290  22.146  0.00  0.00    +0.065 A 
ENDBRANCH  20  21
ENDBRANCH   6  20
TORSDOF 4
ENDMDL
MODEL 6
REMARK VINA RESULT:    -6.394     14.902     15.685
REMARK INTER + INTRA:          -7.852
REMARK INTER:                  -7.380
REMARK INTRA:                  -0.472
REMARK UNBOUND:                 0.038
REMARK  Name = /home/qwerty/github/datacon2025hack/step_04_hit_selection/docking/ligands/lig_484.pdb
REMARK  4 active torsions:
REMARK  status: ('A' for Active; 'I' for Inactive)
REMARK    1  A    between atoms: C1_2  and  C8_12
REMARK    2  A    between atoms: N1_3  and  C2_4
REMARK    3  A    between atoms: C11_17  and  O3_18
REMARK    4  A    between atoms: O3_18  and  C12_19
REMARK                            x       y       z     vdW  Elec       q    Type
REMARK                         _______ _______ _______ _____ _____    ______ ____
ROOT
ATOM      1  C8  UNL     1       9.991   9.693  23.760  0.00  0.00    +0.302 C 
ATOM      2  O2  UNL     1      10.741  10.488  23.129  0.00  0.00    -0.265 OA
ATOM      3  N2  UNL     1       9.370   8.607  23.043  0.00  0.00    -0.290 N 
ATOM      4  C9  UNL     1       8.702   7.469  23.656  0.00  0.00    +0.112 C 
ATOM      5  C10 UNL     1       8.483   6.464  22.533  0.00  0.00    +0.065 C 
ATOM      6  C11 UNL     1       8.624   7.259  21.233  0.00  0.00    +0.192 C 
ATOM      7  C17 UNL     1       9.461   8.480  21.597  0.00  0.00    +0.152 C 
ENDROOT
BRANCH   1   9
ATOM      8  O1  UNL     1      10.718   9.698  26.026  0.00  0.00    -0.265 OA
ATOM      9  C1  UNL     1       9.782   9.915  25.210  0.00  0.00    +0.303 C 
ATOM     10  N1  UNL     1       8.494  10.330  25.698  0.00  0.00    -0.277 N 
ATOM     11  H1  UNL     1       7.673  10.268  25.056  0.00  0.00    +0.155 HD
BRANCH  10  12
ATOM     12  C2  UNL     1       8.265  10.768  27.050  0.00  0.00    +0.051 A 
ATOM     13  C3  UNL     1       8.518  12.102  27.420  0.00  0.00    +0.062 A 
ATOM     14  C4  UNL     1       8.268  12.535  28.724  0.00  0.00    +0.125 A 
ATOM     15  F1  UNL     1       8.516  13.823  29.071  0.00  0.00    -0.205 F 
ATOM     16  C5  UNL     1       7.755  11.646  29.670  0.00  0.00    +0.039 A 
ATOM     17  C6  UNL     1       7.486  10.323  29.312  0.00  0.00    +0.020 A 
ATOM     18  C7  UNL     1       7.733   9.880  28.007  0.00  0.00    +0.039 A 
ATOM     19 BR1  UNL     1       7.369   8.046  27.583  0.00  0.00    -0.048 Br
ENDBRANCH  10  12
ENDBRANCH   1   9
BRANCH   6  20
ATOM     20  O3  UNL     1       9.278   6.495  20.217  0.00  0.00    -0.487 OA
BRANCH  20  21
ATOM     21  C12 UNL     1      10.309   5.568  20.435  0.00  0.00    +0.124 A 
ATOM     22  C13 UNL     1      10.070   4.243  20.845  0.00  0.00    +0.065 A 
ATOM     23  C14 UNL     1      11.149   3.379  21.041  0.00  0.00    +0.114 A 
ATOM     24  N3  UNL     1      12.420   3.815  20.835  0.00  0.00    -0.263 NA
ATOM     25  C15 UNL     1      12.679   5.089  20.438  0.00  0.00    +0.114 A 
ATOM     26  C16 UNL     1      11.629   5.985  20.229  0.00  0.00    +0.065 A 
ENDBRANCH  20  21
ENDBRANCH   6  20
TORSDOF 4
ENDMDL
MODEL 7
REMARK VINA RESULT:    -6.374     13.808     15.588
REMARK INTER + INTRA:          -7.827
REMARK INTER:                  -7.388
REMARK INTRA:                  -0.439
REMARK UNBOUND:                 0.038
REMARK  Name = /home/qwerty/github/datacon2025hack/step_04_hit_selection/docking/ligands/lig_484.pdb
REMARK  4 active torsions:
REMARK  status: ('A' for Active; 'I' for Inactive)
REMARK    1  A    between atoms: C1_2  and  C8_12
REMARK    2  A    between atoms: N1_3  and  C2_4
REMARK    3  A    between atoms: C11_17  and  O3_18
REMARK    4  A    between atoms: O3_18  and  C12_19
REMARK                            x       y       z     vdW  Elec       q    Type
REMARK                         _______ _______ _______ _____ _____    ______ ____
ROOT
ATOM      1  C8  UNL     1      10.660   4.434  21.281  0.00  0.00    +0.302 C 
ATOM      2  O2  UNL     1       9.998   3.530  21.860  0.00  0.00    -0.265 OA
ATOM      3  N2  UNL     1      12.005   4.143  20.847  0.00  0.00    -0.290 N 
ATOM      4  C9  UNL     1      12.795   4.971  19.949  0.00  0.00    +0.112 C 
ATOM      5  C10 UNL     1      13.996   4.123  19.554  0.00  0.00    +0.065 C 
ATOM      6  C11 UNL     1      14.080   3.012  20.603  0.00  0.00    +0.192 C 
ATOM      7  C17 UNL     1      12.673   2.896  21.180  0.00  0.00    +0.152 C 
ENDROOT
BRANCH   1   9
ATOM      8  O1  UNL     1       9.027   5.869  20.313  0.00  0.00    -0.265 OA
ATOM      9  C1  UNL     1      10.024   5.757  21.076  0.00  0.00    +0.303 C 
ATOM     10  N1  UNL     1      10.573   6.928  21.705  0.00  0.00    -0.277 N 
ATOM     11  H1  UNL     1      11.527   6.867  22.127  0.00  0.00    +0.155 HD
BRANCH  10  12
ATOM     12  C2  UNL     1       9.901   8.200  21.731  0.00  0.00    +0.051 A 
ATOM     13  C3  UNL     1      10.055   9.110  20.669  0.00  0.00    +0.062 A 
ATOM     14  C4  UNL     1       9.380  10.333  20.680  0.00  0.00    +0.125 A 
ATOM     15  F1  UNL     1       9.536  11.203  19.651  0.00  0.00    -0.205 F 
ATOM     16  C5  UNL     1       8.538  10.657  21.745  0.00  0.00    +0.039 A 
ATOM     17  C6  UNL     1       8.365   9.757  22.799  0.00  0.00    +0.020 A 
ATOM     18  C7  UNL     1       9.037   8.529  22.796  0.00  0.00    +0.039 A 
ATOM     19 BR1  UNL     1       8.781   7.347  24.284  0.00  0.00    -0.048 Br
ENDBRANCH  10  12
ENDBRANCH   1   9
BRANCH   6  20
ATOM     20  O3  UNL     1      14.480   1.769  20.022  0.00  0.00    -0.487 OA
BRANCH  20  21
ATOM     21  C12 UNL     1      15.161   0.740  20.693  0.00  0.00    +0.124 A 
ATOM     22  C13 UNL     1      14.937   0.434  22.048  0.00  0.00    +0.065 A 
ATOM     23  C14 UNL     1      15.654  -0.605  22.645  0.00  0.00    +0.114 A 
ATOM     24  N3  UNL     1      16.560  -1.315  21.922  0.00  0.00    -0.263 NA
ATOM     25  C15 UNL     1      16.794  -1.041  20.612  0.00  0.00    +0.114 A 
ATOM     26  C16 UNL     1      16.098  -0.012  19.975  0.00  0.00    +0.065 A 
ENDBRANCH  20  21
ENDBRANCH   6  20
TORSDOF 4
ENDMDL
MODEL 8
REMARK VINA RESULT:    -6.330      3.810      9.302
REMARK INTER + INTRA:          -7.772
REMARK INTER:                  -7.200
REMARK INTRA:                  -0.573
REMARK UNBOUND:                 0.038
REMARK  Name = /home/qwerty/github/datacon2025hack/step_04_hit_selection/docking/ligands/lig_484.pdb
REMARK  4 active torsions:
REMARK  status: ('A' for Active; 'I' for Inactive)
REMARK    1  A    between atoms: C1_2  and  C8_12
REMARK    2  A    between atoms: N1_3  and  C2_4
REMARK    3  A    between atoms: C11_17  and  O3_18
REMARK    4  A    between atoms: O3_18  and  C12_19
REMARK                            x       y       z     vdW  Elec       q    Type
REMARK                         _______ _______ _______ _____ _____    ______ ____
ROOT
ATOM      1  C8  UNL     1      22.196   5.522  33.784  0.00  0.00    +0.302 C 
ATOM      2  O2  UNL     1      23.363   5.991  33.683  0.00  0.00    -0.265 OA
ATOM      3  N2  UNL     1      21.382   5.920  34.907  0.00  0.00    -0.290 N 
ATOM      4  C9  UNL     1      19.952   5.684  35.032  0.00  0.00    +0.112 C 
ATOM      5  C10 UNL     1      19.495   6.531  36.212  0.00  0.00    +0.065 C 
ATOM      6  C11 UNL     1      20.765   6.862  36.999  0.00  0.00    +0.192 C 
ATOM      7  C17 UNL     1      21.907   6.725  35.998  0.00  0.00    +0.152 C 
ENDROOT
BRANCH   1   9
ATOM      8  O1  UNL     1      21.004   4.997  31.793  0.00  0.00    -0.265 OA
ATOM      9  C1  UNL     1      21.718   4.581  32.744  0.00  0.00    +0.303 C 
ATOM     10  N1  UNL     1      22.022   3.179  32.845  0.00  0.00    -0.277 N 
ATOM     11  H1  UNL     1      22.395   2.812  33.749  0.00  0.00    +0.155 HD
BRANCH  10  12
ATOM     12  C2  UNL     1      21.781   2.240  31.781  0.00  0.00    +0.051 A 
ATOM     13  C3  UNL     1      22.681   2.133  30.706  0.00  0.00    +0.062 A 
ATOM     14  C4  UNL     1      22.462   1.201  29.688  0.00  0.00    +0.125 A 
ATOM     15  F1  UNL     1      23.337   1.106  28.656  0.00  0.00    -0.205 F 
ATOM     16  C5  UNL     1      21.349   0.360  29.738  0.00  0.00    +0.039 A 
ATOM     17  C6  UNL     1      20.455   0.446  30.807  0.00  0.00    +0.020 A 
ATOM     18  C7  UNL     1      20.667   1.377  31.832  0.00  0.00    +0.039 A 
ATOM     19 BR1  UNL     1      19.389   1.466  33.258  0.00  0.00    -0.048 Br
ENDBRANCH  10  12
ENDBRANCH   1   9
BRANCH   6  20
ATOM     20  O3  UNL     1      20.727   8.190  37.527  0.00  0.00    -0.487 OA
BRANCH  20  21
ATOM     21  C12 UNL     1      19.941   9.240  37.027  0.00  0.00    +0.124 A 
ATOM     22  C13 UNL     1      18.728   9.635  37.623  0.00  0.00    +0.065 A 
ATOM     23  C14 UNL     1      18.002  10.690  37.067  0.00  0.00    +0.114 A 
ATOM     24  N3  UNL     1      18.464  11.331  35.961  0.00  0.00    -0.263 NA
ATOM     25  C15 UNL     1      19.632  10.971  35.367  0.00  0.00    +0.114 A 
ATOM     26  C16 UNL     1      20.390   9.922  35.891  0.00  0.00    +0.065 A 
ENDBRANCH  20  21
ENDBRANCH   6  20
TORSDOF 4
ENDMDL
MODEL 9
REMARK VINA RESULT:    -6.188      8.921     11.538
REMARK INTER + INTRA:          -7.598
REMARK INTER:                  -7.017
REMARK INTRA:                  -0.581
REMARK UNBOUND:                 0.038
REMARK  Name = /home/qwerty/github/datacon2025hack/step_04_hit_selection/docking/ligands/lig_484.pdb
REMARK  4 active torsions:
REMARK  status: ('A' for Active; 'I' for Inactive)
REMARK    1  A    between atoms: C1_2  and  C8_12
REMARK    2  A    between atoms: N1_3  and  C2_4
REMARK    3  A    between atoms: C11_17  and  O3_18
REMARK    4  A    between atoms: O3_18  and  C12_19
REMARK                            x       y       z     vdW  Elec       q    Type
REMARK                         _______ _______ _______ _____ _____    ______ ____
ROOT
ATOM      1  C8  UNL     1      17.378   0.779  23.987  0.00  0.00    +0.302 C 
ATOM      2  O2  UNL     1      16.880  -0.353  24.240  0.00  0.00    -0.265 OA
ATOM      3  N2  UNL     1      17.027   1.433  22.751  0.00  0.00    -0.290 N 
ATOM      4  C9  UNL     1      17.299   2.826  22.432  0.00  0.00    +0.112 C 
ATOM      5  C10 UNL     1      16.492   3.128  21.177  0.00  0.00    +0.065 C 
ATOM      6  C11 UNL     1      16.151   1.766  20.568  0.00  0.00    +0.192 C 
ATOM      7  C17 UNL     1      16.237   0.776  21.723  0.00  0.00    +0.152 C 
ENDROOT
BRANCH   1   9
ATOM      8  O1  UNL     1      17.867   2.168  25.857  0.00  0.00    -0.265 OA
ATOM      9  C1  UNL     1      18.305   1.381  24.975  0.00  0.00    +0.303 C 
ATOM     10  N1  UNL     1      19.715   1.112  24.900  0.00  0.00    -0.277 N 
ATOM     11  H1  UNL     1      20.093   0.667  24.034  0.00  0.00    +0.155 HD
BRANCH  10  12
ATOM     12  C2  UNL     1      20.647   1.480  25.933  0.00  0.00    +0.051 A 
ATOM     13  C3  UNL     1      20.845   0.644  27.047  0.00  0.00    +0.062 A 
ATOM     14  C4  UNL     1      21.770   0.987  28.035  0.00  0.00    +0.125 A 
ATOM     15  F1  UNL     1      21.953   0.174  29.105  0.00  0.00    -0.205 F 
ATOM     16  C5  UNL     1      22.515   2.163  27.918  0.00  0.00    +0.039 A 
ATOM     17  C6  UNL     1      22.338   2.994  26.811  0.00  0.00    +0.020 A 
ATOM     18  C7  UNL     1      21.413   2.658  25.815  0.00  0.00    +0.039 A 
ATOM     19 BR1  UNL     1      21.196   3.854  24.332  0.00  0.00    -0.048 Br
ENDBRANCH  10  12
ENDBRANCH   1   9
BRANCH   6  20
ATOM     20  O3  UNL     1      14.838   1.756  20.003  0.00  0.00    -0.487 OA
BRANCH  20  21
ATOM     21  C12 UNL     1      13.823   2.682  20.290  0.00  0.00    +0.124 A 
ATOM     22  C13 UNL     1      13.678   3.895  19.591  0.00  0.00    +0.065 A 
ATOM     23  C14 UNL     1      12.641   4.766  19.935  0.00  0.00    +0.114 A 
ATOM     24  N3  UNL     1      11.780   4.443  20.935  0.00  0.00    -0.263 NA
ATOM     25  C15 UNL     1      11.897   3.278  21.625  0.00  0.00    +0.114 A 
ATOM     26  C16 UNL     1      12.918   2.378  21.313  0.00  0.00    +0.065 A 
ENDBRANCH  20  21
ENDBRANCH   6  20
TORSDOF 4
ENDMDL
