REMARK  Name = /home/qwerty/github/datacon2025hack/step_04_hit_selection/docking/ligands/lig_572.pdb
REMARK  7 active torsions:
REMARK  status: ('A' for Active; 'I' for Inactive)
REMARK    1  A    between atoms: C1_1  and  C2_2
REMARK    2  A    between atoms: C2_2  and  C3_3
REMARK    3  A    between atoms: C2_2  and  C4_4
REMARK    4  A    between atoms: C6_6  and  N1_7
REMARK    5  A    between atoms: C7_8  and  C8_10
REMARK    6  A    between atoms: C15_20  and  C16_21
REMARK    7  A    between atoms: N3_24  and  C19_25
REMARK                            x       y       z     vdW  Elec       q    Type
REMARK                         _______ _______ _______ _____ _____    ______ ____
ROOT
ATOM      1  N1  UNL     1      -1.577   1.764   0.169  0.00  0.00    -0.262 N 
ATOM      2  C7  UNL     1      -0.430   0.929   0.376  0.00  0.00    +0.304 C 
ATOM      3  O1  UNL     1      -0.541  -0.141   1.032  0.00  0.00    -0.265 OA
ATOM      4  H9  UNL     1      -1.432   2.781  -0.024  0.00  0.00    +0.157 HD
ENDROOT
BRANCH   2   5
ATOM      5  C8  UNL     1       0.878   1.311  -0.181  0.00  0.00    +0.302 C 
ATOM      6  O2  UNL     1       0.987   2.372  -0.849  0.00  0.00    -0.265 OA
ATOM      7  N2  UNL     1       2.030   0.488   0.031  0.00  0.00    -0.289 N 
ATOM      8  C9  UNL     1       2.465  -0.455   1.082  0.00  0.00    +0.117 C 
ATOM      9  C10 UNL     1       3.906  -0.528   0.663  0.00  0.00    +0.010 C 
ATOM     10  C11 UNL     1       4.885   0.131   1.652  0.00  0.00    +0.038 C 
ATOM     11  C12 UNL     1       6.337   0.025   1.130  0.00  0.00    +0.160 C 
ATOM     12  O3  UNL     1       6.433  -0.688  -0.094  0.00  0.00    -0.380 OA
ATOM     13  C13 UNL     1       5.896  -1.990   0.055  0.00  0.00    +0.160 C 
ATOM     14  C14 UNL     1       4.372  -1.957   0.297  0.00  0.00    +0.038 C 
ATOM     15  C15 UNL     1       3.434   0.407  -0.443  0.00  0.00    +0.087 C 
BRANCH  15  16
ATOM     16  C16 UNL     1       3.605  -0.159  -1.882  0.00  0.00    +0.010 C 
ATOM     17  C17 UNL     1       3.001   0.685  -2.993  0.00  0.00    +0.006 C 
ATOM     18  C18 UNL     1       2.381  -0.658  -2.641  0.00  0.00    +0.006 C 
ENDBRANCH  15  16
ENDBRANCH   2   5
BRANCH   1  21
ATOM     19  C4  UNL     1      -4.975   1.151   1.066  0.00  0.00    +0.068 A 
ATOM     20  C5  UNL     1      -3.889   2.013   1.051  0.00  0.00    +0.069 A 
ATOM     21  C6  UNL     1      -2.919   1.307   0.376  0.00  0.00    +0.129 A 
ATOM     22  N3  UNL     1      -3.415   0.107  -0.005  0.00  0.00    -0.218 N 
ATOM     23  N4  UNL     1      -4.666   0.007   0.422  0.00  0.00    -0.169 NA
BRANCH  22  24
ATOM     24  C19 UNL     1      -2.786  -0.898  -0.818  0.00  0.00    +0.067 A 
ATOM     25  C20 UNL     1      -2.986  -2.258  -0.529  0.00  0.00    +0.028 A 
ATOM     26  C21 UNL     1      -2.380  -3.244  -1.314  0.00  0.00    +0.002 A 
ATOM     27  C22 UNL     1      -1.582  -2.880  -2.402  0.00  0.00    +0.000 A 
ATOM     28  C23 UNL     1      -1.403  -1.530  -2.716  0.00  0.00    +0.002 A 
ATOM     29  C24 UNL     1      -2.006  -0.542  -1.933  0.00  0.00    +0.028 A 
ENDBRANCH  22  24
BRANCH  19  31
ATOM     30  C1  UNL     1      -6.158   1.559   3.226  0.00  0.00    +0.014 C 
ATOM     31  C2  UNL     1      -6.311   1.408   1.709  0.00  0.00    +0.033 C 
ATOM     32  C3  UNL     1      -6.979   2.643   1.098  0.00  0.00    +0.014 C 
ENDBRANCH  19  31
ENDBRANCH   1  21
TORSDOF 5
