REMARK  Name = /home/qwerty/github/datacon2025hack/step_04_hit_selection/docking/ligands/lig_681.pdb
REMARK  3 active torsions:
REMARK  status: ('A' for Active; 'I' for Inactive)
REMARK    1  A    between atoms: C1_2  and  C11_14
REMARK    2  A    between atoms: N1_3  and  C2_4
REMARK    3  A    between atoms: C2_4  and  C3_5
REMARK                            x       y       z     vdW  Elec       q    Type
REMARK                         _______ _______ _______ _____ _____    ______ ____
ROOT
ATOM      1  O1  UNL     1       0.725  -2.393   1.201  0.00  0.00    -0.268 OA
ATOM      2  C1  UNL     1       0.709  -1.373   0.463  0.00  0.00    +0.265 C 
ATOM      3  N1  UNL     1      -0.538  -0.796   0.029  0.00  0.00    -0.301 N 
ATOM      4  H1  UNL     1      -0.534  -0.306  -0.893  0.00  0.00    +0.150 HD
ENDROOT
BRANCH   2   5
ATOM      5  C11 UNL     1       1.990  -0.815   0.000  0.00  0.00    +0.150 A 
ATOM      6  C12 UNL     1       2.158   0.356  -0.745  0.00  0.00    +0.083 A 
ATOM      7  C13 UNL     1       3.521   0.430  -0.891  0.00  0.00    +0.156 A 
ATOM      8  N2  UNL     1       4.245   1.379  -1.533  0.00  0.00    -0.236 NA
ATOM      9  C14 UNL     1       5.606   1.261  -1.554  0.00  0.00    +0.114 A 
ATOM     10  C15 UNL     1       6.239   0.173  -0.918  0.00  0.00    +0.039 A 
ATOM     11  C16 UNL     1       5.447  -0.781  -0.265  0.00  0.00    +0.116 A 
ATOM     12  N3  UNL     1       4.104  -0.607  -0.282  0.00  0.00    -0.221 N 
ATOM     13  N4  UNL     1       3.191  -1.383   0.274  0.00  0.00    -0.160 NA
ENDBRANCH   2   5
BRANCH   3  14
ATOM     14  C2  UNL     1      -1.820  -0.786   0.756  0.00  0.00    +0.060 C 
ATOM     15  C9  UNL     1      -2.348  -2.147   1.194  0.00  0.00    +0.033 C 
ATOM     16  C10 UNL     1      -1.835  -1.154   2.237  0.00  0.00    +0.033 C 
BRANCH  14  17
ATOM     17  C3  UNL     1      -2.845   0.215   0.293  0.00  0.00    -0.021 A 
ATOM     18  C4  UNL     1      -3.712  -0.096  -0.767  0.00  0.00    +0.006 A 
ATOM     19  C5  UNL     1      -4.634   0.851  -1.223  0.00  0.00    +0.003 A 
ATOM     20  C6  UNL     1      -4.687   2.118  -0.633  0.00  0.00    +0.038 A 
ATOM     21  C7  UNL     1      -3.813   2.441   0.409  0.00  0.00    +0.124 A 
ATOM     22  F1  UNL     1      -3.857   3.674   0.972  0.00  0.00    -0.205 F 
ATOM     23  C8  UNL     1      -2.889   1.496   0.867  0.00  0.00    +0.044 A 
ENDBRANCH  14  17
ENDBRANCH   3  14
TORSDOF 3
