MODEL 1
REMARK VINA RESULT:    -6.787      0.000      0.000
REMARK INTER + INTRA:         -10.423
REMARK INTER:                  -9.168
REMARK INTRA:                  -1.255
REMARK UNBOUND:                -1.255
REMARK  Name = /home/qwerty/github/datacon2025hack/step_04_hit_selection/docking/ligands/lig_482.pdb
REMARK  9 active torsions:
REMARK  status: ('A' for Active; 'I' for Inactive)
REMARK    1  A    between atoms: C1_1  and  C2_2
REMARK    2  A    between atoms: C2_2  and  C3_3
REMARK    3  A    between atoms: C3_3  and  C4_4
REMARK    4  A    between atoms: C3_3  and  N1_5
REMARK    5  A    between atoms: C5_6  and  C6_8
REMARK    6  A    between atoms: C10_12  and  C11_13
REMARK    7  A    between atoms: C11_13  and  N2_14
REMARK    8  A    between atoms: C12_15  and  C13_16
REMARK    9  A    between atoms: C20_27  and  C21_28
REMARK                            x       y       z     vdW  Elec       q    Type
REMARK                         _______ _______ _______ _____ _____    ______ ____
ROOT
ATOM      1  N2  UNL     1      10.451   6.316  21.622  0.00  0.00    -0.290 N 
ATOM      2  C12 UNL     1      11.521   7.050  21.228  0.00  0.00    +0.182 A 
ATOM      3  N4  UNL     1      12.656   6.326  21.277  0.00  0.00    -0.126 NA
ATOM      4  N5  UNL     1      12.335   5.119  21.716  0.00  0.00    -0.113 NA
ATOM      5  C17 UNL     1      11.005   5.120  21.929  0.00  0.00    +0.220 A 
ATOM      6  N6  UNL     1      10.291   3.954  22.383  0.00  0.00    -0.299 N 
ATOM      7  C18 UNL     1       9.245   3.984  23.397  0.00  0.00    +0.108 C 
ATOM      8  C19 UNL     1       8.945   2.529  23.731  0.00  0.00    +0.024 C 
ATOM      9  C20 UNL     1      10.166   1.741  23.251  0.00  0.00    +0.005 C 
ATOM     10  C21 UNL     1       9.804   0.343  22.740  0.00  0.00    +0.009 C 
ATOM     11  C22 UNL     1      10.813   2.612  22.174  0.00  0.00    +0.111 C 
ENDROOT
BRANCH   2  12
ATOM     12  C13 UNL     1      11.502   8.446  20.747  0.00  0.00    +0.084 A 
ATOM     13  C14 UNL     1      11.995   9.562  21.404  0.00  0.00    +0.031 A 
ATOM     14  C15 UNL     1      11.813  10.629  20.547  0.00  0.00    +0.020 A 
ATOM     15  C16 UNL     1      11.228  10.124  19.404  0.00  0.00    +0.083 A 
ATOM     16  N3  UNL     1      11.051   8.797  19.527  0.00  0.00    -0.358 N 
ATOM     17  H19 UNL     1      10.646   8.161  18.803  0.00  0.00    +0.165 HD
ENDBRANCH   2  12
BRANCH   1  18
ATOM     18  C11 UNL     1       9.029   6.663  21.517  0.00  0.00    +0.161 C 
BRANCH  18  23
ATOM     19  C6  UNL     1       8.350   8.893  24.539  0.00  0.00    +0.037 A 
ATOM     20  C7  UNL     1       7.960  10.094  23.922  0.00  0.00    +0.013 A 
ATOM     21  C8  UNL     1       7.918  10.193  22.531  0.00  0.00    +0.001 A 
ATOM     22  C9  UNL     1       8.260   9.099  21.736  0.00  0.00    +0.005 A 
ATOM     23  C10 UNL     1       8.656   7.886  22.330  0.00  0.00    -0.027 A 
ATOM     24  C23 UNL     1       8.689   7.791  23.731  0.00  0.00    +0.018 A 
BRANCH  19  26
ATOM     25  N1  UNL     1       7.678   9.762  26.836  0.00  0.00    -0.309 N 
ATOM     26  C5  UNL     1       8.362   8.794  26.021  0.00  0.00    +0.244 C 
ATOM     27  O1  UNL     1       8.969   7.833  26.569  0.00  0.00    -0.270 OA
ATOM     28  H10 UNL     1       6.989  10.413  26.396  0.00  0.00    +0.149 HD
BRANCH  25  29
ATOM     29  C3  UNL     1       7.916   9.897  28.278  0.00  0.00    +0.070 C 
ATOM     30  C4  UNL     1       8.167  11.370  28.611  0.00  0.00    +0.028 C 
BRANCH  29  32
ATOM     31  C1  UNL     1       7.115   8.901  30.474  0.00  0.00    +0.005 C 
ATOM     32  C2  UNL     1       6.712   9.358  29.072  0.00  0.00    +0.018 C 
ENDBRANCH  29  32
ENDBRANCH  25  29
ENDBRANCH  19  26
ENDBRANCH  18  23
ENDBRANCH   1  18
TORSDOF 6
ENDMDL
MODEL 2
REMARK VINA RESULT:    -6.646      2.240      3.600
REMARK INTER + INTRA:         -10.232
REMARK INTER:                  -9.057
REMARK INTRA:                  -1.175
REMARK UNBOUND:                -1.255
REMARK  Name = /home/qwerty/github/datacon2025hack/step_04_hit_selection/docking/ligands/lig_482.pdb
REMARK  9 active torsions:
REMARK  status: ('A' for Active; 'I' for Inactive)
REMARK    1  A    between atoms: C1_1  and  C2_2
REMARK    2  A    between atoms: C2_2  and  C3_3
REMARK    3  A    between atoms: C3_3  and  C4_4
REMARK    4  A    between atoms: C3_3  and  N1_5
REMARK    5  A    between atoms: C5_6  and  C6_8
REMARK    6  A    between atoms: C10_12  and  C11_13
REMARK    7  A    between atoms: C11_13  and  N2_14
REMARK    8  A    between atoms: C12_15  and  C13_16
REMARK    9  A    between atoms: C20_27  and  C21_28
REMARK                            x       y       z     vdW  Elec       q    Type
REMARK                         _______ _______ _______ _____ _____    ______ ____
ROOT
ATOM      1  N2  UNL     1       9.035   7.030  22.839  0.00  0.00    -0.290 N 
ATOM      2  C12 UNL     1       8.224   7.770  22.043  0.00  0.00    +0.182 A 
ATOM      3  N4  UNL     1       7.604   7.002  21.126  0.00  0.00    -0.126 NA
ATOM      4  N5  UNL     1       8.019   5.759  21.309  0.00  0.00    -0.113 NA
ATOM      5  C17 UNL     1       8.887   5.781  22.338  0.00  0.00    +0.220 A 
ATOM      6  N6  UNL     1       9.521   4.591  22.844  0.00  0.00    -0.299 N 
ATOM      7  C18 UNL     1      10.927   4.516  23.222  0.00  0.00    +0.108 C 
ATOM      8  C19 UNL     1      11.215   3.040  23.466  0.00  0.00    +0.024 C 
ATOM      9  C20 UNL     1      10.095   2.283  22.750  0.00  0.00    +0.005 C 
ATOM     10  C21 UNL     1       9.704   0.988  23.469  0.00  0.00    +0.009 C 
ATOM     11  C22 UNL     1       8.935   3.274  22.648  0.00  0.00    +0.111 C 
ENDROOT
BRANCH   2  12
ATOM     12  C13 UNL     1       7.969   9.221  22.154  0.00  0.00    +0.084 A 
ATOM     13  C14 UNL     1       8.421  10.214  21.300  0.00  0.00    +0.031 A 
ATOM     14  C15 UNL     1       7.882  11.398  21.764  0.00  0.00    +0.020 A 
ATOM     15  C16 UNL     1       7.121  11.081  22.870  0.00  0.00    +0.083 A 
ATOM     16  N3  UNL     1       7.168   9.757  23.095  0.00  0.00    -0.358 N 
ATOM     17  H19 UNL     1       6.668   9.245  23.857  0.00  0.00    +0.165 HD
ENDBRANCH   2  12
BRANCH   1  18
ATOM     18  C11 UNL     1       9.717   7.444  24.071  0.00  0.00    +0.161 C 
BRANCH  18  23
ATOM     19  C6  UNL     1       7.795   8.483  27.199  0.00  0.00    +0.037 A 
ATOM     20  C7  UNL     1       7.228   7.261  27.601  0.00  0.00    +0.013 A 
ATOM     21  C8  UNL     1       7.457   6.099  26.865  0.00  0.00    +0.001 A 
ATOM     22  C9  UNL     1       8.256   6.135  25.722  0.00  0.00    +0.005 A 
ATOM     23  C10 UNL     1       8.834   7.347  25.297  0.00  0.00    -0.027 A 
ATOM     24  C23 UNL     1       8.604   8.511  26.048  0.00  0.00    +0.018 A 
BRANCH  19  26
ATOM     25  N1  UNL     1       8.219  10.946  27.688  0.00  0.00    -0.309 N 
ATOM     26  C5  UNL     1       7.565   9.706  28.010  0.00  0.00    +0.244 C 
ATOM     27  O1  UNL     1       6.770   9.655  28.989  0.00  0.00    -0.270 OA
ATOM     28  H10 UNL     1       8.685  11.057  26.759  0.00  0.00    +0.149 HD
BRANCH  25  29
ATOM     29  C3  UNL     1       8.280  12.078  28.620  0.00  0.00    +0.070 C 
ATOM     30  C4  UNL     1       9.418  11.847  29.618  0.00  0.00    +0.028 C 
BRANCH  29  32
ATOM     31  C1  UNL     1       9.969  13.787  27.793  0.00  0.00    +0.005 C 
ATOM     32  C2  UNL     1       8.493  13.394  27.850  0.00  0.00    +0.018 C 
ENDBRANCH  29  32
ENDBRANCH  25  29
ENDBRANCH  19  26
ENDBRANCH  18  23
ENDBRANCH   1  18
TORSDOF 6
ENDMDL
MODEL 3
REMARK VINA RESULT:    -6.630      2.717      5.004
REMARK INTER + INTRA:         -10.211
REMARK INTER:                  -8.586
REMARK INTRA:                  -1.624
REMARK UNBOUND:                -1.255
REMARK  Name = /home/qwerty/github/datacon2025hack/step_04_hit_selection/docking/ligands/lig_482.pdb
REMARK  9 active torsions:
REMARK  status: ('A' for Active; 'I' for Inactive)
REMARK    1  A    between atoms: C1_1  and  C2_2
REMARK    2  A    between atoms: C2_2  and  C3_3
REMARK    3  A    between atoms: C3_3  and  C4_4
REMARK    4  A    between atoms: C3_3  and  N1_5
REMARK    5  A    between atoms: C5_6  and  C6_8
REMARK    6  A    between atoms: C10_12  and  C11_13
REMARK    7  A    between atoms: C11_13  and  N2_14
REMARK    8  A    between atoms: C12_15  and  C13_16
REMARK    9  A    between atoms: C20_27  and  C21_28
REMARK                            x       y       z     vdW  Elec       q    Type
REMARK                         _______ _______ _______ _____ _____    ______ ____
ROOT
ATOM      1  N2  UNL     1      10.451   3.859  21.141  0.00  0.00    -0.290 N 
ATOM      2  C12 UNL     1       9.193   3.884  21.646  0.00  0.00    +0.182 A 
ATOM      3  N4  UNL     1       9.049   2.997  22.649  0.00  0.00    -0.126 NA
ATOM      4  N5  UNL     1      10.209   2.377  22.795  0.00  0.00    -0.113 NA
ATOM      5  C17 UNL     1      11.050   2.895  21.880  0.00  0.00    +0.220 A 
ATOM      6  N6  UNL     1      12.425   2.479  21.765  0.00  0.00    -0.299 N 
ATOM      7  C18 UNL     1      13.100   2.242  20.495  0.00  0.00    +0.108 C 
ATOM      8  C19 UNL     1      14.435   1.601  20.847  0.00  0.00    +0.024 C 
ATOM      9  C20 UNL     1      14.264   1.055  22.266  0.00  0.00    +0.005 C 
ATOM     10  C21 UNL     1      15.558   1.120  23.085  0.00  0.00    +0.009 C 
ATOM     11  C22 UNL     1      13.134   1.878  22.884  0.00  0.00    +0.111 C 
ENDROOT
BRANCH   2  12
ATOM     12  C13 UNL     1       8.097   4.783  21.230  0.00  0.00    +0.084 A 
ATOM     13  C14 UNL     1       7.781   6.019  21.771  0.00  0.00    +0.031 A 
ATOM     14  C15 UNL     1       6.728   6.511  21.024  0.00  0.00    +0.020 A 
ATOM     15  C16 UNL     1       6.451   5.566  20.059  0.00  0.00    +0.083 A 
ATOM     16  N3  UNL     1       7.292   4.524  20.181  0.00  0.00    -0.358 N 
ATOM     17  H19 UNL     1       7.315   3.677  19.569  0.00  0.00    +0.165 HD
ENDBRANCH   2  12
BRANCH   1  18
ATOM     18  C11 UNL     1      11.066   4.798  20.196  0.00  0.00    +0.161 C 
BRANCH  18  23
ATOM     19  C6  UNL     1      11.648   8.137  21.950  0.00  0.00    +0.037 A 
ATOM     20  C7  UNL     1      13.041   8.116  22.141  0.00  0.00    +0.013 A 
ATOM     21  C8  UNL     1      13.798   7.026  21.711  0.00  0.00    +0.001 A 
ATOM     22  C9  UNL     1      13.181   5.945  21.082  0.00  0.00    +0.005 A 
ATOM     23  C10 UNL     1      11.788   5.940  20.881  0.00  0.00    -0.027 A 
ATOM     24  C23 UNL     1      11.034   7.045  21.310  0.00  0.00    +0.018 A 
BRANCH  19  26
ATOM     25  N1  UNL     1       9.460   9.205  22.696  0.00  0.00    -0.309 N 
ATOM     26  C5  UNL     1      10.861   9.318  22.387  0.00  0.00    +0.244 C 
ATOM     27  O1  UNL     1      11.438  10.434  22.503  0.00  0.00    -0.270 OA
ATOM     28  H10 UNL     1       9.036   8.259  22.829  0.00  0.00    +0.149 HD
BRANCH  25  29
ATOM     29  C3  UNL     1       8.577  10.370  22.819  0.00  0.00    +0.070 C 
ATOM     30  C4  UNL     1       8.061  10.760  21.432  0.00  0.00    +0.028 C 
BRANCH  29  32
ATOM     31  C1  UNL     1       7.857   9.979  25.225  0.00  0.00    +0.005 C 
ATOM     32  C2  UNL     1       7.404  10.055  23.766  0.00  0.00    +0.018 C 
ENDBRANCH  29  32
ENDBRANCH  25  29
ENDBRANCH  19  26
ENDBRANCH  18  23
ENDBRANCH   1  18
TORSDOF 6
ENDMDL
MODEL 4
REMARK VINA RESULT:    -6.491      4.194      8.894
REMARK INTER + INTRA:         -10.023
REMARK INTER:                  -8.602
REMARK INTRA:                  -1.422
REMARK UNBOUND:                -1.255
REMARK  Name = /home/qwerty/github/datacon2025hack/step_04_hit_selection/docking/ligands/lig_482.pdb
REMARK  9 active torsions:
REMARK  status: ('A' for Active; 'I' for Inactive)
REMARK    1  A    between atoms: C1_1  and  C2_2
REMARK    2  A    between atoms: C2_2  and  C3_3
REMARK    3  A    between atoms: C3_3  and  C4_4
REMARK    4  A    between atoms: C3_3  and  N1_5
REMARK    5  A    between atoms: C5_6  and  C6_8
REMARK    6  A    between atoms: C10_12  and  C11_13
REMARK    7  A    between atoms: C11_13  and  N2_14
REMARK    8  A    between atoms: C12_15  and  C13_16
REMARK    9  A    between atoms: C20_27  and  C21_28
REMARK                            x       y       z     vdW  Elec       q    Type
REMARK                         _______ _______ _______ _____ _____    ______ ____
ROOT
ATOM      1  N2  UNL     1      10.386   5.125  22.198  0.00  0.00    -0.290 N 
ATOM      2  C12 UNL     1       9.501   4.103  22.101  0.00  0.00    +0.182 A 
ATOM      3  N4  UNL     1       8.390   4.478  21.439  0.00  0.00    -0.126 NA
ATOM      4  N5  UNL     1       8.537   5.752  21.112  0.00  0.00    -0.113 NA
ATOM      5  C17 UNL     1       9.740   6.140  21.577  0.00  0.00    +0.220 A 
ATOM      6  N6  UNL     1      10.258   7.470  21.377  0.00  0.00    -0.299 N 
ATOM      7  C18 UNL     1      10.949   8.238  22.404  0.00  0.00    +0.108 C 
ATOM      8  C19 UNL     1      11.102   9.644  21.841  0.00  0.00    +0.024 C 
ATOM      9  C20 UNL     1      10.067   9.749  20.719  0.00  0.00    +0.005 C 
ATOM     10  C21 UNL     1      10.538  10.638  19.563  0.00  0.00    +0.009 C 
ATOM     11  C22 UNL     1       9.795   8.309  20.282  0.00  0.00    +0.111 C 
ENDROOT
BRANCH   2  12
ATOM     12  C13 UNL     1       9.695   2.722  22.589  0.00  0.00    +0.084 A 
ATOM     13  C14 UNL     1       9.457   2.249  23.869  0.00  0.00    +0.031 A 
ATOM     14  C15 UNL     1       9.718   0.893  23.836  0.00  0.00    +0.020 A 
ATOM     15  C16 UNL     1      10.096   0.594  22.544  0.00  0.00    +0.083 A 
ATOM     16  N3  UNL     1      10.069   1.705  21.788  0.00  0.00    -0.358 N 
ATOM     17  H19 UNL     1      10.290   1.761  20.768  0.00  0.00    +0.165 HD
ENDBRANCH   2  12
BRANCH   1  18
ATOM     18  C11 UNL     1      11.780   5.075  22.654  0.00  0.00    +0.161 C 
BRANCH  18  23
ATOM     19  C6  UNL     1      14.092   2.686  20.779  0.00  0.00    +0.037 A 
ATOM     20  C7  UNL     1      14.512   3.486  19.703  0.00  0.00    +0.013 A 
ATOM     21  C8  UNL     1      14.049   4.796  19.572  0.00  0.00    +0.001 A 
ATOM     22  C9  UNL     1      13.167   5.328  20.512  0.00  0.00    +0.005 A 
ATOM     23  C10 UNL     1      12.730   4.547  21.599  0.00  0.00    -0.027 A 
ATOM     24  C23 UNL     1      13.205   3.231  21.727  0.00  0.00    +0.018 A 
BRANCH  19  26
ATOM     25  N1  UNL     1      14.711   0.672  22.210  0.00  0.00    -0.309 N 
ATOM     26  C5  UNL     1      14.616   1.304  20.920  0.00  0.00    +0.244 C 
ATOM     27  O1  UNL     1      14.968   0.670  19.887  0.00  0.00    -0.270 OA
ATOM     28  H10 UNL     1      14.212   1.090  23.027  0.00  0.00    +0.149 HD
BRANCH  25  29
ATOM     29  C3  UNL     1      15.501  -0.542  22.443  0.00  0.00    +0.070 C 
ATOM     30  C4  UNL     1      16.983  -0.170  22.533  0.00  0.00    +0.028 C 
BRANCH  29  32
ATOM     31  C1  UNL     1      13.914  -0.470  24.427  0.00  0.00    +0.005 C 
ATOM     32  C2  UNL     1      15.038  -1.241  23.735  0.00  0.00    +0.018 C 
ENDBRANCH  29  32
ENDBRANCH  25  29
ENDBRANCH  19  26
ENDBRANCH  18  23
ENDBRANCH   1  18
TORSDOF 6
ENDMDL
MODEL 5
REMARK VINA RESULT:    -6.355     12.867     15.528
REMARK INTER + INTRA:          -9.839
REMARK INTER:                  -8.276
REMARK INTRA:                  -1.563
REMARK UNBOUND:                -1.255
REMARK  Name = /home/qwerty/github/datacon2025hack/step_04_hit_selection/docking/ligands/lig_482.pdb
REMARK  9 active torsions:
REMARK  status: ('A' for Active; 'I' for Inactive)
REMARK    1  A    between atoms: C1_1  and  C2_2
REMARK    2  A    between atoms: C2_2  and  C3_3
REMARK    3  A    between atoms: C3_3  and  C4_4
REMARK    4  A    between atoms: C3_3  and  N1_5
REMARK    5  A    between atoms: C5_6  and  C6_8
REMARK    6  A    between atoms: C10_12  and  C11_13
REMARK    7  A    between atoms: C11_13  and  N2_14
REMARK    8  A    between atoms: C12_15  and  C13_16
REMARK    9  A    between atoms: C20_27  and  C21_28
REMARK                            x       y       z     vdW  Elec       q    Type
REMARK                         _______ _______ _______ _____ _____    ______ ____
ROOT
ATOM      1  N2  UNL     1      18.939  10.528  36.381  0.00  0.00    -0.290 N 
ATOM      2  C12 UNL     1      18.836  11.818  35.975  0.00  0.00    +0.182 A 
ATOM      3  N4  UNL     1      19.995  12.260  35.450  0.00  0.00    -0.126 NA
ATOM      4  N5  UNL     1      20.865  11.266  35.525  0.00  0.00    -0.113 NA
ATOM      5  C17 UNL     1      20.226  10.226  36.093  0.00  0.00    +0.220 A 
ATOM      6  N6  UNL     1      20.859   8.949  36.307  0.00  0.00    -0.299 N 
ATOM      7  C18 UNL     1      20.709   8.160  37.523  0.00  0.00    +0.108 C 
ATOM      8  C19 UNL     1      21.721   7.028  37.412  0.00  0.00    +0.024 C 
ATOM      9  C20 UNL     1      22.739   7.492  36.367  0.00  0.00    +0.005 C 
ATOM     10  C21 UNL     1      23.302   6.334  35.537  0.00  0.00    +0.009 C 
ATOM     11  C22 UNL     1      22.003   8.525  35.514  0.00  0.00    +0.111 C 
ENDROOT
BRANCH   2  12
ATOM     12  C13 UNL     1      17.624  12.661  36.023  0.00  0.00    +0.084 A 
ATOM     13  C14 UNL     1      16.849  13.070  34.950  0.00  0.00    +0.031 A 
ATOM     14  C15 UNL     1      15.794  13.784  35.484  0.00  0.00    +0.020 A 
ATOM     15  C16 UNL     1      15.962  13.777  36.852  0.00  0.00    +0.083 A 
ATOM     16  N3  UNL     1      17.069  13.085  37.176  0.00  0.00    -0.358 N 
ATOM     17  H19 UNL     1      17.422  12.906  38.143  0.00  0.00    +0.165 HD
ENDBRANCH   2  12
BRANCH   1  18
ATOM     18  C11 UNL     1      17.863   9.626  36.809  0.00  0.00    +0.161 C 
BRANCH  18  23
ATOM     19  C6  UNL     1      14.446   9.528  35.112  0.00  0.00    +0.037 A 
ATOM     20  C7  UNL     1      14.778   9.035  33.838  0.00  0.00    +0.013 A 
ATOM     21  C8  UNL     1      16.103   8.736  33.518  0.00  0.00    +0.001 A 
ATOM     22  C9  UNL     1      17.114   8.920  34.461  0.00  0.00    +0.005 A 
ATOM     23  C10 UNL     1      16.808   9.415  35.743  0.00  0.00    -0.027 A 
ATOM     24  C23 UNL     1      15.471   9.707  36.060  0.00  0.00    +0.018 A 
BRANCH  19  26
ATOM     25  N1  UNL     1      12.586  11.152  35.733  0.00  0.00    -0.309 N 
ATOM     26  C5  UNL     1      13.028   9.813  35.447  0.00  0.00    +0.244 C 
ATOM     27  O1  UNL     1      12.197   8.864  35.465  0.00  0.00    -0.270 OA
ATOM     28  H10 UNL     1      13.203  11.961  35.494  0.00  0.00    +0.149 HD
BRANCH  25  29
ATOM     29  C3  UNL     1      11.297  11.444  36.370  0.00  0.00    +0.070 C 
ATOM     30  C4  UNL     1      11.386  11.117  37.862  0.00  0.00    +0.028 C 
BRANCH  29  32
ATOM     31  C1  UNL     1      12.069  13.720  35.544  0.00  0.00    +0.005 C 
ATOM     32  C2  UNL     1      10.919  12.922  36.160  0.00  0.00    +0.018 C 
ENDBRANCH  29  32
ENDBRANCH  25  29
ENDBRANCH  19  26
ENDBRANCH  18  23
ENDBRANCH   1  18
TORSDOF 6
ENDMDL
MODEL 6
REMARK VINA RESULT:    -6.292     12.399     15.122
REMARK INTER + INTRA:          -9.754
REMARK INTER:                  -7.958
REMARK INTRA:                  -1.796
REMARK UNBOUND:                -1.255
REMARK  Name = /home/qwerty/github/datacon2025hack/step_04_hit_selection/docking/ligands/lig_482.pdb
REMARK  9 active torsions:
REMARK  status: ('A' for Active; 'I' for Inactive)
REMARK    1  A    between atoms: C1_1  and  C2_2
REMARK    2  A    between atoms: C2_2  and  C3_3
REMARK    3  A    between atoms: C3_3  and  C4_4
REMARK    4  A    between atoms: C3_3  and  N1_5
REMARK    5  A    between atoms: C5_6  and  C6_8
REMARK    6  A    between atoms: C10_12  and  C11_13
REMARK    7  A    between atoms: C11_13  and  N2_14
REMARK    8  A    between atoms: C12_15  and  C13_16
REMARK    9  A    between atoms: C20_27  and  C21_28
REMARK                            x       y       z     vdW  Elec       q    Type
REMARK                         _______ _______ _______ _____ _____    ______ ____
ROOT
ATOM      1  N2  UNL     1      17.461  11.498  36.469  0.00  0.00    -0.290 N 
ATOM      2  C12 UNL     1      17.360  12.684  35.820  0.00  0.00    +0.182 A 
ATOM      3  N4  UNL     1      18.338  12.828  34.906  0.00  0.00    -0.126 NA
ATOM      4  N5  UNL     1      19.093  11.742  34.962  0.00  0.00    -0.113 NA
ATOM      5  C17 UNL     1      18.564  10.946  35.911  0.00  0.00    +0.220 A 
ATOM      6  N6  UNL     1      19.109   9.651  36.229  0.00  0.00    -0.299 N 
ATOM      7  C18 UNL     1      19.267   9.145  37.587  0.00  0.00    +0.108 C 
ATOM      8  C19 UNL     1      20.086   7.867  37.463  0.00  0.00    +0.024 C 
ATOM      9  C20 UNL     1      20.773   7.953  36.099  0.00  0.00    +0.005 C 
ATOM     10  C21 UNL     1      20.943   6.583  35.435  0.00  0.00    +0.009 C 
ATOM     11  C22 UNL     1      19.911   8.906  35.270  0.00  0.00    +0.111 C 
ENDROOT
BRANCH   2  12
ATOM     12  C13 UNL     1      16.306  13.702  36.008  0.00  0.00    +0.084 A 
ATOM     13  C14 UNL     1      15.285  14.018  35.126  0.00  0.00    +0.031 A 
ATOM     14  C15 UNL     1      14.514  14.978  35.753  0.00  0.00    +0.020 A 
ATOM     15  C16 UNL     1      15.087  15.201  36.988  0.00  0.00    +0.083 A 
ATOM     16  N3  UNL     1      16.168  14.417  37.142  0.00  0.00    -0.358 N 
ATOM     17  H19 UNL     1      16.778  14.370  37.989  0.00  0.00    +0.165 HD
ENDBRANCH   2  12
BRANCH   1  18
ATOM     18  C11 UNL     1      16.489  10.877  37.376  0.00  0.00    +0.161 C 
BRANCH  18  23
ATOM     19  C6  UNL     1      13.206  10.212  35.547  0.00  0.00    +0.037 A 
ATOM     20  C7  UNL     1      13.292   8.830  35.307  0.00  0.00    +0.013 A 
ATOM     21  C8  UNL     1      14.408   8.107  35.728  0.00  0.00    +0.001 A 
ATOM     22  C9  UNL     1      15.452   8.747  36.396  0.00  0.00    +0.005 A 
ATOM     23  C10 UNL     1      15.391  10.131  36.647  0.00  0.00    -0.027 A 
ATOM     24  C23 UNL     1      14.261  10.851  36.226  0.00  0.00    +0.018 A 
BRANCH  19  26
ATOM     25  N1  UNL     1      12.080  12.347  34.736  0.00  0.00    -0.309 N 
ATOM     26  C5  UNL     1      11.999  10.963  35.119  0.00  0.00    +0.244 C 
ATOM     27  O1  UNL     1      10.887  10.368  35.077  0.00  0.00    -0.270 OA
ATOM     28  H10 UNL     1      13.014  12.775  34.543  0.00  0.00    +0.149 HD
BRANCH  25  29
ATOM     29  C3  UNL     1      10.899  13.209  34.615  0.00  0.00    +0.070 C 
ATOM     30  C4  UNL     1      10.535  13.761  35.995  0.00  0.00    +0.028 C 
BRANCH  29  32
ATOM     31  C1  UNL     1      12.181  13.952  32.550  0.00  0.00    +0.005 C 
ATOM     32  C2  UNL     1      11.173  14.357  33.626  0.00  0.00    +0.018 C 
ENDBRANCH  29  32
ENDBRANCH  25  29
ENDBRANCH  19  26
ENDBRANCH  18  23
ENDBRANCH   1  18
TORSDOF 6
ENDMDL
MODEL 7
REMARK VINA RESULT:    -6.288     14.328     16.595
REMARK INTER + INTRA:          -9.748
REMARK INTER:                  -8.101
REMARK INTRA:                  -1.648
REMARK UNBOUND:                -1.255
REMARK  Name = /home/qwerty/github/datacon2025hack/step_04_hit_selection/docking/ligands/lig_482.pdb
REMARK  9 active torsions:
REMARK  status: ('A' for Active; 'I' for Inactive)
REMARK    1  A    between atoms: C1_1  and  C2_2
REMARK    2  A    between atoms: C2_2  and  C3_3
REMARK    3  A    between atoms: C3_3  and  C4_4
REMARK    4  A    between atoms: C3_3  and  N1_5
REMARK    5  A    between atoms: C5_6  and  C6_8
REMARK    6  A    between atoms: C10_12  and  C11_13
REMARK    7  A    between atoms: C11_13  and  N2_14
REMARK    8  A    between atoms: C12_15  and  C13_16
REMARK    9  A    between atoms: C20_27  and  C21_28
REMARK                            x       y       z     vdW  Elec       q    Type
REMARK                         _______ _______ _______ _____ _____    ______ ____
ROOT
ATOM      1  N2  UNL     1      17.631   9.452  36.318  0.00  0.00    -0.290 N 
ATOM      2  C12 UNL     1      16.963  10.085  37.314  0.00  0.00    +0.182 A 
ATOM      3  N4  UNL     1      17.619   9.984  38.485  0.00  0.00    -0.126 NA
ATOM      4  N5  UNL     1      18.713   9.272  38.264  0.00  0.00    -0.113 NA
ATOM      5  C17 UNL     1      18.712   8.947  36.958  0.00  0.00    +0.220 A 
ATOM      6  N6  UNL     1      19.776   8.194  36.345  0.00  0.00    -0.299 N 
ATOM      7  C18 UNL     1      19.564   7.121  35.382  0.00  0.00    +0.108 C 
ATOM      8  C19 UNL     1      20.922   6.460  35.187  0.00  0.00    +0.024 C 
ATOM      9  C20 UNL     1      21.752   6.868  36.406  0.00  0.00    +0.005 C 
ATOM     10  C21 UNL     1      23.239   7.035  36.079  0.00  0.00    +0.009 C 
ATOM     11  C22 UNL     1      21.113   8.158  36.919  0.00  0.00    +0.111 C 
ENDROOT
BRANCH   2  12
ATOM     12  C13 UNL     1      15.706  10.849  37.182  0.00  0.00    +0.084 A 
ATOM     13  C14 UNL     1      15.566  12.227  37.155  0.00  0.00    +0.031 A 
ATOM     14  C15 UNL     1      14.222  12.477  36.955  0.00  0.00    +0.020 A 
ATOM     15  C16 UNL     1      13.601  11.250  36.860  0.00  0.00    +0.083 A 
ATOM     16  N3  UNL     1      14.507  10.265  36.988  0.00  0.00    -0.358 N 
ATOM     17  H19 UNL     1      14.313   9.239  36.936  0.00  0.00    +0.165 HD
ENDBRANCH   2  12
BRANCH   1  18
ATOM     18  C11 UNL     1      17.365   9.501  34.876  0.00  0.00    +0.161 C 
BRANCH  18  23
ATOM     19  C6  UNL     1      19.962  11.047  32.546  0.00  0.00    +0.037 A 
ATOM     20  C7  UNL     1      19.780  12.419  32.791  0.00  0.00    +0.013 A 
ATOM     21  C8  UNL     1      18.817  12.853  33.703  0.00  0.00    +0.001 A 
ATOM     22  C9  UNL     1      18.027  11.929  34.386  0.00  0.00    +0.005 A 
ATOM     23  C10 UNL     1      18.188  10.549  34.157  0.00  0.00    -0.027 A 
ATOM     24  C23 UNL     1      19.164  10.120  33.242  0.00  0.00    +0.018 A 
BRANCH  19  26
ATOM     25  N1  UNL     1      21.769   9.401  31.833  0.00  0.00    -0.309 N 
ATOM     26  C5  UNL     1      21.011  10.600  31.595  0.00  0.00    +0.244 C 
ATOM     27  O1  UNL     1      21.226  11.278  30.552  0.00  0.00    -0.270 OA
ATOM     28  H10 UNL     1      21.443   8.720  32.555  0.00  0.00    +0.149 HD
BRANCH  25  29
ATOM     29  C3  UNL     1      23.008   9.088  31.113  0.00  0.00    +0.070 C 
ATOM     30  C4  UNL     1      24.187   9.756  31.824  0.00  0.00    +0.028 C 
BRANCH  29  32
ATOM     31  C1  UNL     1      23.759   6.998  32.348  0.00  0.00    +0.005 C 
ATOM     32  C2  UNL     1      23.213   7.564  31.037  0.00  0.00    +0.018 C 
ENDBRANCH  29  32
ENDBRANCH  25  29
ENDBRANCH  19  26
ENDBRANCH  18  23
ENDBRANCH   1  18
TORSDOF 6
ENDMDL
MODEL 8
REMARK VINA RESULT:    -6.216     14.778     16.217
REMARK INTER + INTRA:          -9.651
REMARK INTER:                  -8.198
REMARK INTRA:                  -1.453
REMARK UNBOUND:                -1.255
REMARK  Name = /home/qwerty/github/datacon2025hack/step_04_hit_selection/docking/ligands/lig_482.pdb
REMARK  9 active torsions:
REMARK  status: ('A' for Active; 'I' for Inactive)
REMARK    1  A    between atoms: C1_1  and  C2_2
REMARK    2  A    between atoms: C2_2  and  C3_3
REMARK    3  A    between atoms: C3_3  and  C4_4
REMARK    4  A    between atoms: C3_3  and  N1_5
REMARK    5  A    between atoms: C5_6  and  C6_8
REMARK    6  A    between atoms: C10_12  and  C11_13
REMARK    7  A    between atoms: C11_13  and  N2_14
REMARK    8  A    between atoms: C12_15  and  C13_16
REMARK    9  A    between atoms: C20_27  and  C21_28
REMARK                            x       y       z     vdW  Elec       q    Type
REMARK                         _______ _______ _______ _____ _____    ______ ____
ROOT
ATOM      1  N2  UNL     1      21.714   7.742  34.653  0.00  0.00    -0.290 N 
ATOM      2  C12 UNL     1      22.409   7.456  33.524  0.00  0.00    +0.182 A 
ATOM      3  N4  UNL     1      21.992   6.301  32.971  0.00  0.00    -0.126 NA
ATOM      4  N5  UNL     1      21.032   5.819  33.743  0.00  0.00    -0.113 NA
ATOM      5  C17 UNL     1      20.872   6.687  34.760  0.00  0.00    +0.220 A 
ATOM      6  N6  UNL     1      19.881   6.504  35.790  0.00  0.00    -0.299 N 
ATOM      7  C18 UNL     1      20.126   6.741  37.207  0.00  0.00    +0.108 C 
ATOM      8  C19 UNL     1      18.904   6.200  37.937  0.00  0.00    +0.024 C 
ATOM      9  C20 UNL     1      18.231   5.242  36.952  0.00  0.00    +0.005 C 
ATOM     10  C21 UNL     1      16.705   5.228  37.091  0.00  0.00    +0.009 C 
ATOM     11  C22 UNL     1      18.692   5.694  35.567  0.00  0.00    +0.111 C 
ENDROOT
BRANCH   2  12
ATOM     12  C13 UNL     1      23.459   8.289  32.903  0.00  0.00    +0.084 A 
ATOM     13  C14 UNL     1      23.328   9.099  31.787  0.00  0.00    +0.031 A 
ATOM     14  C15 UNL     1      24.547   9.727  31.618  0.00  0.00    +0.020 A 
ATOM     15  C16 UNL     1      25.365   9.283  32.637  0.00  0.00    +0.083 A 
ATOM     16  N3  UNL     1      24.696   8.419  33.420  0.00  0.00    -0.358 N 
ATOM     17  H19 UNL     1      25.070   7.946  34.274  0.00  0.00    +0.165 HD
ENDBRANCH   2  12
BRANCH   1  18
ATOM     18  C11 UNL     1      21.718   8.989  35.426  0.00  0.00    +0.161 C 
BRANCH  18  23
ATOM     19  C6  UNL     1      19.713  11.570  33.455  0.00  0.00    +0.037 A 
ATOM     20  C7  UNL     1      18.569  11.711  34.259  0.00  0.00    +0.013 A 
ATOM     21  C8  UNL     1      18.434  10.974  35.435  0.00  0.00    +0.001 A 
ATOM     22  C9  UNL     1      19.438  10.089  35.830  0.00  0.00    +0.005 A 
ATOM     23  C10 UNL     1      20.593   9.928  35.042  0.00  0.00    -0.027 A 
ATOM     24  C23 UNL     1      20.724  10.679  33.862  0.00  0.00    +0.018 A 
BRANCH  19  26
ATOM     25  N1  UNL     1      20.241  13.768  32.283  0.00  0.00    -0.309 N 
ATOM     26  C5  UNL     1      19.854  12.383  32.221  0.00  0.00    +0.244 C 
ATOM     27  O1  UNL     1      19.645  11.843  31.100  0.00  0.00    -0.270 OA
ATOM     28  H10 UNL     1      20.639  14.153  33.169  0.00  0.00    +0.149 HD
BRANCH  25  29
ATOM     29  C3  UNL     1      20.089  14.687  31.150  0.00  0.00    +0.070 C 
ATOM     30  C4  UNL     1      19.091  15.786  31.523  0.00  0.00    +0.028 C 
BRANCH  29  32
ATOM     31  C1  UNL     1      22.125  14.520  29.639  0.00  0.00    +0.005 C 
ATOM     32  C2  UNL     1      21.451  15.298  30.769  0.00  0.00    +0.018 C 
ENDBRANCH  29  32
ENDBRANCH  25  29
ENDBRANCH  19  26
ENDBRANCH  18  23
ENDBRANCH   1  18
TORSDOF 6
ENDMDL
MODEL 9
REMARK VINA RESULT:    -6.182     14.565     15.835
REMARK INTER + INTRA:          -9.605
REMARK INTER:                  -8.262
REMARK INTRA:                  -1.343
REMARK UNBOUND:                -1.255
REMARK  Name = /home/qwerty/github/datacon2025hack/step_04_hit_selection/docking/ligands/lig_482.pdb
REMARK  9 active torsions:
REMARK  status: ('A' for Active; 'I' for Inactive)
REMARK    1  A    between atoms: C1_1  and  C2_2
REMARK    2  A    between atoms: C2_2  and  C3_3
REMARK    3  A    between atoms: C3_3  and  C4_4
REMARK    4  A    between atoms: C3_3  and  N1_5
REMARK    5  A    between atoms: C5_6  and  C6_8
REMARK    6  A    between atoms: C10_12  and  C11_13
REMARK    7  A    between atoms: C11_13  and  N2_14
REMARK    8  A    between atoms: C12_15  and  C13_16
REMARK    9  A    between atoms: C20_27  and  C21_28
REMARK                            x       y       z     vdW  Elec       q    Type
REMARK                         _______ _______ _______ _____ _____    ______ ____
ROOT
ATOM      1  N2  UNL     1      21.743   7.769  34.686  0.00  0.00    -0.290 N 
ATOM      2  C12 UNL     1      22.433   7.536  33.543  0.00  0.00    +0.182 A 
ATOM      3  N4  UNL     1      21.991   6.426  32.921  0.00  0.00    -0.126 NA
ATOM      4  N5  UNL     1      21.019   5.920  33.662  0.00  0.00    -0.113 NA
ATOM      5  C17 UNL     1      20.877   6.729  34.729  0.00  0.00    +0.220 A 
ATOM      6  N6  UNL     1      19.881   6.505  35.746  0.00  0.00    -0.299 N 
ATOM      7  C18 UNL     1      20.129   6.651  37.175  0.00  0.00    +0.108 C 
ATOM      8  C19 UNL     1      18.894   6.094  37.871  0.00  0.00    +0.024 C 
ATOM      9  C20 UNL     1      18.202   5.212  36.829  0.00  0.00    +0.005 C 
ATOM     10  C21 UNL     1      16.676   5.224  36.967  0.00  0.00    +0.009 C 
ATOM     11  C22 UNL     1      18.675   5.737  35.474  0.00  0.00    +0.111 C 
ENDROOT
BRANCH   2  12
ATOM     12  C13 UNL     1      23.502   8.382  32.973  0.00  0.00    +0.084 A 
ATOM     13  C14 UNL     1      23.384   9.284  31.928  0.00  0.00    +0.031 A 
ATOM     14  C15 UNL     1      24.621   9.883  31.791  0.00  0.00    +0.020 A 
ATOM     15  C16 UNL     1      25.437   9.332  32.756  0.00  0.00    +0.083 A 
ATOM     16  N3  UNL     1      24.750   8.430  33.479  0.00  0.00    -0.358 N 
ATOM     17  H19 UNL     1      25.119   7.878  34.285  0.00  0.00    +0.165 HD
ENDBRANCH   2  12
BRANCH   1  18
ATOM     18  C11 UNL     1      21.773   8.967  35.534  0.00  0.00    +0.161 C 
BRANCH  18  23
ATOM     19  C6  UNL     1      18.458  10.842  35.788  0.00  0.00    +0.037 A 
ATOM     20  C7  UNL     1      18.543  11.714  34.688  0.00  0.00    +0.013 A 
ATOM     21  C8  UNL     1      19.668  11.706  33.864  0.00  0.00    +0.001 A 
ATOM     22  C9  UNL     1      20.722  10.828  34.119  0.00  0.00    +0.005 A 
ATOM     23  C10 UNL     1      20.663   9.946  35.214  0.00  0.00    -0.027 A 
ATOM     24  C23 UNL     1      19.524   9.956  36.036  0.00  0.00    +0.018 A 
BRANCH  19  26
ATOM     25  N1  UNL     1      15.957  11.202  36.100  0.00  0.00    -0.309 N 
ATOM     26  C5  UNL     1      17.241  10.842  36.638  0.00  0.00    +0.244 C 
ATOM     27  O1  UNL     1      17.338  10.504  37.851  0.00  0.00    -0.270 OA
ATOM     28  H10 UNL     1      15.828  11.253  35.064  0.00  0.00    +0.149 HD
BRANCH  25  29
ATOM     29  C3  UNL     1      14.802  11.524  36.945  0.00  0.00    +0.070 C 
ATOM     30  C4  UNL     1      14.525  13.028  36.869  0.00  0.00    +0.028 C 
BRANCH  29  32
ATOM     31  C1  UNL     1      12.297  11.188  37.204  0.00  0.00    +0.005 C 
ATOM     32  C2  UNL     1      13.568  10.721  36.495  0.00  0.00    +0.018 C 
ENDBRANCH  29  32
ENDBRANCH  25  29
ENDBRANCH  19  26
ENDBRANCH  18  23
ENDBRANCH   1  18
TORSDOF 6
ENDMDL
