MODEL 1
REMARK VINA RESULT:    -6.140      0.000      0.000
REMARK INTER + INTRA:          -7.906
REMARK INTER:                  -7.217
REMARK INTRA:                  -0.689
REMARK UNBOUND:                -0.689
REMARK  Name = /home/qwerty/github/datacon2025hack/step_04_hit_selection/docking/ligands/lig_46.pdb
REMARK  4 active torsions:
REMARK  status: ('A' for Active; 'I' for Inactive)
REMARK    1  A    between atoms: C1_1  and  C2_2
REMARK    2  A    between atoms: C2_2  and  N1_3
REMARK    3  A    between atoms: C2_2  and  C10_14
REMARK    4  A    between atoms: C3_4  and  C4_6
REMARK                            x       y       z     vdW  Elec       q    Type
REMARK                         _______ _______ _______ _____ _____    ______ ____
ROOT
ATOM      1  N1  UNL     1      23.455   4.593  32.951  0.00  0.00    -0.305 N 
ATOM      2  C3  UNL     1      22.327   4.325  32.102  0.00  0.00    +0.245 C 
ATOM      3  O1  UNL     1      21.963   5.190  31.258  0.00  0.00    -0.270 OA
ATOM      4  H5  UNL     1      23.896   3.803  33.474  0.00  0.00    +0.150 HD
ENDROOT
BRANCH   2   5
ATOM      5  C4  UNL     1      21.587   3.043  32.193  0.00  0.00    +0.040 A 
ATOM      6  C5  UNL     1      20.775   2.776  33.310  0.00  0.00    +0.016 A 
ATOM      7  C6  UNL     1      20.080   1.566  33.407  0.00  0.00    +0.042 A 
ATOM      8  C7  UNL     1      20.193   0.609  32.397  0.00  0.00    +0.158 A 
ATOM      9  F1  UNL     1      19.519  -0.563  32.496  0.00  0.00    -0.202 F 
ATOM     10  C8  UNL     1      21.008   0.857  31.288  0.00  0.00    +0.159 A 
ATOM     11  F2  UNL     1      21.130  -0.077  30.312  0.00  0.00    -0.202 F 
ATOM     12  C9  UNL     1      21.704   2.066  31.186  0.00  0.00    +0.054 A 
ENDBRANCH   2   5
BRANCH   1  14
ATOM     13  C1  UNL     1      25.539   5.847  33.384  0.00  0.00    +0.033 C 
ATOM     14  C2  UNL     1      24.045   5.933  33.053  0.00  0.00    +0.103 C 
BRANCH  14  15
ATOM     15  C10 UNL     1      23.321   6.756  34.101  0.00  0.00    +0.008 A 
ATOM     16  C11 UNL     1      23.406   6.388  35.456  0.00  0.00    +0.011 A 
ATOM     17  C12 UNL     1      22.737   7.128  36.435  0.00  0.00    +0.039 A 
ATOM     18  C13 UNL     1      21.969   8.237  36.072  0.00  0.00    +0.126 A 
ATOM     19  F3  UNL     1      21.320   8.952  37.024  0.00  0.00    -0.205 F 
ATOM     20  C14 UNL     1      21.866   8.607  34.729  0.00  0.00    +0.077 A 
ATOM     21  C15 UNL     1      22.534   7.872  33.744  0.00  0.00    +0.131 A 
ATOM     22  F4  UNL     1      22.411   8.251  32.447  0.00  0.00    -0.205 F 
ENDBRANCH  14  15
ENDBRANCH   1  14
TORSDOF 3
ENDMDL
MODEL 2
REMARK VINA RESULT:    -6.016     16.440     17.960
REMARK INTER + INTRA:          -7.759
REMARK INTER:                  -7.091
REMARK INTRA:                  -0.668
REMARK UNBOUND:                -0.689
REMARK  Name = /home/qwerty/github/datacon2025hack/step_04_hit_selection/docking/ligands/lig_46.pdb
REMARK  4 active torsions:
REMARK  status: ('A' for Active; 'I' for Inactive)
REMARK    1  A    between atoms: C1_1  and  C2_2
REMARK    2  A    between atoms: C2_2  and  N1_3
REMARK    3  A    between atoms: C2_2  and  C10_14
REMARK    4  A    between atoms: C3_4  and  C4_6
REMARK                            x       y       z     vdW  Elec       q    Type
REMARK                         _______ _______ _______ _____ _____    ______ ____
ROOT
ATOM      1  N1  UNL     1       9.121   9.349  25.397  0.00  0.00    -0.305 N 
ATOM      2  C3  UNL     1       8.093   9.482  26.392  0.00  0.00    +0.245 C 
ATOM      3  O1  UNL     1       7.151   8.641  26.431  0.00  0.00    -0.270 OA
ATOM      4  H5  UNL     1      10.007   9.891  25.508  0.00  0.00    +0.150 HD
ENDROOT
BRANCH   2   5
ATOM      5  C4  UNL     1       8.123  10.584  27.383  0.00  0.00    +0.040 A 
ATOM      6  C5  UNL     1       7.721  10.349  28.711  0.00  0.00    +0.016 A 
ATOM      7  C6  UNL     1       7.739  11.385  29.650  0.00  0.00    +0.042 A 
ATOM      8  C7  UNL     1       8.150  12.665  29.275  0.00  0.00    +0.158 A 
ATOM      9  F1  UNL     1       8.165  13.667  30.189  0.00  0.00    -0.202 F 
ATOM     10  C8  UNL     1       8.539  12.915  27.956  0.00  0.00    +0.159 A 
ATOM     11  F2  UNL     1       8.926  14.161  27.586  0.00  0.00    -0.202 F 
ATOM     12  C9  UNL     1       8.524  11.882  27.013  0.00  0.00    +0.054 A 
ENDBRANCH   2   5
BRANCH   1  14
ATOM     13  C1  UNL     1      10.014   7.294  24.359  0.00  0.00    +0.033 C 
ATOM     14  C2  UNL     1       8.986   8.426  24.265  0.00  0.00    +0.103 C 
BRANCH  14  15
ATOM     15  C10 UNL     1       9.140   9.167  22.951  0.00  0.00    +0.008 A 
ATOM     16  C11 UNL     1      10.262   8.920  22.139  0.00  0.00    +0.011 A 
ATOM     17  C12 UNL     1      10.427   9.601  20.930  0.00  0.00    +0.039 A 
ATOM     18  C13 UNL     1       9.479  10.542  20.521  0.00  0.00    +0.126 A 
ATOM     19  F3  UNL     1       9.641  11.202  19.348  0.00  0.00    -0.205 F 
ATOM     20  C14 UNL     1       8.365  10.806  21.322  0.00  0.00    +0.077 A 
ATOM     21  C15 UNL     1       8.193  10.127  22.533  0.00  0.00    +0.131 A 
ATOM     22  F4  UNL     1       7.105  10.409  23.294  0.00  0.00    -0.205 F 
ENDBRANCH  14  15
ENDBRANCH   1  14
TORSDOF 3
ENDMDL
MODEL 3
REMARK VINA RESULT:    -5.965      8.361     12.466
REMARK INTER + INTRA:          -7.700
REMARK INTER:                  -7.017
REMARK INTRA:                  -0.683
REMARK UNBOUND:                -0.689
REMARK  Name = /home/qwerty/github/datacon2025hack/step_04_hit_selection/docking/ligands/lig_46.pdb
REMARK  4 active torsions:
REMARK  status: ('A' for Active; 'I' for Inactive)
REMARK    1  A    between atoms: C1_1  and  C2_2
REMARK    2  A    between atoms: C2_2  and  N1_3
REMARK    3  A    between atoms: C2_2  and  C10_14
REMARK    4  A    between atoms: C3_4  and  C4_6
REMARK                            x       y       z     vdW  Elec       q    Type
REMARK                         _______ _______ _______ _____ _____    ______ ____
ROOT
ATOM      1  N1  UNL     1      18.676  -0.788  24.822  0.00  0.00    -0.305 N 
ATOM      2  C3  UNL     1      18.732   0.337  25.715  0.00  0.00    +0.245 C 
ATOM      3  O1  UNL     1      17.753   0.578  26.476  0.00  0.00    -0.270 OA
ATOM      4  H5  UNL     1      19.557  -1.122  24.372  0.00  0.00    +0.150 HD
ENDROOT
BRANCH   2   5
ATOM      5  C4  UNL     1      19.924   1.216  25.766  0.00  0.00    +0.040 A 
ATOM      6  C5  UNL     1      20.239   2.042  24.671  0.00  0.00    +0.016 A 
ATOM      7  C6  UNL     1      21.366   2.868  24.708  0.00  0.00    +0.042 A 
ATOM      8  C7  UNL     1      22.195   2.875  25.832  0.00  0.00    +0.158 A 
ATOM      9  F1  UNL     1      23.288   3.678  25.862  0.00  0.00    -0.202 F 
ATOM     10  C8  UNL     1      21.901   2.050  26.920  0.00  0.00    +0.159 A 
ATOM     11  F2  UNL     1      22.712   2.044  28.008  0.00  0.00    -0.202 F 
ATOM     12  C9  UNL     1      20.773   1.222  26.889  0.00  0.00    +0.054 A 
ENDBRANCH   2   5
BRANCH   1  14
ATOM     13  C1  UNL     1      17.698  -3.017  24.406  0.00  0.00    +0.033 C 
ATOM     14  C2  UNL     1      17.428  -1.519  24.577  0.00  0.00    +0.103 C 
BRANCH  14  15
ATOM     15  C10 UNL     1      16.720  -0.969  23.354  0.00  0.00    +0.008 A 
ATOM     16  C11 UNL     1      17.188  -1.303  22.070  0.00  0.00    +0.011 A 
ATOM     17  C12 UNL     1      16.556  -0.796  20.930  0.00  0.00    +0.039 A 
ATOM     18  C13 UNL     1      15.455   0.053  21.060  0.00  0.00    +0.126 A 
ATOM     19  F3  UNL     1      14.843   0.543  19.953  0.00  0.00    -0.205 F 
ATOM     20  C14 UNL     1      14.985   0.401  22.328  0.00  0.00    +0.077 A 
ATOM     21  C15 UNL     1      15.613  -0.102  23.473  0.00  0.00    +0.131 A 
ATOM     22  F4  UNL     1      15.139   0.259  24.693  0.00  0.00    -0.205 F 
ENDBRANCH  14  15
ENDBRANCH   1  14
TORSDOF 3
ENDMDL
MODEL 4
REMARK VINA RESULT:    -5.964     12.817     14.624
REMARK INTER + INTRA:          -7.699
REMARK INTER:                  -7.085
REMARK INTRA:                  -0.614
REMARK UNBOUND:                -0.689
REMARK  Name = /home/qwerty/github/datacon2025hack/step_04_hit_selection/docking/ligands/lig_46.pdb
REMARK  4 active torsions:
REMARK  status: ('A' for Active; 'I' for Inactive)
REMARK    1  A    between atoms: C1_1  and  C2_2
REMARK    2  A    between atoms: C2_2  and  N1_3
REMARK    3  A    between atoms: C2_2  and  C10_14
REMARK    4  A    between atoms: C3_4  and  C4_6
REMARK                            x       y       z     vdW  Elec       q    Type
REMARK                         _______ _______ _______ _____ _____    ______ ____
ROOT
ATOM      1  N1  UNL     1      12.174  13.043  32.074  0.00  0.00    -0.305 N 
ATOM      2  C3  UNL     1      11.967  14.014  31.035  0.00  0.00    +0.245 C 
ATOM      3  O1  UNL     1      12.703  15.039  30.985  0.00  0.00    -0.270 OA
ATOM      4  H5  UNL     1      11.734  12.100  31.982  0.00  0.00    +0.150 HD
ENDROOT
BRANCH   2   5
ATOM      5  C4  UNL     1      10.908  13.830  30.014  0.00  0.00    +0.040 A 
ATOM      6  C5  UNL     1      11.174  14.119  28.663  0.00  0.00    +0.016 A 
ATOM      7  C6  UNL     1      10.180  13.955  27.695  0.00  0.00    +0.042 A 
ATOM      8  C7  UNL     1       8.909  13.510  28.062  0.00  0.00    +0.158 A 
ATOM      9  F1  UNL     1       7.946  13.354  27.119  0.00  0.00    -0.202 F 
ATOM     10  C8  UNL     1       8.628  13.232  29.403  0.00  0.00    +0.159 A 
ATOM     11  F2  UNL     1       7.389  12.812  29.765  0.00  0.00    -0.202 F 
ATOM     12  C9  UNL     1       9.620  13.393  30.376  0.00  0.00    +0.054 A 
ENDBRANCH   2   5
BRANCH   1  14
ATOM     13  C1  UNL     1      14.370  12.569  33.100  0.00  0.00    +0.033 C 
ATOM     14  C2  UNL     1      13.039  13.317  33.227  0.00  0.00    +0.103 C 
BRANCH  14  15
ATOM     15  C10 UNL     1      12.343  12.936  34.519  0.00  0.00    +0.008 A 
ATOM     16  C11 UNL     1      12.873  11.907  35.319  0.00  0.00    +0.011 A 
ATOM     17  C12 UNL     1      12.239  11.533  36.507  0.00  0.00    +0.039 A 
ATOM     18  C13 UNL     1      11.065  12.176  36.907  0.00  0.00    +0.126 A 
ATOM     19  F3  UNL     1      10.452  11.812  38.060  0.00  0.00    -0.205 F 
ATOM     20  C14 UNL     1      10.522  13.192  36.118  0.00  0.00    +0.077 A 
ATOM     21  C15 UNL     1      11.151  13.572  34.927  0.00  0.00    +0.131 A 
ATOM     22  F4  UNL     1      10.596  14.557  34.177  0.00  0.00    -0.205 F 
ENDBRANCH  14  15
ENDBRANCH   1  14
TORSDOF 3
ENDMDL
MODEL 5
REMARK VINA RESULT:    -5.959     12.394     14.161
REMARK INTER + INTRA:          -7.693
REMARK INTER:                  -7.021
REMARK INTRA:                  -0.671
REMARK UNBOUND:                -0.689
REMARK  Name = /home/qwerty/github/datacon2025hack/step_04_hit_selection/docking/ligands/lig_46.pdb
REMARK  4 active torsions:
REMARK  status: ('A' for Active; 'I' for Inactive)
REMARK    1  A    between atoms: C1_1  and  C2_2
REMARK    2  A    between atoms: C2_2  and  N1_3
REMARK    3  A    between atoms: C2_2  and  C10_14
REMARK    4  A    between atoms: C3_4  and  C4_6
REMARK                            x       y       z     vdW  Elec       q    Type
REMARK                         _______ _______ _______ _____ _____    ______ ____
ROOT
ATOM      1  N1  UNL     1      11.127  13.975  33.568  0.00  0.00    -0.305 N 
ATOM      2  C3  UNL     1      11.322  13.128  32.423  0.00  0.00    +0.245 C 
ATOM      3  O1  UNL     1      11.279  11.874  32.561  0.00  0.00    -0.270 OA
ATOM      4  H5  UNL     1      10.930  14.990  33.421  0.00  0.00    +0.150 HD
ENDROOT
BRANCH   2   5
ATOM      5  C4  UNL     1      11.561  13.702  31.078  0.00  0.00    +0.040 A 
ATOM      6  C5  UNL     1      12.758  14.391  30.808  0.00  0.00    +0.016 A 
ATOM      7  C6  UNL     1      12.988  14.942  29.544  0.00  0.00    +0.042 A 
ATOM      8  C7  UNL     1      12.027  14.820  28.539  0.00  0.00    +0.158 A 
ATOM      9  F1  UNL     1      12.255  15.358  27.315  0.00  0.00    -0.202 F 
ATOM     10  C8  UNL     1      10.828  14.150  28.798  0.00  0.00    +0.159 A 
ATOM     11  F2  UNL     1       9.887  14.042  27.827  0.00  0.00    -0.202 F 
ATOM     12  C9  UNL     1      10.593  13.595  30.061  0.00  0.00    +0.054 A 
ENDBRANCH   2   5
BRANCH   1  14
ATOM     13  C1  UNL     1      10.136  14.193  35.819  0.00  0.00    +0.033 C 
ATOM     14  C2  UNL     1      11.134  13.440  34.935  0.00  0.00    +0.103 C 
BRANCH  14  15
ATOM     15  C10 UNL     1      12.527  13.517  35.530  0.00  0.00    +0.008 A 
ATOM     16  C11 UNL     1      13.429  14.491  35.066  0.00  0.00    +0.011 A 
ATOM     17  C12 UNL     1      14.721  14.571  35.594  0.00  0.00    +0.039 A 
ATOM     18  C13 UNL     1      15.129  13.675  36.585  0.00  0.00    +0.126 A 
ATOM     19  F3  UNL     1      16.383  13.754  37.096  0.00  0.00    -0.205 F 
ATOM     20  C14 UNL     1      14.247  12.696  37.048  0.00  0.00    +0.077 A 
ATOM     21  C15 UNL     1      12.952  12.611  36.525  0.00  0.00    +0.131 A 
ATOM     22  F4  UNL     1      12.120  11.645  36.989  0.00  0.00    -0.205 F 
ENDBRANCH  14  15
ENDBRANCH   1  14
TORSDOF 3
ENDMDL
MODEL 6
REMARK VINA RESULT:    -5.955     15.303     17.270
REMARK INTER + INTRA:          -7.689
REMARK INTER:                  -7.045
REMARK INTRA:                  -0.643
REMARK UNBOUND:                -0.689
REMARK  Name = /home/qwerty/github/datacon2025hack/step_04_hit_selection/docking/ligands/lig_46.pdb
REMARK  4 active torsions:
REMARK  status: ('A' for Active; 'I' for Inactive)
REMARK    1  A    between atoms: C1_1  and  C2_2
REMARK    2  A    between atoms: C2_2  and  N1_3
REMARK    3  A    between atoms: C2_2  and  C10_14
REMARK    4  A    between atoms: C3_4  and  C4_6
REMARK                            x       y       z     vdW  Elec       q    Type
REMARK                         _______ _______ _______ _____ _____    ______ ____
ROOT
ATOM      1  N1  UNL     1       9.091  11.051  27.388  0.00  0.00    -0.305 N 
ATOM      2  C3  UNL     1       8.941  12.440  27.726  0.00  0.00    +0.245 C 
ATOM      3  O1  UNL     1       7.860  13.034  27.452  0.00  0.00    -0.270 OA
ATOM      4  H5  UNL     1       9.874  10.507  27.815  0.00  0.00    +0.150 HD
ENDROOT
BRANCH   2   5
ATOM      5  C4  UNL     1      10.028  13.187  28.402  0.00  0.00    +0.040 A 
ATOM      6  C5  UNL     1      10.194  13.082  29.795  0.00  0.00    +0.016 A 
ATOM      7  C6  UNL     1      11.213  13.789  30.442  0.00  0.00    +0.042 A 
ATOM      8  C7  UNL     1      12.070  14.613  29.709  0.00  0.00    +0.158 A 
ATOM      9  F1  UNL     1      13.055  15.297  30.341  0.00  0.00    -0.202 F 
ATOM     10  C8  UNL     1      11.906  14.735  28.327  0.00  0.00    +0.159 A 
ATOM     11  F2  UNL     1      12.729  15.546  27.615  0.00  0.00    -0.202 F 
ATOM     12  C9  UNL     1      10.890  14.029  27.675  0.00  0.00    +0.054 A 
ENDBRANCH   2   5
BRANCH   1  14
ATOM     13  C1  UNL     1       7.779   8.983  27.072  0.00  0.00    +0.033 C 
ATOM     14  C2  UNL     1       8.140  10.362  26.509  0.00  0.00    +0.103 C 
BRANCH  14  15
ATOM     15  C10 UNL     1       8.708  10.226  25.109  0.00  0.00    +0.008 A 
ATOM     16  C11 UNL     1      10.100  10.286  24.915  0.00  0.00    +0.011 A 
ATOM     17  C12 UNL     1      10.642  10.174  23.631  0.00  0.00    +0.039 A 
ATOM     18  C13 UNL     1       9.802  10.009  22.528  0.00  0.00    +0.126 A 
ATOM     19  F3  UNL     1      10.330   9.901  21.284  0.00  0.00    -0.205 F 
ATOM     20  C14 UNL     1       8.417   9.959  22.705  0.00  0.00    +0.077 A 
ATOM     21  C15 UNL     1       7.868  10.069  23.987  0.00  0.00    +0.131 A 
ATOM     22  F4  UNL     1       6.518  10.024  24.128  0.00  0.00    -0.205 F 
ENDBRANCH  14  15
ENDBRANCH   1  14
TORSDOF 3
ENDMDL
MODEL 7
REMARK VINA RESULT:    -5.937      3.966      5.907
REMARK INTER + INTRA:          -7.667
REMARK INTER:                  -6.991
REMARK INTRA:                  -0.675
REMARK UNBOUND:                -0.689
REMARK  Name = /home/qwerty/github/datacon2025hack/step_04_hit_selection/docking/ligands/lig_46.pdb
REMARK  4 active torsions:
REMARK  status: ('A' for Active; 'I' for Inactive)
REMARK    1  A    between atoms: C1_1  and  C2_2
REMARK    2  A    between atoms: C2_2  and  N1_3
REMARK    3  A    between atoms: C2_2  and  C10_14
REMARK    4  A    between atoms: C3_4  and  C4_6
REMARK                            x       y       z     vdW  Elec       q    Type
REMARK                         _______ _______ _______ _____ _____    ______ ____
ROOT
ATOM      1  N1  UNL     1      20.685   1.346  30.206  0.00  0.00    -0.305 N 
ATOM      2  C3  UNL     1      21.654   1.012  29.198  0.00  0.00    +0.245 C 
ATOM      3  O1  UNL     1      22.606   0.234  29.484  0.00  0.00    -0.270 OA
ATOM      4  H5  UNL     1      19.785   1.790  29.917  0.00  0.00    +0.150 HD
ENDROOT
BRANCH   2   5
ATOM      5  C4  UNL     1      21.549   1.558  27.824  0.00  0.00    +0.040 A 
ATOM      6  C5  UNL     1      20.557   1.079  26.949  0.00  0.00    +0.016 A 
ATOM      7  C6  UNL     1      20.456   1.582  25.649  0.00  0.00    +0.042 A 
ATOM      8  C7  UNL     1      21.346   2.561  25.204  0.00  0.00    +0.158 A 
ATOM      9  F1  UNL     1      21.245   3.045  23.941  0.00  0.00    -0.202 F 
ATOM     10  C8  UNL     1      22.345   3.035  26.059  0.00  0.00    +0.159 A 
ATOM     11  F2  UNL     1      23.221   3.976  25.624  0.00  0.00    -0.202 F 
ATOM     12  C9  UNL     1      22.450   2.536  27.361  0.00  0.00    +0.054 A 
ENDBRANCH   2   5
BRANCH   1  14
ATOM     13  C1  UNL     1      19.757   0.154  32.160  0.00  0.00    +0.033 C 
ATOM     14  C2  UNL     1      20.899   1.023  31.621  0.00  0.00    +0.103 C 
BRANCH  14  15
ATOM     15  C10 UNL     1      21.029   2.290  32.444  0.00  0.00    +0.008 A 
ATOM     16  C11 UNL     1      19.983   2.673  33.302  0.00  0.00    +0.011 A 
ATOM     17  C12 UNL     1      20.079   3.844  34.060  0.00  0.00    +0.039 A 
ATOM     18  C13 UNL     1      21.218   4.648  33.965  0.00  0.00    +0.126 A 
ATOM     19  F3  UNL     1      21.309   5.783  34.701  0.00  0.00    -0.205 F 
ATOM     20  C14 UNL     1      22.260   4.285  33.109  0.00  0.00    +0.077 A 
ATOM     21  C15 UNL     1      22.170   3.115  32.348  0.00  0.00    +0.131 A 
ATOM     22  F4  UNL     1      23.196   2.791  31.520  0.00  0.00    -0.205 F 
ENDBRANCH  14  15
ENDBRANCH   1  14
TORSDOF 3
ENDMDL
MODEL 8
REMARK VINA RESULT:    -5.879      4.734      8.441
REMARK INTER + INTRA:          -7.599
REMARK INTER:                  -6.954
REMARK INTRA:                  -0.645
REMARK UNBOUND:                -0.689
REMARK  Name = /home/qwerty/github/datacon2025hack/step_04_hit_selection/docking/ligands/lig_46.pdb
REMARK  4 active torsions:
REMARK  status: ('A' for Active; 'I' for Inactive)
REMARK    1  A    between atoms: C1_1  and  C2_2
REMARK    2  A    between atoms: C2_2  and  N1_3
REMARK    3  A    between atoms: C2_2  and  C10_14
REMARK    4  A    between atoms: C3_4  and  C4_6
REMARK                            x       y       z     vdW  Elec       q    Type
REMARK                         _______ _______ _______ _____ _____    ______ ____
ROOT
ATOM      1  N1  UNL     1      21.793   2.708  27.892  0.00  0.00    -0.305 N 
ATOM      2  C3  UNL     1      22.336   1.842  28.902  0.00  0.00    +0.245 C 
ATOM      3  O1  UNL     1      23.312   1.092  28.620  0.00  0.00    -0.270 OA
ATOM      4  H5  UNL     1      21.155   3.483  28.179  0.00  0.00    +0.150 HD
ENDROOT
BRANCH   2   5
ATOM      5  C4  UNL     1      21.778   1.821  30.275  0.00  0.00    +0.040 A 
ATOM      6  C5  UNL     1      22.098   2.849  31.181  0.00  0.00    +0.016 A 
ATOM      7  C6  UNL     1      21.582   2.833  32.481  0.00  0.00    +0.042 A 
ATOM      8  C7  UNL     1      20.750   1.791  32.893  0.00  0.00    +0.158 A 
ATOM      9  F1  UNL     1      20.254   1.779  34.155  0.00  0.00    -0.202 F 
ATOM     10  C8  UNL     1      20.437   0.756  32.007  0.00  0.00    +0.159 A 
ATOM     11  F2  UNL     1      19.641  -0.266  32.410  0.00  0.00    -0.202 F 
ATOM     12  C9  UNL     1      20.949   0.768  30.705  0.00  0.00    +0.054 A 
ENDBRANCH   2   5
BRANCH   1  14
ATOM     13  C1  UNL     1      22.791   3.864  25.952  0.00  0.00    +0.033 C 
ATOM     14  C2  UNL     1      22.160   2.571  26.478  0.00  0.00    +0.103 C 
BRANCH  14  15
ATOM     15  C10 UNL     1      20.947   2.202  25.646  0.00  0.00    +0.008 A 
ATOM     16  C11 UNL     1      20.440   3.119  24.707  0.00  0.00    +0.011 A 
ATOM     17  C12 UNL     1      19.317   2.801  23.939  0.00  0.00    +0.039 A 
ATOM     18  C13 UNL     1      18.682   1.567  24.104  0.00  0.00    +0.126 A 
ATOM     19  F3  UNL     1      17.592   1.261  23.357  0.00  0.00    -0.205 F 
ATOM     20  C14 UNL     1      19.168   0.651  25.039  0.00  0.00    +0.077 A 
ATOM     21  C15 UNL     1      20.292   0.962  25.811  0.00  0.00    +0.131 A 
ATOM     22  F4  UNL     1      20.738   0.055  26.717  0.00  0.00    -0.205 F 
ENDBRANCH  14  15
ENDBRANCH   1  14
TORSDOF 3
ENDMDL
MODEL 9
REMARK VINA RESULT:    -5.858      2.493      3.378
REMARK INTER + INTRA:          -7.574
REMARK INTER:                  -6.986
REMARK INTRA:                  -0.589
REMARK UNBOUND:                -0.689
REMARK  Name = /home/qwerty/github/datacon2025hack/step_04_hit_selection/docking/ligands/lig_46.pdb
REMARK  4 active torsions:
REMARK  status: ('A' for Active; 'I' for Inactive)
REMARK    1  A    between atoms: C1_1  and  C2_2
REMARK    2  A    between atoms: C2_2  and  N1_3
REMARK    3  A    between atoms: C2_2  and  C10_14
REMARK    4  A    between atoms: C3_4  and  C4_6
REMARK                            x       y       z     vdW  Elec       q    Type
REMARK                         _______ _______ _______ _____ _____    ______ ____
ROOT
ATOM      1  N1  UNL     1      21.451   4.573  32.634  0.00  0.00    -0.305 N 
ATOM      2  C3  UNL     1      21.527   3.154  32.852  0.00  0.00    +0.245 C 
ATOM      3  O1  UNL     1      21.499   2.703  34.031  0.00  0.00    -0.270 OA
ATOM      4  H5  UNL     1      21.239   4.928  31.675  0.00  0.00    +0.150 HD
ENDROOT
BRANCH   2   5
ATOM      5  C4  UNL     1      21.626   2.208  31.715  0.00  0.00    +0.040 A 
ATOM      6  C5  UNL     1      20.735   1.124  31.621  0.00  0.00    +0.016 A 
ATOM      7  C6  UNL     1      20.827   0.222  30.556  0.00  0.00    +0.042 A 
ATOM      8  C7  UNL     1      21.812   0.387  29.580  0.00  0.00    +0.158 A 
ATOM      9  F1  UNL     1      21.898  -0.491  28.550  0.00  0.00    -0.202 F 
ATOM     10  C8  UNL     1      22.712   1.452  29.670  0.00  0.00    +0.159 A 
ATOM     11  F2  UNL     1      23.678   1.607  28.730  0.00  0.00    -0.202 F 
ATOM     12  C9  UNL     1      22.623   2.358  30.732  0.00  0.00    +0.054 A 
ENDBRANCH   2   5
BRANCH   1  14
ATOM     13  C1  UNL     1      20.261   6.211  34.048  0.00  0.00    +0.033 C 
ATOM     14  C2  UNL     1      21.599   5.533  33.734  0.00  0.00    +0.103 C 
BRANCH  14  15
ATOM     15  C10 UNL     1      22.649   6.573  33.396  0.00  0.00    +0.008 A 
ATOM     16  C11 UNL     1      22.301   7.936  33.384  0.00  0.00    +0.011 A 
ATOM     17  C12 UNL     1      23.252   8.909  33.064  0.00  0.00    +0.039 A 
ATOM     18  C13 UNL     1      24.559   8.532  32.745  0.00  0.00    +0.126 A 
ATOM     19  F3  UNL     1      25.480   9.478  32.435  0.00  0.00    -0.205 F 
ATOM     20  C14 UNL     1      24.916   7.182  32.742  0.00  0.00    +0.077 A 
ATOM     21  C15 UNL     1      23.969   6.203  33.062  0.00  0.00    +0.131 A 
ATOM     22  F4  UNL     1      24.344   4.898  33.044  0.00  0.00    -0.205 F 
ENDBRANCH  14  15
ENDBRANCH   1  14
TORSDOF 3
ENDMDL
