REMARK  Name = /home/qwerty/github/datacon2025hack/step_04_hit_selection/docking/ligands/lig_709.pdb
REMARK  6 active torsions:
REMARK  status: ('A' for Active; 'I' for Inactive)
REMARK    1  A    between atoms: C1_1  and  C2_2
REMARK    2  A    between atoms: C4_4  and  C5_5
REMARK    3  A    between atoms: C7_7  and  N1_8
REMARK    4  A    between atoms: C8_9  and  C9_11
REMARK    5  A    between atoms: C9_11  and  N2_12
REMARK    6  A    between atoms: C12_15  and  C13_16
REMARK                            x       y       z     vdW  Elec       q    Type
REMARK                         _______ _______ _______ _____ _____    ______ ____
ROOT
ATOM      1  C9  UNL     1       0.148   3.092   0.041  0.00  0.00    +0.180 C 
ENDROOT
BRANCH   1   2
ATOM      2  N2  UNL     1       1.296   2.187  -0.144  0.00  0.00    -0.293 NA
ATOM      3  C10 UNL     1       2.505   2.916  -0.536  0.00  0.00    +0.085 C 
ATOM      4  C11 UNL     1       3.693   2.073  -0.090  0.00  0.00    +0.025 C 
ATOM      5  C12 UNL     1       3.134   1.101   0.953  0.00  0.00    +0.034 C 
ATOM      6  C19 UNL     1       1.657   1.474   1.086  0.00  0.00    +0.093 C 
BRANCH   5   7
ATOM      7  C13 UNL     1       3.326  -0.350   0.543  0.00  0.00    -0.040 A 
ATOM      8  C14 UNL     1       2.709  -0.867  -0.615  0.00  0.00    +0.004 A 
ATOM      9  C15 UNL     1       2.897  -2.202  -0.981  0.00  0.00    +0.003 A 
ATOM     10  C16 UNL     1       3.702  -3.036  -0.201  0.00  0.00    +0.038 A 
ATOM     11  C17 UNL     1       4.323  -2.534   0.947  0.00  0.00    +0.124 A 
ATOM     12  F1  UNL     1       5.107  -3.344   1.701  0.00  0.00    -0.205 F 
ATOM     13  C18 UNL     1       4.138  -1.198   1.317  0.00  0.00    +0.042 A 
ENDBRANCH   5   7
ENDBRANCH   1   2
BRANCH   1  15
ATOM     14  N1  UNL     1      -1.530   1.371  -0.779  0.00  0.00    -0.284 N 
ATOM     15  C8  UNL     1      -1.108   2.297   0.234  0.00  0.00    +0.231 C 
ATOM     16  O1  UNL     1      -1.796   2.465   1.277  0.00  0.00    -0.274 OA
ATOM     17  H9  UNL     1      -1.149   1.494  -1.744  0.00  0.00    +0.155 HD
BRANCH  14  24
ATOM     18  C1  UNL     1      -5.158  -1.529  -2.539  0.00  0.00    +0.044 C 
ATOM     19  C2  UNL     1      -4.237  -1.132  -1.422  0.00  0.00    -0.048 A 
ATOM     20  C3  UNL     1      -4.328  -1.763  -0.172  0.00  0.00    +0.006 A 
ATOM     21  C4  UNL     1      -3.495  -1.370   0.885  0.00  0.00    -0.048 A 
ATOM     22  C5  UNL     1      -3.555  -2.094   2.197  0.00  0.00    +0.044 C 
ATOM     23  C6  UNL     1      -2.562  -0.342   0.684  0.00  0.00    +0.026 A 
ATOM     24  C7  UNL     1      -2.487   0.322  -0.553  0.00  0.00    +0.034 A 
ATOM     25  C20 UNL     1      -3.322  -0.086  -1.603  0.00  0.00    +0.026 A 
ENDBRANCH  14  24
ENDBRANCH   1  15
TORSDOF 4
