MODEL 1
REMARK VINA RESULT:    -5.981      0.000      0.000
REMARK INTER + INTRA:          -7.348
REMARK INTER:                  -6.680
REMARK INTRA:                  -0.668
REMARK UNBOUND:                -0.668
REMARK  Name = /home/qwerty/github/datacon2025hack/step_04_hit_selection/docking/ligands/lig_122.pdb
REMARK  4 active torsions:
REMARK  status: ('A' for Active; 'I' for Inactive)
REMARK    1  A    between atoms: C1_1  and  C2_2
REMARK    2  A    between atoms: C4_4  and  C5_5
REMARK    3  A    between atoms: C7_8  and  C8_10
REMARK    4  A    between atoms: C10_12  and  C11_13
REMARK                            x       y       z     vdW  Elec       q    Type
REMARK                         _______ _______ _______ _____ _____    ______ ____
ROOT
ATOM      1  C8  UNL     1      21.266   2.501  31.884  0.00  0.00    +0.073 A 
ATOM      2  C9  UNL     1      22.363   2.144  31.081  0.00  0.00    +0.028 A 
ATOM      3  C10 UNL     1      22.185   1.391  29.908  0.00  0.00    +0.056 A 
ATOM      4  C12 UNL     1      20.892   0.964  29.562  0.00  0.00    +0.015 A 
ATOM      5  C13 UNL     1      19.795   1.328  30.345  0.00  0.00    +0.039 A 
ATOM      6  C14 UNL     1      19.975   2.100  31.495  0.00  0.00    +0.136 A 
ATOM      7  F4  UNL     1      18.884   2.473  32.210  0.00  0.00    -0.205 F 
ENDROOT
BRANCH   1  15
ATOM      8  C1  UNL     1      24.855   5.776  33.076  0.00  0.00    +0.009 C 
ATOM      9  C2  UNL     1      23.599   6.366  33.737  0.00  0.00    +0.004 C 
ATOM     10  C3  UNL     1      22.885   7.381  32.821  0.00  0.00    +0.009 C 
ATOM     11  C4  UNL     1      22.172   6.700  31.638  0.00  0.00    +0.004 C 
ATOM     12  C5  UNL     1      21.417   7.734  30.795  0.00  0.00    +0.009 C 
ATOM     13  C6  UNL     1      21.211   5.611  32.143  0.00  0.00    +0.111 C 
ATOM     14  N1  UNL     1      21.911   4.683  33.043  0.00  0.00    -0.297 N 
ATOM     15  C7  UNL     1      21.484   3.307  33.108  0.00  0.00    +0.249 C 
ATOM     16  O1  UNL     1      21.282   2.773  34.234  0.00  0.00    -0.270 OA
ATOM     17  C15 UNL     1      22.629   5.260  34.189  0.00  0.00    +0.111 C 
ENDBRANCH   1  15
BRANCH   3  18
ATOM     18  C11 UNL     1      23.376   0.963  29.087  0.00  0.00    +0.417 C 
ATOM     19  F1  UNL     1      23.219  -0.338  28.643  0.00  0.00    -0.166 F 
ATOM     20  F2  UNL     1      24.538   1.026  29.837  0.00  0.00    -0.166 F 
ATOM     21  F3  UNL     1      23.499   1.802  27.995  0.00  0.00    -0.166 F 
ENDBRANCH   3  18
TORSDOF 2
ENDMDL
MODEL 2
REMARK VINA RESULT:    -5.934      3.083      6.186
REMARK INTER + INTRA:          -7.297
REMARK INTER:                  -6.662
REMARK INTRA:                  -0.634
REMARK UNBOUND:                -0.668
REMARK  Name = /home/qwerty/github/datacon2025hack/step_04_hit_selection/docking/ligands/lig_122.pdb
REMARK  4 active torsions:
REMARK  status: ('A' for Active; 'I' for Inactive)
REMARK    1  A    between atoms: C1_1  and  C2_2
REMARK    2  A    between atoms: C4_4  and  C5_5
REMARK    3  A    between atoms: C7_8  and  C8_10
REMARK    4  A    between atoms: C10_12  and  C11_13
REMARK                            x       y       z     vdW  Elec       q    Type
REMARK                         _______ _______ _______ _____ _____    ______ ____
ROOT
ATOM      1  C8  UNL     1      21.640   4.713  31.646  0.00  0.00    +0.073 A 
ATOM      2  C9  UNL     1      22.262   4.934  32.888  0.00  0.00    +0.028 A 
ATOM      3  C10 UNL     1      23.063   6.068  33.103  0.00  0.00    +0.056 A 
ATOM      4  C12 UNL     1      23.267   6.969  32.046  0.00  0.00    +0.015 A 
ATOM      5  C13 UNL     1      22.639   6.768  30.815  0.00  0.00    +0.039 A 
ATOM      6  C14 UNL     1      21.822   5.653  30.615  0.00  0.00    +0.136 A 
ATOM      7  F4  UNL     1      21.193   5.509  29.422  0.00  0.00    -0.205 F 
ENDROOT
BRANCH   1  15
ATOM      8  C1  UNL     1      20.346   2.223  27.506  0.00  0.00    +0.009 C 
ATOM      9  C2  UNL     1      20.482   1.114  28.562  0.00  0.00    +0.004 C 
ATOM     10  C3  UNL     1      21.894   0.494  28.573  0.00  0.00    +0.009 C 
ATOM     11  C4  UNL     1      22.946   1.449  29.167  0.00  0.00    +0.004 C 
ATOM     12  C5  UNL     1      24.319   0.768  29.226  0.00  0.00    +0.009 C 
ATOM     13  C6  UNL     1      22.517   1.920  30.566  0.00  0.00    +0.111 C 
ATOM     14  N1  UNL     1      21.154   2.469  30.530  0.00  0.00    -0.297 N 
ATOM     15  C7  UNL     1      20.791   3.515  31.454  0.00  0.00    +0.249 C 
ATOM     16  O1  UNL     1      19.727   3.407  32.125  0.00  0.00    -0.270 OA
ATOM     17  C15 UNL     1      20.096   1.622  29.962  0.00  0.00    +0.111 C 
ENDBRANCH   1  15
BRANCH   3  18
ATOM     18  C11 UNL     1      23.774   6.261  34.420  0.00  0.00    +0.417 C 
ATOM     19  F1  UNL     1      23.172   5.508  35.413  0.00  0.00    -0.166 F 
ATOM     20  F2  UNL     1      23.740   7.590  34.806  0.00  0.00    -0.166 F 
ATOM     21  F3  UNL     1      25.091   5.863  34.288  0.00  0.00    -0.166 F 
ENDBRANCH   3  18
TORSDOF 2
ENDMDL
MODEL 3
REMARK VINA RESULT:    -5.878      5.204      8.239
REMARK INTER + INTRA:          -7.233
REMARK INTER:                  -6.565
REMARK INTRA:                  -0.668
REMARK UNBOUND:                -0.668
REMARK  Name = /home/qwerty/github/datacon2025hack/step_04_hit_selection/docking/ligands/lig_122.pdb
REMARK  4 active torsions:
REMARK  status: ('A' for Active; 'I' for Inactive)
REMARK    1  A    between atoms: C1_1  and  C2_2
REMARK    2  A    between atoms: C4_4  and  C5_5
REMARK    3  A    between atoms: C7_8  and  C8_10
REMARK    4  A    between atoms: C10_12  and  C11_13
REMARK                            x       y       z     vdW  Elec       q    Type
REMARK                         _______ _______ _______ _____ _____    ______ ____
ROOT
ATOM      1  C8  UNL     1      20.485   1.725  26.159  0.00  0.00    +0.073 A 
ATOM      2  C9  UNL     1      21.017   0.725  26.991  0.00  0.00    +0.028 A 
ATOM      3  C10 UNL     1      21.691   1.056  28.178  0.00  0.00    +0.056 A 
ATOM      4  C12 UNL     1      21.861   2.410  28.511  0.00  0.00    +0.015 A 
ATOM      5  C13 UNL     1      21.321   3.410  27.700  0.00  0.00    +0.039 A 
ATOM      6  C14 UNL     1      20.628   3.074  26.534  0.00  0.00    +0.136 A 
ATOM      7  F4  UNL     1      20.080   4.067  25.790  0.00  0.00    -0.205 F 
ENDROOT
BRANCH   1  15
ATOM      8  C1  UNL     1      17.990  -2.437  24.944  0.00  0.00    +0.009 C 
ATOM      9  C2  UNL     1      17.188  -1.324  24.250  0.00  0.00    +0.004 C 
ATOM     10  C3  UNL     1      16.031  -0.809  25.131  0.00  0.00    +0.009 C 
ATOM     11  C4  UNL     1      16.533   0.034  26.319  0.00  0.00    +0.004 C 
ATOM     12  C5  UNL     1      15.351   0.585  27.126  0.00  0.00    +0.009 C 
ATOM     13  C6  UNL     1      17.430   1.180  25.826  0.00  0.00    +0.111 C 
ATOM     14  N1  UNL     1      18.498   0.662  24.958  0.00  0.00    -0.297 N 
ATOM     15  C7  UNL     1      19.768   1.344  24.920  0.00  0.00    +0.249 C 
ATOM     16  O1  UNL     1      20.282   1.634  23.804  0.00  0.00    -0.270 OA
ATOM     17  C15 UNL     1      18.099  -0.164  23.810  0.00  0.00    +0.111 C 
ENDBRANCH   1  15
BRANCH   3  18
ATOM     18  C11 UNL     1      22.310  -0.024  29.032  0.00  0.00    +0.417 C 
ATOM     19  F1  UNL     1      22.550  -1.160  28.279  0.00  0.00    -0.166 F 
ATOM     20  F2  UNL     1      21.469  -0.367  30.076  0.00  0.00    -0.166 F 
ATOM     21  F3  UNL     1      23.506   0.436  29.549  0.00  0.00    -0.166 F 
ENDBRANCH   3  18
TORSDOF 2
ENDMDL
MODEL 4
REMARK VINA RESULT:    -5.822     13.064     15.503
REMARK INTER + INTRA:          -7.170
REMARK INTER:                  -6.527
REMARK INTRA:                  -0.644
REMARK UNBOUND:                -0.668
REMARK  Name = /home/qwerty/github/datacon2025hack/step_04_hit_selection/docking/ligands/lig_122.pdb
REMARK  4 active torsions:
REMARK  status: ('A' for Active; 'I' for Inactive)
REMARK    1  A    between atoms: C1_1  and  C2_2
REMARK    2  A    between atoms: C4_4  and  C5_5
REMARK    3  A    between atoms: C7_8  and  C8_10
REMARK    4  A    between atoms: C10_12  and  C11_13
REMARK                            x       y       z     vdW  Elec       q    Type
REMARK                         _______ _______ _______ _____ _____    ______ ____
ROOT
ATOM      1  C8  UNL     1      11.672  13.844  29.971  0.00  0.00    +0.073 A 
ATOM      2  C9  UNL     1      10.271  13.751  30.051  0.00  0.00    +0.028 A 
ATOM      3  C10 UNL     1       9.518  13.260  28.971  0.00  0.00    +0.056 A 
ATOM      4  C12 UNL     1      10.180  12.893  27.788  0.00  0.00    +0.015 A 
ATOM      5  C13 UNL     1      11.572  12.965  27.707  0.00  0.00    +0.039 A 
ATOM      6  C14 UNL     1      12.318  13.428  28.792  0.00  0.00    +0.136 A 
ATOM      7  F4  UNL     1      13.671  13.446  28.696  0.00  0.00    -0.205 F 
ENDROOT
BRANCH   1  15
ATOM      8  C1  UNL     1      10.466  14.228  34.811  0.00  0.00    +0.009 C 
ATOM      9  C2  UNL     1      11.964  13.882  34.842  0.00  0.00    +0.004 C 
ATOM     10  C3  UNL     1      12.205  12.362  34.955  0.00  0.00    +0.009 C 
ATOM     11  C4  UNL     1      11.867  11.619  33.648  0.00  0.00    +0.004 C 
ATOM     12  C5  UNL     1      12.189  10.126  33.779  0.00  0.00    +0.009 C 
ATOM     13  C6  UNL     1      12.634  12.234  32.466  0.00  0.00    +0.111 C 
ATOM     14  N1  UNL     1      12.415  13.687  32.408  0.00  0.00    -0.297 N 
ATOM     15  C7  UNL     1      12.440  14.354  31.130  0.00  0.00    +0.249 C 
ATOM     16  O1  UNL     1      13.141  15.394  30.988  0.00  0.00    -0.270 OA
ATOM     17  C15 UNL     1      12.701  14.464  33.623  0.00  0.00    +0.111 C 
ENDBRANCH   1  15
BRANCH   3  18
ATOM     18  C11 UNL     1       8.011  13.223  29.047  0.00  0.00    +0.417 C 
ATOM     19  F1  UNL     1       7.551  14.094  30.019  0.00  0.00    -0.166 F 
ATOM     20  F2  UNL     1       7.567  11.950  29.361  0.00  0.00    -0.166 F 
ATOM     21  F3  UNL     1       7.485  13.594  27.823  0.00  0.00    -0.166 F 
ENDBRANCH   3  18
TORSDOF 2
ENDMDL
MODEL 5
REMARK VINA RESULT:    -5.730     13.396     15.522
REMARK INTER + INTRA:          -7.068
REMARK INTER:                  -6.506
REMARK INTRA:                  -0.562
REMARK UNBOUND:                -0.668
REMARK  Name = /home/qwerty/github/datacon2025hack/step_04_hit_selection/docking/ligands/lig_122.pdb
REMARK  4 active torsions:
REMARK  status: ('A' for Active; 'I' for Inactive)
REMARK    1  A    between atoms: C1_1  and  C2_2
REMARK    2  A    between atoms: C4_4  and  C5_5
REMARK    3  A    between atoms: C7_8  and  C8_10
REMARK    4  A    between atoms: C10_12  and  C11_13
REMARK                            x       y       z     vdW  Elec       q    Type
REMARK                         _______ _______ _______ _____ _____    ______ ____
ROOT
ATOM      1  C8  UNL     1      11.783  12.998  32.368  0.00  0.00    +0.073 A 
ATOM      2  C9  UNL     1      11.547  13.398  33.695  0.00  0.00    +0.028 A 
ATOM      3  C10 UNL     1      11.364  12.448  34.714  0.00  0.00    +0.056 A 
ATOM      4  C12 UNL     1      11.386  11.083  34.385  0.00  0.00    +0.015 A 
ATOM      5  C13 UNL     1      11.638  10.676  33.074  0.00  0.00    +0.039 A 
ATOM      6  C14 UNL     1      11.845  11.625  32.069  0.00  0.00    +0.136 A 
ATOM      7  F4  UNL     1      12.129  11.196  30.814  0.00  0.00    -0.205 F 
ENDROOT
BRANCH   1  15
ATOM      8  C1  UNL     1      12.224  12.586  27.402  0.00  0.00    +0.009 C 
ATOM      9  C2  UNL     1      11.461  13.908  27.584  0.00  0.00    +0.004 C 
ATOM     10  C3  UNL     1       9.933  13.707  27.532  0.00  0.00    +0.009 C 
ATOM     11  C4  UNL     1       9.393  13.003  28.791  0.00  0.00    +0.004 C 
ATOM     12  C5  UNL     1       7.865  12.889  28.731  0.00  0.00    +0.009 C 
ATOM     13  C6  UNL     1       9.827  13.758  30.058  0.00  0.00    +0.111 C 
ATOM     14  N1  UNL     1      11.282  13.968  30.060  0.00  0.00    -0.297 N 
ATOM     15  C7  UNL     1      11.985  14.023  31.318  0.00  0.00    +0.249 C 
ATOM     16  O1  UNL     1      12.787  14.973  31.538  0.00  0.00    -0.270 OA
ATOM     17  C15 UNL     1      11.876  14.621  28.884  0.00  0.00    +0.111 C 
ENDBRANCH   1  15
BRANCH   3  18
ATOM     18  C11 UNL     1      11.051  12.890  36.122  0.00  0.00    +0.417 C 
ATOM     19  F1  UNL     1      10.722  11.802  36.912  0.00  0.00    -0.166 F 
ATOM     20  F2  UNL     1       9.984  13.772  36.135  0.00  0.00    -0.166 F 
ATOM     21  F3  UNL     1      12.160  13.518  36.659  0.00  0.00    -0.166 F 
ENDBRANCH   3  18
TORSDOF 2
ENDMDL
MODEL 6
REMARK VINA RESULT:    -5.719     12.538     14.867
REMARK INTER + INTRA:          -7.056
REMARK INTER:                  -6.490
REMARK INTRA:                  -0.566
REMARK UNBOUND:                -0.668
REMARK  Name = /home/qwerty/github/datacon2025hack/step_04_hit_selection/docking/ligands/lig_122.pdb
REMARK  4 active torsions:
REMARK  status: ('A' for Active; 'I' for Inactive)
REMARK    1  A    between atoms: C1_1  and  C2_2
REMARK    2  A    between atoms: C4_4  and  C5_5
REMARK    3  A    between atoms: C7_8  and  C8_10
REMARK    4  A    between atoms: C10_12  and  C11_13
REMARK                            x       y       z     vdW  Elec       q    Type
REMARK                         _______ _______ _______ _____ _____    ______ ____
ROOT
ATOM      1  C8  UNL     1      23.854  13.872  22.748  0.00  0.00    +0.073 A 
ATOM      2  C9  UNL     1      23.390  13.700  24.064  0.00  0.00    +0.028 A 
ATOM      3  C10 UNL     1      23.616  14.683  25.043  0.00  0.00    +0.056 A 
ATOM      4  C12 UNL     1      24.347  15.833  24.700  0.00  0.00    +0.015 A 
ATOM      5  C13 UNL     1      24.795  16.020  23.391  0.00  0.00    +0.039 A 
ATOM      6  C14 UNL     1      24.544  15.052  22.415  0.00  0.00    +0.136 A 
ATOM      7  F4  UNL     1      24.957  15.284  21.144  0.00  0.00    -0.205 F 
ENDROOT
BRANCH   1  15
ATOM      8  C1  UNL     1      19.683  11.344  21.635  0.00  0.00    +0.009 C 
ATOM      9  C2  UNL     1      20.364  11.528  20.269  0.00  0.00    +0.004 C 
ATOM     10  C3  UNL     1      19.869  12.795  19.542  0.00  0.00    +0.009 C 
ATOM     11  C4  UNL     1      20.399  14.087  20.192  0.00  0.00    +0.004 C 
ATOM     12  C5  UNL     1      19.944  15.316  19.397  0.00  0.00    +0.009 C 
ATOM     13  C6  UNL     1      21.932  14.048  20.294  0.00  0.00    +0.111 C 
ATOM     14  N1  UNL     1      22.375  12.813  20.957  0.00  0.00    -0.297 N 
ATOM     15  C7  UNL     1      23.589  12.825  21.734  0.00  0.00    +0.249 C 
ATOM     16  O1  UNL     1      24.456  11.927  21.544  0.00  0.00    -0.270 OA
ATOM     17  C15 UNL     1      21.897  11.537  20.403  0.00  0.00    +0.111 C 
ENDBRANCH   1  15
BRANCH   3  18
ATOM     18  C11 UNL     1      23.167  14.459  26.466  0.00  0.00    +0.417 C 
ATOM     19  F1  UNL     1      22.010  13.701  26.497  0.00  0.00    -0.166 F 
ATOM     20  F2  UNL     1      22.911  15.665  27.095  0.00  0.00    -0.166 F 
ATOM     21  F3  UNL     1      24.162  13.793  27.157  0.00  0.00    -0.166 F 
ENDBRANCH   3  18
TORSDOF 2
ENDMDL
MODEL 7
REMARK VINA RESULT:    -5.679      5.338      7.682
REMARK INTER + INTRA:          -7.012
REMARK INTER:                  -6.357
REMARK INTRA:                  -0.655
REMARK UNBOUND:                -0.668
REMARK  Name = /home/qwerty/github/datacon2025hack/step_04_hit_selection/docking/ligands/lig_122.pdb
REMARK  4 active torsions:
REMARK  status: ('A' for Active; 'I' for Inactive)
REMARK    1  A    between atoms: C1_1  and  C2_2
REMARK    2  A    between atoms: C4_4  and  C5_5
REMARK    3  A    between atoms: C7_8  and  C8_10
REMARK    4  A    between atoms: C10_12  and  C11_13
REMARK                            x       y       z     vdW  Elec       q    Type
REMARK                         _______ _______ _______ _____ _____    ______ ____
ROOT
ATOM      1  C8  UNL     1      20.735   1.563  26.042  0.00  0.00    +0.073 A 
ATOM      2  C9  UNL     1      20.954   0.767  27.180  0.00  0.00    +0.028 A 
ATOM      3  C10 UNL     1      21.977   1.076  28.092  0.00  0.00    +0.056 A 
ATOM      4  C12 UNL     1      22.810   2.178  27.834  0.00  0.00    +0.015 A 
ATOM      5  C13 UNL     1      22.589   2.984  26.716  0.00  0.00    +0.039 A 
ATOM      6  C14 UNL     1      21.553   2.687  25.827  0.00  0.00    +0.136 A 
ATOM      7  F4  UNL     1      21.339   3.515  24.774  0.00  0.00    -0.205 F 
ENDROOT
BRANCH   1  15
ATOM      8  C1  UNL     1      16.311  -0.640  26.813  0.00  0.00    +0.009 C 
ATOM      9  C2  UNL     1      16.011   0.385  25.708  0.00  0.00    +0.004 C 
ATOM     10  C3  UNL     1      15.517   1.729  26.282  0.00  0.00    +0.009 C 
ATOM     11  C4  UNL     1      16.645   2.520  26.971  0.00  0.00    +0.004 C 
ATOM     12  C5  UNL     1      16.129   3.877  27.463  0.00  0.00    +0.009 C 
ATOM     13  C6  UNL     1      17.833   2.709  26.014  0.00  0.00    +0.111 C 
ATOM     14  N1  UNL     1      18.255   1.417  25.454  0.00  0.00    -0.297 N 
ATOM     15  C7  UNL     1      19.640   1.219  25.105  0.00  0.00    +0.249 C 
ATOM     16  O1  UNL     1      19.933   0.748  23.971  0.00  0.00    -0.270 OA
ATOM     17  C15 UNL     1      17.231   0.597  24.792  0.00  0.00    +0.111 C 
ENDBRANCH   1  15
BRANCH   3  18
ATOM     18  C11 UNL     1      22.240   0.180  29.276  0.00  0.00    +0.417 C 
ATOM     19  F1  UNL     1      23.289   0.670  30.034  0.00  0.00    -0.166 F 
ATOM     20  F2  UNL     1      22.568  -1.100  28.862  0.00  0.00    -0.166 F 
ATOM     21  F3  UNL     1      21.104   0.121  30.063  0.00  0.00    -0.166 F 
ENDBRANCH   3  18
TORSDOF 2
ENDMDL
MODEL 8
REMARK VINA RESULT:    -5.641     14.614     16.424
REMARK INTER + INTRA:          -6.969
REMARK INTER:                  -6.370
REMARK INTRA:                  -0.598
REMARK UNBOUND:                -0.668
REMARK  Name = /home/qwerty/github/datacon2025hack/step_04_hit_selection/docking/ligands/lig_122.pdb
REMARK  4 active torsions:
REMARK  status: ('A' for Active; 'I' for Inactive)
REMARK    1  A    between atoms: C1_1  and  C2_2
REMARK    2  A    between atoms: C4_4  and  C5_5
REMARK    3  A    between atoms: C7_8  and  C8_10
REMARK    4  A    between atoms: C10_12  and  C11_13
REMARK                            x       y       z     vdW  Elec       q    Type
REMARK                         _______ _______ _______ _____ _____    ______ ____
ROOT
ATOM      1  C8  UNL     1       8.878   9.762  25.107  0.00  0.00    +0.073 A 
ATOM      2  C9  UNL     1       8.254  10.006  23.871  0.00  0.00    +0.028 A 
ATOM      3  C10 UNL     1       9.014  10.248  22.714  0.00  0.00    +0.056 A 
ATOM      4  C12 UNL     1      10.415  10.278  22.812  0.00  0.00    +0.015 A 
ATOM      5  C13 UNL     1      11.043  10.019  24.031  0.00  0.00    +0.039 A 
ATOM      6  C14 UNL     1      10.283   9.753  25.173  0.00  0.00    +0.136 A 
ATOM      7  F4  UNL     1      10.925   9.465  26.333  0.00  0.00    -0.205 F 
ENDROOT
BRANCH   1  15
ATOM      8  C1  UNL     1      10.086   9.525  29.956  0.00  0.00    +0.009 C 
ATOM      9  C2  UNL     1       8.682  10.152  29.968  0.00  0.00    +0.004 C 
ATOM     10  C3  UNL     1       8.736  11.693  29.962  0.00  0.00    +0.009 C 
ATOM     11  C4  UNL     1       9.182  12.257  28.599  0.00  0.00    +0.004 C 
ATOM     12  C5  UNL     1       9.152  13.790  28.615  0.00  0.00    +0.009 C 
ATOM     13  C6  UNL     1       8.289  11.711  27.473  0.00  0.00    +0.111 C 
ATOM     14  N1  UNL     1       8.227  10.244  27.528  0.00  0.00    -0.297 N 
ATOM     15  C7  UNL     1       8.050   9.498  26.307  0.00  0.00    +0.249 C 
ATOM     16  O1  UNL     1       7.163   8.602  26.251  0.00  0.00    -0.270 OA
ATOM     17  C15 UNL     1       7.824   9.629  28.801  0.00  0.00    +0.111 C 
ENDBRANCH   1  15
BRANCH   3  18
ATOM     18  C11 UNL     1       8.332  10.568  21.407  0.00  0.00    +0.417 C 
ATOM     19  F1  UNL     1       9.268  10.802  20.414  0.00  0.00    -0.166 F 
ATOM     20  F2  UNL     1       7.540  11.696  21.529  0.00  0.00    -0.166 F 
ATOM     21  F3  UNL     1       7.538   9.499  21.034  0.00  0.00    -0.166 F 
ENDBRANCH   3  18
TORSDOF 2
ENDMDL
MODEL 9
REMARK VINA RESULT:    -5.605      5.457      7.282
REMARK INTER + INTRA:          -6.929
REMARK INTER:                  -6.309
REMARK INTRA:                  -0.620
REMARK UNBOUND:                -0.668
REMARK  Name = /home/qwerty/github/datacon2025hack/step_04_hit_selection/docking/ligands/lig_122.pdb
REMARK  4 active torsions:
REMARK  status: ('A' for Active; 'I' for Inactive)
REMARK    1  A    between atoms: C1_1  and  C2_2
REMARK    2  A    between atoms: C4_4  and  C5_5
REMARK    3  A    between atoms: C7_8  and  C8_10
REMARK    4  A    between atoms: C10_12  and  C11_13
REMARK                            x       y       z     vdW  Elec       q    Type
REMARK                         _______ _______ _______ _____ _____    ______ ____
ROOT
ATOM      1  C8  UNL     1      21.036   7.334  35.578  0.00  0.00    +0.073 A 
ATOM      2  C9  UNL     1      21.995   7.187  34.560  0.00  0.00    +0.028 A 
ATOM      3  C10 UNL     1      23.309   6.789  34.857  0.00  0.00    +0.056 A 
ATOM      4  C12 UNL     1      23.669   6.572  36.198  0.00  0.00    +0.015 A 
ATOM      5  C13 UNL     1      22.719   6.698  37.213  0.00  0.00    +0.039 A 
ATOM      6  C14 UNL     1      21.407   7.068  36.909  0.00  0.00    +0.136 A 
ATOM      7  F4  UNL     1      20.499   7.140  37.914  0.00  0.00    -0.205 F 
ENDROOT
BRANCH   1  15
ATOM      8  C1  UNL     1      17.588   9.843  38.193  0.00  0.00    +0.009 C 
ATOM      9  C2  UNL     1      17.360  10.322  36.750  0.00  0.00    +0.004 C 
ATOM     10  C3  UNL     1      18.151  11.607  36.434  0.00  0.00    +0.009 C 
ATOM     11  C4  UNL     1      19.664  11.346  36.308  0.00  0.00    +0.004 C 
ATOM     12  C5  UNL     1      20.403  12.633  35.923  0.00  0.00    +0.009 C 
ATOM     13  C6  UNL     1      19.936  10.239  35.276  0.00  0.00    +0.111 C 
ATOM     14  N1  UNL     1      19.139   9.042  35.582  0.00  0.00    -0.297 N 
ATOM     15  C7  UNL     1      19.655   7.742  35.231  0.00  0.00    +0.249 C 
ATOM     16  O1  UNL     1      18.918   6.931  34.605  0.00  0.00    -0.270 OA
ATOM     17  C15 UNL     1      17.687   9.214  35.733  0.00  0.00    +0.111 C 
ENDBRANCH   1  15
BRANCH   3  18
ATOM     18  C11 UNL     1      24.344   6.694  33.763  0.00  0.00    +0.417 C 
ATOM     19  F1  UNL     1      25.370   5.844  34.137  0.00  0.00    -0.166 F 
ATOM     20  F2  UNL     1      24.889   7.937  33.493  0.00  0.00    -0.166 F 
ATOM     21  F3  UNL     1      23.748   6.204  32.616  0.00  0.00    -0.166 F 
ENDBRANCH   3  18
TORSDOF 2
ENDMDL
