REMARK  Name = /home/qwerty/github/datacon2025hack/step_04_hit_selection/docking/ligands/lig_129.pdb
REMARK  11 active torsions:
REMARK  status: ('A' for Active; 'I' for Inactive)
REMARK    1  A    between atoms: C2_2  and  C3_3
REMARK    2  A    between atoms: C2_2  and  C4_4
REMARK    3  A    between atoms: C4_4  and  C5_5
REMARK    4  A    between atoms: C5_5  and  N1_6
REMARK    5  A    between atoms: C5_5  and  C8_10
REMARK    6  A    between atoms: C6_7  and  C7_8
REMARK    7  A    between atoms: N2_12  and  C9_13
REMARK    8  A    between atoms: C9_13  and  C10_14
REMARK    9  A    between atoms: N3_17  and  C13_18
REMARK   10  A    between atoms: C13_18  and  C14_19
REMARK   11  A    between atoms: N5_23  and  C17_24
REMARK                            x       y       z     vdW  Elec       q    Type
REMARK                         _______ _______ _______ _____ _____    ______ ____
ROOT
ATOM      1  C8  UNL     1      -1.671   1.042  -1.148  0.00  0.00    +0.234 C 
ATOM      2  O2  UNL     1      -1.025   2.095  -0.890  0.00  0.00    -0.274 OA
ATOM      3  N2  UNL     1      -1.038  -0.035  -1.851  0.00  0.00    -0.312 N 
ATOM      4  H13 UNL     1      -1.626  -0.822  -2.206  0.00  0.00    +0.149 HD
ENDROOT
BRANCH   1   5
ATOM      5  C5  UNL     1      -3.099   0.882  -0.686  0.00  0.00    +0.163 C 
BRANCH   5   6
ATOM      6  N1  UNL     1      -3.202  -0.253   0.239  0.00  0.00    -0.304 N 
ATOM      7  C6  UNL     1      -2.435  -0.377   1.447  0.00  0.00    +0.211 C 
ATOM      8  C7  UNL     1      -2.557  -1.610   2.280  0.00  0.00    +0.109 C 
ATOM      9  O1  UNL     1      -1.665   0.549   1.819  0.00  0.00    -0.276 OA
ATOM     10  H9  UNL     1      -3.836  -1.040  -0.022  0.00  0.00    +0.149 HD
ENDBRANCH   5   6
BRANCH   5  11
ATOM     11  C4  UNL     1      -3.680   2.168  -0.060  0.00  0.00    +0.061 C 
BRANCH  11  13
ATOM     12  C1  UNL     1      -5.501   1.651   1.540  0.00  0.00    +0.007 C 
ATOM     13  C2  UNL     1      -5.140   1.996   0.295  0.00  0.00    -0.077 C 
ATOM     14  C3  UNL     1      -6.195   2.158  -0.765  0.00  0.00    +0.038 C 
ENDBRANCH  11  13
ENDBRANCH   5  11
ENDBRANCH   1   5
BRANCH   3  15
ATOM     15  C9  UNL     1       0.409  -0.109  -2.035  0.00  0.00    +0.123 C 
BRANCH  15  16
ATOM     16  C10 UNL     1       1.111  -0.351  -0.691  0.00  0.00    +0.075 C 
ATOM     17  C11 UNL     1       0.801  -1.707  -0.071  0.00  0.00    +0.036 C 
ATOM     18  C12 UNL     1       2.272  -2.000  -0.296  0.00  0.00    +0.087 C 
ATOM     19  N3  UNL     1       2.531  -0.680  -0.895  0.00  0.00    -0.291 NA
BRANCH  19  20
ATOM     20  C13 UNL     1       3.403   0.152  -0.044  0.00  0.00    +0.159 C 
BRANCH  20  21
ATOM     21  C14 UNL     1       4.837  -0.259  -0.217  0.00  0.00    +0.124 A 
ATOM     22  N4  UNL     1       5.416  -0.385  -1.430  0.00  0.00    -0.239 NA
ATOM     23  C15 UNL     1       6.692  -0.728  -1.156  0.00  0.00    +0.130 A 
ATOM     24  C16 UNL     1       6.870  -0.798   0.207  0.00  0.00    +0.106 A 
ATOM     25  N5  UNL     1       5.700  -0.498   0.795  0.00  0.00    -0.336 N 
ATOM     26  C17 UNL     1       5.440  -0.448   2.231  0.00  0.00    +0.150 C 
ENDBRANCH  20  21
ENDBRANCH  19  20
ENDBRANCH  15  16
ENDBRANCH   3  15
TORSDOF 8
