REMARK  Name = /home/qwerty/github/datacon2025hack/step_04_hit_selection/docking/ligands/lig_810.pdb
REMARK  10 active torsions:
REMARK  status: ('A' for Active; 'I' for Inactive)
REMARK    1  A    between atoms: C1_1  and  C2_2
REMARK    2  A    between atoms: C2_2  and  C3_3
REMARK    3  A    between atoms: C2_2  and  C4_4
REMARK    4  A    between atoms: C4_4  and  C5_5
REMARK    5  A    between atoms: C5_5  and  C6_6
REMARK    6  A    between atoms: C5_5  and  N1_7
REMARK    7  A    between atoms: C7_8  and  C8_10
REMARK    8  A    between atoms: N2_12  and  C9_13
REMARK    9  A    between atoms: C12_16  and  N3_17
REMARK   10  A    between atoms: C13_18  and  C14_20
REMARK                            x       y       z     vdW  Elec       q    Type
REMARK                         _______ _______ _______ _____ _____    ______ ____
ROOT
ATOM      1  C9  UNL     1       1.703  -0.030  -0.787  0.00  0.00    +0.034 A 
ATOM      2  C10 UNL     1       2.658   0.405  -1.716  0.00  0.00    +0.025 A 
ATOM      3  C11 UNL     1       4.024   0.271  -1.447  0.00  0.00    +0.025 A 
ATOM      4  C12 UNL     1       4.457  -0.329  -0.252  0.00  0.00    +0.034 A 
ATOM      5  C18 UNL     1       3.501  -0.764   0.677  0.00  0.00    +0.025 A 
ATOM      6  C19 UNL     1       2.136  -0.630   0.408  0.00  0.00    +0.025 A 
ENDROOT
BRANCH   1   9
ATOM      7  C8  UNL     1      -0.718   0.344  -0.118  0.00  0.00    +0.303 C 
ATOM      8  O2  UNL     1      -0.405   0.721   1.043  0.00  0.00    -0.265 OA
ATOM      9  N2  UNL     1       0.305   0.099  -1.099  0.00  0.00    -0.278 N 
ATOM     10  H15 UNL     1       0.031   0.105  -2.108  0.00  0.00    +0.155 HD
BRANCH   7  12
ATOM     11  N1  UNL     1      -3.171   0.494   0.484  0.00  0.00    -0.305 N 
ATOM     12  C7  UNL     1      -2.142   0.192  -0.474  0.00  0.00    +0.300 C 
ATOM     13  O1  UNL     1      -2.454  -0.210  -1.628  0.00  0.00    -0.265 OA
ATOM     14  H14 UNL     1      -2.895   0.912   1.402  0.00  0.00    +0.149 HD
BRANCH  11  15
ATOM     15  C5  UNL     1      -4.599   0.400   0.163  0.00  0.00    +0.071 C 
ATOM     16  C6  UNL     1      -5.059   1.729  -0.444  0.00  0.00    +0.028 C 
BRANCH  15  17
ATOM     17  C4  UNL     1      -5.380   0.017   1.447  0.00  0.00    +0.025 C 
BRANCH  17  19
ATOM     18  C1  UNL     1      -7.222  -1.189   0.091  0.00  0.00    +0.007 C 
ATOM     19  C2  UNL     1      -6.893  -0.308   1.303  0.00  0.00    -0.015 C 
ATOM     20  C3  UNL     1      -7.786   0.942   1.343  0.00  0.00    +0.007 C 
ENDBRANCH  17  19
ENDBRANCH  15  17
ENDBRANCH  11  15
ENDBRANCH   7  12
ENDBRANCH   1   9
BRANCH   4  21
ATOM     21  N3  UNL     1       5.855  -0.458   0.060  0.00  0.00    -0.281 N 
ATOM     22  C13 UNL     1       6.878  -0.680  -0.925  0.00  0.00    +0.251 C 
ATOM     23  O3  UNL     1       6.569  -1.090  -2.077  0.00  0.00    -0.270 OA
ATOM     24  H18 UNL     1       6.126  -0.490   1.068  0.00  0.00    +0.155 HD
BRANCH  22  25
ATOM     25  C14 UNL     1       8.299  -0.474  -0.593  0.00  0.00    +0.075 A 
ATOM     26  C15 UNL     1       8.822   0.038   0.578  0.00  0.00    +0.054 A 
ATOM     27  C16 UNL     1      10.190   0.047   0.401  0.00  0.00    +0.195 A 
ATOM     28  O4  UNL     1      10.488  -0.422  -0.790  0.00  0.00    -0.470 OA
ATOM     29  C17 UNL     1       9.378  -0.742  -1.413  0.00  0.00    +0.207 A 
ENDBRANCH  22  25
ENDBRANCH   4  21
TORSDOF 7
