MODEL 1
REMARK VINA RESULT:    -6.357      0.000      0.000
REMARK INTER + INTRA:          -9.211
REMARK INTER:                  -8.215
REMARK INTRA:                  -0.996
REMARK UNBOUND:                -0.996
REMARK  Name = /home/qwerty/github/datacon2025hack/step_04_hit_selection/docking/ligands/lig_326.pdb
REMARK  8 active torsions:
REMARK  status: ('A' for Active; 'I' for Inactive)
REMARK    1  A    between atoms: C1_1  and  C2_2
REMARK    2  A    between atoms: C2_2  and  C3_3
REMARK    3  A    between atoms: C2_2  and  N1_4
REMARK    4  A    between atoms: N1_4  and  C4_5
REMARK    5  A    between atoms: C5_6  and  C6_8
REMARK    6  A    between atoms: C9_11  and  N2_12
REMARK    7  A    between atoms: N2_12  and  C10_13
REMARK    8  A    between atoms: C15_19  and  N3_20
REMARK                            x       y       z     vdW  Elec       q    Type
REMARK                         _______ _______ _______ _____ _____    ______ ____
ROOT
ATOM      1  N2  UNL     1      10.693   8.227  23.707  0.00  0.00    -0.313 N 
ATOM      2  H13 UNL     1      11.035   7.254  23.873  0.00  0.00    +0.152 HD
ENDROOT
BRANCH   1   3
ATOM      3  C10 UNL     1      10.933   8.811  22.416  0.00  0.00    +0.055 A 
ATOM      4  C11 UNL     1      11.768   9.935  22.294  0.00  0.00    +0.063 A 
ATOM      5  C12 UNL     1      11.952  10.549  21.053  0.00  0.00    +0.125 A 
ATOM      6  F1  UNL     1      12.760  11.631  20.945  0.00  0.00    -0.205 F 
ATOM      7  C13 UNL     1      11.293  10.055  19.925  0.00  0.00    +0.040 A 
ATOM      8  C14 UNL     1      10.452   8.946  20.035  0.00  0.00    +0.028 A 
ATOM      9  C15 UNL     1      10.265   8.316  21.275  0.00  0.00    +0.051 A 
BRANCH   9  10
ATOM     10  N3  UNL     1       9.426   7.151  21.356  0.00  0.00    -0.326 N 
ATOM     11  C16 UNL     1       7.969   7.321  21.421  0.00  0.00    +0.120 C 
ATOM     12  C17 UNL     1       7.268   5.965  21.365  0.00  0.00    +0.100 C 
ATOM     13  N4  UNL     1       7.893   5.149  20.321  0.00  0.00    -0.313 NA
ATOM     14  C18 UNL     1       9.273   4.761  20.672  0.00  0.00    +0.100 C 
ATOM     15  C19 UNL     1      10.023   5.819  21.512  0.00  0.00    +0.120 C 
ATOM     16  H21 UNL     1       7.326   4.277  20.205  0.00  0.00    +0.122 HD
ENDBRANCH   9  10
ENDBRANCH   1   3
BRANCH   1  20
ATOM     17  C6  UNL     1       8.705  10.260  26.877  0.00  0.00    +0.037 A 
ATOM     18  C7  UNL     1      10.084  10.001  26.942  0.00  0.00    +0.015 A 
ATOM     19  C8  UNL     1      10.727   9.327  25.899  0.00  0.00    +0.024 A 
ATOM     20  C9  UNL     1      10.005   8.900  24.776  0.00  0.00    +0.031 A 
ATOM     21  C20 UNL     1       8.633   9.193  24.693  0.00  0.00    +0.024 A 
ATOM     22  C21 UNL     1       7.989   9.865  25.735  0.00  0.00    +0.015 A 
BRANCH  17  25
ATOM     23  N1  UNL     1       8.237  12.393  28.183  0.00  0.00    -0.298 N 
ATOM     24  C4  UNL     1       8.085  13.299  27.036  0.00  0.00    +0.132 C 
ATOM     25  C5  UNL     1       8.030  10.983  27.978  0.00  0.00    +0.247 C 
ATOM     26  O1  UNL     1       7.258  10.351  28.749  0.00  0.00    -0.270 OA
BRANCH  23  28
ATOM     27  C1  UNL     1       9.772  13.473  29.806  0.00  0.00    +0.028 C 
ATOM     28  C2  UNL     1       8.369  12.908  29.560  0.00  0.00    +0.070 C 
ATOM     29  C3  UNL     1       7.282  13.946  29.864  0.00  0.00    +0.028 C 
ENDBRANCH  23  28
ENDBRANCH  17  25
ENDBRANCH   1  20
TORSDOF 5
ENDMDL
MODEL 2
REMARK VINA RESULT:    -6.264     12.749     14.299
REMARK INTER + INTRA:          -9.090
REMARK INTER:                  -8.004
REMARK INTRA:                  -1.086
REMARK UNBOUND:                -0.996
REMARK  Name = /home/qwerty/github/datacon2025hack/step_04_hit_selection/docking/ligands/lig_326.pdb
REMARK  8 active torsions:
REMARK  status: ('A' for Active; 'I' for Inactive)
REMARK    1  A    between atoms: C1_1  and  C2_2
REMARK    2  A    between atoms: C2_2  and  C3_3
REMARK    3  A    between atoms: C2_2  and  N1_4
REMARK    4  A    between atoms: N1_4  and  C4_5
REMARK    5  A    between atoms: C5_6  and  C6_8
REMARK    6  A    between atoms: C9_11  and  N2_12
REMARK    7  A    between atoms: N2_12  and  C10_13
REMARK    8  A    between atoms: C15_19  and  N3_20
REMARK                            x       y       z     vdW  Elec       q    Type
REMARK                         _______ _______ _______ _____ _____    ______ ____
ROOT
ATOM      1  N2  UNL     1      24.036  13.060  21.152  0.00  0.00    -0.313 N 
ATOM      2  H13 UNL     1      24.791  13.533  20.605  0.00  0.00    +0.152 HD
ENDROOT
BRANCH   1   3
ATOM      3  C10 UNL     1      23.368  11.942  20.544  0.00  0.00    +0.055 A 
ATOM      4  C11 UNL     1      23.904  10.648  20.666  0.00  0.00    +0.063 A 
ATOM      5  C12 UNL     1      23.298   9.567  20.021  0.00  0.00    +0.125 A 
ATOM      6  F1  UNL     1      23.821   8.324  20.146  0.00  0.00    -0.205 F 
ATOM      7  C13 UNL     1      22.160   9.770  19.238  0.00  0.00    +0.040 A 
ATOM      8  C14 UNL     1      21.624  11.052  19.099  0.00  0.00    +0.028 A 
ATOM      9  C15 UNL     1      22.220  12.145  19.748  0.00  0.00    +0.051 A 
BRANCH   9  10
ATOM     10  N3  UNL     1      21.627  13.448  19.623  0.00  0.00    -0.326 N 
ATOM     11  C16 UNL     1      20.385  13.743  20.348  0.00  0.00    +0.120 C 
ATOM     12  C17 UNL     1      20.004  15.214  20.186  0.00  0.00    +0.100 C 
ATOM     13  N4  UNL     1      21.202  16.037  20.363  0.00  0.00    -0.313 NA
ATOM     14  C18 UNL     1      22.170  15.853  19.265  0.00  0.00    +0.100 C 
ATOM     15  C19 UNL     1      22.179  14.425  18.675  0.00  0.00    +0.120 C 
ATOM     16  H21 UNL     1      20.909  17.042  20.378  0.00  0.00    +0.122 HD
ENDBRANCH   9  10
ENDBRANCH   1   3
BRANCH   1  20
ATOM     17  C6  UNL     1      23.152  14.593  25.025  0.00  0.00    +0.037 A 
ATOM     18  C7  UNL     1      24.275  15.044  24.313  0.00  0.00    +0.015 A 
ATOM     19  C8  UNL     1      24.561  14.531  23.044  0.00  0.00    +0.024 A 
ATOM     20  C9  UNL     1      23.733  13.558  22.467  0.00  0.00    +0.031 A 
ATOM     21  C20 UNL     1      22.588  13.133  23.164  0.00  0.00    +0.024 A 
ATOM     22  C21 UNL     1      22.302  13.645  24.432  0.00  0.00    +0.015 A 
BRANCH  17  25
ATOM     23  N1  UNL     1      22.870  14.314  27.538  0.00  0.00    -0.298 N 
ATOM     24  C4  UNL     1      24.050  13.472  27.779  0.00  0.00    +0.132 C 
ATOM     25  C5  UNL     1      22.847  15.146  26.363  0.00  0.00    +0.247 C 
ATOM     26  O1  UNL     1      22.562  16.369  26.475  0.00  0.00    -0.270 OA
BRANCH  23  28
ATOM     27  C1  UNL     1      20.765  13.397  28.480  0.00  0.00    +0.028 C 
ATOM     28  C2  UNL     1      21.830  14.496  28.570  0.00  0.00    +0.070 C 
ATOM     29  C3  UNL     1      22.452  14.565  29.969  0.00  0.00    +0.028 C 
ENDBRANCH  23  28
ENDBRANCH  17  25
ENDBRANCH   1  20
TORSDOF 5
ENDMDL
MODEL 3
REMARK VINA RESULT:    -6.247      3.182      8.059
REMARK INTER + INTRA:          -9.068
REMARK INTER:                  -7.965
REMARK INTRA:                  -1.104
REMARK UNBOUND:                -0.996
REMARK  Name = /home/qwerty/github/datacon2025hack/step_04_hit_selection/docking/ligands/lig_326.pdb
REMARK  8 active torsions:
REMARK  status: ('A' for Active; 'I' for Inactive)
REMARK    1  A    between atoms: C1_1  and  C2_2
REMARK    2  A    between atoms: C2_2  and  C3_3
REMARK    3  A    between atoms: C2_2  and  N1_4
REMARK    4  A    between atoms: N1_4  and  C4_5
REMARK    5  A    between atoms: C5_6  and  C6_8
REMARK    6  A    between atoms: C9_11  and  N2_12
REMARK    7  A    between atoms: N2_12  and  C10_13
REMARK    8  A    between atoms: C15_19  and  N3_20
REMARK                            x       y       z     vdW  Elec       q    Type
REMARK                         _______ _______ _______ _____ _____    ______ ____
ROOT
ATOM      1  N2  UNL     1       7.544  10.480  26.512  0.00  0.00    -0.313 N 
ATOM      2  H13 UNL     1       6.568  10.204  26.763  0.00  0.00    +0.152 HD
ENDROOT
BRANCH   1   3
ATOM      3  C10 UNL     1       8.291  11.250  27.470  0.00  0.00    +0.055 A 
ATOM      4  C11 UNL     1       8.762  12.531  27.133  0.00  0.00    +0.063 A 
ATOM      5  C12 UNL     1       9.545  13.256  28.033  0.00  0.00    +0.125 A 
ATOM      6  F1  UNL     1       9.993  14.491  27.700  0.00  0.00    -0.205 F 
ATOM      7  C13 UNL     1       9.877  12.705  29.272  0.00  0.00    +0.040 A 
ATOM      8  C14 UNL     1       9.426  11.429  29.614  0.00  0.00    +0.028 A 
ATOM      9  C15 UNL     1       8.632  10.693  28.721  0.00  0.00    +0.051 A 
BRANCH   9  10
ATOM     10  N3  UNL     1       8.145   9.398  29.112  0.00  0.00    -0.326 N 
ATOM     11  C16 UNL     1       8.921   8.204  28.757  0.00  0.00    +0.120 C 
ATOM     12  C17 UNL     1       8.301   6.954  29.381  0.00  0.00    +0.100 C 
ATOM     13  N4  UNL     1       7.945   7.245  30.772  0.00  0.00    -0.313 NA
ATOM     14  C18 UNL     1       6.837   8.214  30.870  0.00  0.00    +0.100 C 
ATOM     15  C19 UNL     1       6.822   9.262  29.735  0.00  0.00    +0.120 C 
ATOM     16  H21 UNL     1       7.641   6.351  31.224  0.00  0.00    +0.122 HD
ENDBRANCH   9  10
ENDBRANCH   1   3
BRANCH   1  20
ATOM     17  C6  UNL     1       9.100   9.189  22.765  0.00  0.00    +0.037 A 
ATOM     18  C7  UNL     1       9.791   8.927  23.959  0.00  0.00    +0.015 A 
ATOM     19  C8  UNL     1       9.276   9.360  25.184  0.00  0.00    +0.024 A 
ATOM     20  C9  UNL     1       8.064  10.063  25.238  0.00  0.00    +0.031 A 
ATOM     21  C20 UNL     1       7.353  10.293  24.047  0.00  0.00    +0.024 A 
ATOM     22  C21 UNL     1       7.868   9.861  22.822  0.00  0.00    +0.015 A 
BRANCH  17  25
ATOM     23  N1  UNL     1       9.831   7.318  21.203  0.00  0.00    -0.298 N 
ATOM     24  C4  UNL     1       8.711   6.400  21.456  0.00  0.00    +0.132 C 
ATOM     25  C5  UNL     1       9.643   8.720  21.470  0.00  0.00    +0.247 C 
ATOM     26  O1  UNL     1       9.947   9.565  20.586  0.00  0.00    -0.270 OA
BRANCH  23  28
ATOM     27  C1  UNL     1      12.293   7.044  21.348  0.00  0.00    +0.028 C 
ATOM     28  C2  UNL     1      11.040   6.877  20.481  0.00  0.00    +0.070 C 
ATOM     29  C3  UNL     1      10.887   5.435  19.983  0.00  0.00    +0.028 C 
ENDBRANCH  23  28
ENDBRANCH  17  25
ENDBRANCH   1  20
TORSDOF 5
ENDMDL
MODEL 4
REMARK VINA RESULT:    -6.147      6.802     12.224
REMARK INTER + INTRA:          -8.939
REMARK INTER:                  -7.958
REMARK INTRA:                  -0.981
REMARK UNBOUND:                -0.996
REMARK  Name = /home/qwerty/github/datacon2025hack/step_04_hit_selection/docking/ligands/lig_326.pdb
REMARK  8 active torsions:
REMARK  status: ('A' for Active; 'I' for Inactive)
REMARK    1  A    between atoms: C1_1  and  C2_2
REMARK    2  A    between atoms: C2_2  and  C3_3
REMARK    3  A    between atoms: C2_2  and  N1_4
REMARK    4  A    between atoms: N1_4  and  C4_5
REMARK    5  A    between atoms: C5_6  and  C6_8
REMARK    6  A    between atoms: C9_11  and  N2_12
REMARK    7  A    between atoms: N2_12  and  C10_13
REMARK    8  A    between atoms: C15_19  and  N3_20
REMARK                            x       y       z     vdW  Elec       q    Type
REMARK                         _______ _______ _______ _____ _____    ______ ____
ROOT
ATOM      1  N2  UNL     1      11.813  13.459  35.114  0.00  0.00    -0.313 N 
ATOM      2  H13 UNL     1      10.953  13.522  35.704  0.00  0.00    +0.152 HD
ENDROOT
BRANCH   1   3
ATOM      3  C10 UNL     1      13.087  13.554  35.772  0.00  0.00    +0.055 A 
ATOM      4  C11 UNL     1      13.831  14.745  35.703  0.00  0.00    +0.063 A 
ATOM      5  C12 UNL     1      15.099  14.823  36.282  0.00  0.00    +0.125 A 
ATOM      6  F1  UNL     1      15.807  15.976  36.211  0.00  0.00    -0.205 F 
ATOM      7  C13 UNL     1      15.643  13.709  36.924  0.00  0.00    +0.040 A 
ATOM      8  C14 UNL     1      14.921  12.516  36.990  0.00  0.00    +0.028 A 
ATOM      9  C15 UNL     1      13.642  12.427  36.418  0.00  0.00    +0.051 A 
BRANCH   9  10
ATOM     10  N3  UNL     1      12.900  11.202  36.534  0.00  0.00    -0.326 N 
ATOM     11  C16 UNL     1      11.654  11.189  37.310  0.00  0.00    +0.120 C 
ATOM     12  C17 UNL     1      10.961   9.832  37.192  0.00  0.00    +0.100 C 
ATOM     13  N4  UNL     1      10.990   9.404  35.792  0.00  0.00    -0.313 NA
ATOM     14  C18 UNL     1      12.357   9.087  35.336  0.00  0.00    +0.100 C 
ATOM     15  C19 UNL     1      13.453   9.949  36.001  0.00  0.00    +0.120 C 
ATOM     16  H21 UNL     1      10.405   8.541  35.702  0.00  0.00    +0.122 HD
ENDBRANCH   9  10
ENDBRANCH   1   3
BRANCH   1  20
ATOM     17  C6  UNL     1      11.296  12.872  30.928  0.00  0.00    +0.037 A 
ATOM     18  C7  UNL     1      11.264  11.785  31.816  0.00  0.00    +0.015 A 
ATOM     19  C8  UNL     1      11.441  11.986  33.188  0.00  0.00    +0.024 A 
ATOM     20  C9  UNL     1      11.655  13.275  33.696  0.00  0.00    +0.031 A 
ATOM     21  C20 UNL     1      11.649  14.368  32.812  0.00  0.00    +0.024 A 
ATOM     22  C21 UNL     1      11.473  14.168  31.441  0.00  0.00    +0.015 A 
BRANCH  17  25
ATOM     23  N1  UNL     1       9.805  12.316  28.943  0.00  0.00    -0.298 N 
ATOM     24  C4  UNL     1       8.649  13.138  29.326  0.00  0.00    +0.132 C 
ATOM     25  C5  UNL     1      11.098  12.657  29.477  0.00  0.00    +0.247 C 
ATOM     26  O1  UNL     1      12.081  12.774  28.696  0.00  0.00    -0.270 OA
BRANCH  23  28
ATOM     27  C1  UNL     1      10.071   9.914  28.381  0.00  0.00    +0.028 C 
ATOM     28  C2  UNL     1       9.714  11.313  27.864  0.00  0.00    +0.070 C 
ATOM     29  C3  UNL     1       8.327  11.335  27.211  0.00  0.00    +0.028 C 
ENDBRANCH  23  28
ENDBRANCH  17  25
ENDBRANCH   1  20
TORSDOF 5
ENDMDL
MODEL 5
REMARK VINA RESULT:    -6.130     12.681     14.321
REMARK INTER + INTRA:          -8.918
REMARK INTER:                  -7.795
REMARK INTRA:                  -1.123
REMARK UNBOUND:                -0.996
REMARK  Name = /home/qwerty/github/datacon2025hack/step_04_hit_selection/docking/ligands/lig_326.pdb
REMARK  8 active torsions:
REMARK  status: ('A' for Active; 'I' for Inactive)
REMARK    1  A    between atoms: C1_1  and  C2_2
REMARK    2  A    between atoms: C2_2  and  C3_3
REMARK    3  A    between atoms: C2_2  and  N1_4
REMARK    4  A    between atoms: N1_4  and  C4_5
REMARK    5  A    between atoms: C5_6  and  C6_8
REMARK    6  A    between atoms: C9_11  and  N2_12
REMARK    7  A    between atoms: N2_12  and  C10_13
REMARK    8  A    between atoms: C15_19  and  N3_20
REMARK                            x       y       z     vdW  Elec       q    Type
REMARK                         _______ _______ _______ _____ _____    ______ ____
ROOT
ATOM      1  N2  UNL     1      21.502   2.050  26.260  0.00  0.00    -0.313 N 
ATOM      2  H13 UNL     1      22.346   2.256  25.679  0.00  0.00    +0.152 HD
ENDROOT
BRANCH   1   3
ATOM      3  C10 UNL     1      20.308   1.628  25.579  0.00  0.00    +0.055 A 
ATOM      4  C11 UNL     1      19.869   0.296  25.685  0.00  0.00    +0.063 A 
ATOM      5  C12 UNL     1      18.749  -0.138  24.972  0.00  0.00    +0.125 A 
ATOM      6  F1  UNL     1      18.333  -1.423  25.081  0.00  0.00    -0.205 F 
ATOM      7  C13 UNL     1      18.065   0.748  24.138  0.00  0.00    +0.040 A 
ATOM      8  C14 UNL     1      18.497   2.070  24.016  0.00  0.00    +0.028 A 
ATOM      9  C15 UNL     1      19.617   2.521  24.732  0.00  0.00    +0.051 A 
BRANCH   9  10
ATOM     10  N3  UNL     1      20.018   3.897  24.621  0.00  0.00    -0.326 N 
ATOM     11  C16 UNL     1      19.383   4.900  25.484  0.00  0.00    +0.120 C 
ATOM     12  C17 UNL     1      20.047   6.264  25.301  0.00  0.00    +0.100 C 
ATOM     13  N4  UNL     1      21.501   6.086  25.284  0.00  0.00    -0.313 NA
ATOM     14  C18 UNL     1      21.957   5.364  24.081  0.00  0.00    +0.100 C 
ATOM     15  C19 UNL     1      20.950   4.313  23.565  0.00  0.00    +0.120 C 
ATOM     16  H21 UNL     1      21.946   7.033  25.287  0.00  0.00    +0.122 HD
ENDBRANCH   9  10
ENDBRANCH   1   3
BRANCH   1  20
ATOM     17  C6  UNL     1      21.736   2.488  30.488  0.00  0.00    +0.037 A 
ATOM     18  C7  UNL     1      20.854   3.276  29.732  0.00  0.00    +0.015 A 
ATOM     19  C8  UNL     1      20.788   3.130  28.343  0.00  0.00    +0.024 A 
ATOM     20  C9  UNL     1      21.602   2.197  27.687  0.00  0.00    +0.031 A 
ATOM     21  C20 UNL     1      22.458   1.381  28.448  0.00  0.00    +0.024 A 
ATOM     22  C21 UNL     1      22.525   1.527  29.836  0.00  0.00    +0.015 A 
BRANCH  17  25
ATOM     23  N1  UNL     1      20.744   2.135  32.805  0.00  0.00    -0.298 N 
ATOM     24  C4  UNL     1      20.301   0.745  32.622  0.00  0.00    +0.132 C 
ATOM     25  C5  UNL     1      21.795   2.638  31.960  0.00  0.00    +0.247 C 
ATOM     26  O1  UNL     1      22.786   3.218  32.481  0.00  0.00    -0.270 OA
BRANCH  23  28
ATOM     27  C1  UNL     1      19.816   4.321  33.523  0.00  0.00    +0.028 C 
ATOM     28  C2  UNL     1      20.305   2.937  33.964  0.00  0.00    +0.070 C 
ATOM     29  C3  UNL     1      19.236   2.193  34.772  0.00  0.00    +0.028 C 
ENDBRANCH  23  28
ENDBRANCH  17  25
ENDBRANCH   1  20
TORSDOF 5
ENDMDL
MODEL 6
REMARK VINA RESULT:    -6.104      6.598      9.791
REMARK INTER + INTRA:          -8.884
REMARK INTER:                  -7.803
REMARK INTRA:                  -1.081
REMARK UNBOUND:                -0.996
REMARK  Name = /home/qwerty/github/datacon2025hack/step_04_hit_selection/docking/ligands/lig_326.pdb
REMARK  8 active torsions:
REMARK  status: ('A' for Active; 'I' for Inactive)
REMARK    1  A    between atoms: C1_1  and  C2_2
REMARK    2  A    between atoms: C2_2  and  C3_3
REMARK    3  A    between atoms: C2_2  and  N1_4
REMARK    4  A    between atoms: N1_4  and  C4_5
REMARK    5  A    between atoms: C5_6  and  C6_8
REMARK    6  A    between atoms: C9_11  and  N2_12
REMARK    7  A    between atoms: N2_12  and  C10_13
REMARK    8  A    between atoms: C15_19  and  N3_20
REMARK                            x       y       z     vdW  Elec       q    Type
REMARK                         _______ _______ _______ _____ _____    ______ ____
ROOT
ATOM      1  N2  UNL     1      10.768  14.124  30.669  0.00  0.00    -0.313 N 
ATOM      2  H13 UNL     1      10.891  15.127  30.402  0.00  0.00    +0.152 HD
ENDROOT
BRANCH   1   3
ATOM      3  C10 UNL     1      10.184  13.240  29.698  0.00  0.00    +0.055 A 
ATOM      4  C11 UNL     1       8.964  12.597  29.972  0.00  0.00    +0.063 A 
ATOM      5  C12 UNL     1       8.425  11.685  29.063  0.00  0.00    +0.125 A 
ATOM      6  F1  UNL     1       7.247  11.072  29.335  0.00  0.00    -0.205 F 
ATOM      7  C13 UNL     1       9.104  11.394  27.879  0.00  0.00    +0.040 A 
ATOM      8  C14 UNL     1      10.323  12.016  27.599  0.00  0.00    +0.028 A 
ATOM      9  C15 UNL     1      10.872  12.940  28.501  0.00  0.00    +0.051 A 
BRANCH   9  10
ATOM     10  N3  UNL     1      12.107  13.599  28.174  0.00  0.00    -0.326 N 
ATOM     11  C16 UNL     1      13.371  13.031  28.657  0.00  0.00    +0.120 C 
ATOM     12  C17 UNL     1      14.560  13.803  28.086  0.00  0.00    +0.100 C 
ATOM     13  N4  UNL     1      14.330  14.043  26.660  0.00  0.00    -0.313 NA
ATOM     14  C18 UNL     1      13.218  14.984  26.428  0.00  0.00    +0.100 C 
ATOM     15  C19 UNL     1      12.094  14.895  27.484  0.00  0.00    +0.120 C 
ATOM     16  H21 UNL     1      15.202  14.456  26.253  0.00  0.00    +0.122 HD
ENDBRANCH   9  10
ENDBRANCH   1   3
BRANCH   1  20
ATOM     17  C6  UNL     1      12.101  12.878  34.516  0.00  0.00    +0.037 A 
ATOM     18  C7  UNL     1      12.421  12.135  33.369  0.00  0.00    +0.015 A 
ATOM     19  C8  UNL     1      11.974  12.548  32.110  0.00  0.00    +0.024 A 
ATOM     20  C9  UNL     1      11.199  13.708  31.976  0.00  0.00    +0.031 A 
ATOM     21  C20 UNL     1      10.911  14.474  33.120  0.00  0.00    +0.024 A 
ATOM     22  C21 UNL     1      11.357  14.061  34.378  0.00  0.00    +0.015 A 
BRANCH  17  25
ATOM     23  N1  UNL     1      13.981  12.508  36.189  0.00  0.00    -0.298 N 
ATOM     24  C4  UNL     1      14.704  13.766  35.958  0.00  0.00    +0.132 C 
ATOM     25  C5  UNL     1      12.585  12.444  35.846  0.00  0.00    +0.247 C 
ATOM     26  O1  UNL     1      11.757  12.010  36.692  0.00  0.00    -0.270 OA
BRANCH  23  28
ATOM     27  C1  UNL     1      14.608  10.107  36.145  0.00  0.00    +0.028 C 
ATOM     28  C2  UNL     1      14.584  11.404  36.962  0.00  0.00    +0.070 C 
ATOM     29  C3  UNL     1      15.983  11.783  37.460  0.00  0.00    +0.028 C 
ENDBRANCH  23  28
ENDBRANCH  17  25
ENDBRANCH   1  20
TORSDOF 5
ENDMDL
MODEL 7
REMARK VINA RESULT:    -6.091      6.216      9.251
REMARK INTER + INTRA:          -8.867
REMARK INTER:                  -7.665
REMARK INTRA:                  -1.202
REMARK UNBOUND:                -0.996
REMARK  Name = /home/qwerty/github/datacon2025hack/step_04_hit_selection/docking/ligands/lig_326.pdb
REMARK  8 active torsions:
REMARK  status: ('A' for Active; 'I' for Inactive)
REMARK    1  A    between atoms: C1_1  and  C2_2
REMARK    2  A    between atoms: C2_2  and  C3_3
REMARK    3  A    between atoms: C2_2  and  N1_4
REMARK    4  A    between atoms: N1_4  and  C4_5
REMARK    5  A    between atoms: C5_6  and  C6_8
REMARK    6  A    between atoms: C9_11  and  N2_12
REMARK    7  A    between atoms: N2_12  and  C10_13
REMARK    8  A    between atoms: C15_19  and  N3_20
REMARK                            x       y       z     vdW  Elec       q    Type
REMARK                         _______ _______ _______ _____ _____    ______ ____
ROOT
ATOM      1  N2  UNL     1      10.273  13.794  30.076  0.00  0.00    -0.313 N 
ATOM      2  H13 UNL     1       9.845  14.435  30.782  0.00  0.00    +0.152 HD
ENDROOT
BRANCH   1   3
ATOM      3  C10 UNL     1      11.497  14.211  29.448  0.00  0.00    +0.055 A 
ATOM      4  C11 UNL     1      11.510  14.553  28.085  0.00  0.00    +0.063 A 
ATOM      5  C12 UNL     1      12.708  14.893  27.452  0.00  0.00    +0.125 A 
ATOM      6  F1  UNL     1      12.710  15.222  26.137  0.00  0.00    -0.205 F 
ATOM      7  C13 UNL     1      13.905  14.882  28.169  0.00  0.00    +0.040 A 
ATOM      8  C14 UNL     1      13.908  14.533  29.521  0.00  0.00    +0.028 A 
ATOM      9  C15 UNL     1      12.710  14.196  30.171  0.00  0.00    +0.051 A 
BRANCH   9  10
ATOM     10  N3  UNL     1      12.732  13.880  31.573  0.00  0.00    -0.326 N 
ATOM     11  C16 UNL     1      12.498  14.948  32.552  0.00  0.00    +0.120 C 
ATOM     12  C17 UNL     1      12.430  14.375  33.967  0.00  0.00    +0.100 C 
ATOM     13  N4  UNL     1      11.605  13.165  33.950  0.00  0.00    -0.313 NA
ATOM     14  C18 UNL     1      12.249  12.064  33.209  0.00  0.00    +0.100 C 
ATOM     15  C19 UNL     1      13.120  12.536  32.022  0.00  0.00    +0.120 C 
ATOM     16  H21 UNL     1      11.460  12.854  34.939  0.00  0.00    +0.122 HD
ENDBRANCH   9  10
ENDBRANCH   1   3
BRANCH   1  20
ATOM     17  C6  UNL     1       8.296  10.129  29.187  0.00  0.00    +0.037 A 
ATOM     18  C7  UNL     1       7.702  11.361  28.871  0.00  0.00    +0.015 A 
ATOM     19  C8  UNL     1       8.356  12.561  29.172  0.00  0.00    +0.024 A 
ATOM     20  C9  UNL     1       9.611  12.549  29.795  0.00  0.00    +0.031 A 
ATOM     21  C20 UNL     1      10.224  11.315  30.077  0.00  0.00    +0.024 A 
ATOM     22  C21 UNL     1       9.570  10.117  29.777  0.00  0.00    +0.015 A 
BRANCH  17  25
ATOM     23  N1  UNL     1       7.403   7.842  29.852  0.00  0.00    -0.298 N 
ATOM     24  C4  UNL     1       6.812   8.226  31.142  0.00  0.00    +0.132 C 
ATOM     25  C5  UNL     1       7.606   8.862  28.857  0.00  0.00    +0.247 C 
ATOM     26  O1  UNL     1       7.188   8.675  27.683  0.00  0.00    -0.270 OA
BRANCH  23  28
ATOM     27  C1  UNL     1       8.981   5.927  29.838  0.00  0.00    +0.028 C 
ATOM     28  C2  UNL     1       7.577   6.425  29.477  0.00  0.00    +0.070 C 
ATOM     29  C3  UNL     1       6.488   5.552  30.111  0.00  0.00    +0.028 C 
ENDBRANCH  23  28
ENDBRANCH  17  25
ENDBRANCH   1  20
TORSDOF 5
ENDMDL
MODEL 8
REMARK VINA RESULT:    -6.067      3.249      8.709
REMARK INTER + INTRA:          -8.837
REMARK INTER:                  -7.775
REMARK INTRA:                  -1.062
REMARK UNBOUND:                -0.996
REMARK  Name = /home/qwerty/github/datacon2025hack/step_04_hit_selection/docking/ligands/lig_326.pdb
REMARK  8 active torsions:
REMARK  status: ('A' for Active; 'I' for Inactive)
REMARK    1  A    between atoms: C1_1  and  C2_2
REMARK    2  A    between atoms: C2_2  and  C3_3
REMARK    3  A    between atoms: C2_2  and  N1_4
REMARK    4  A    between atoms: N1_4  and  C4_5
REMARK    5  A    between atoms: C5_6  and  C6_8
REMARK    6  A    between atoms: C9_11  and  N2_12
REMARK    7  A    between atoms: N2_12  and  C10_13
REMARK    8  A    between atoms: C15_19  and  N3_20
REMARK                            x       y       z     vdW  Elec       q    Type
REMARK                         _______ _______ _______ _____ _____    ______ ____
ROOT
ATOM      1  N2  UNL     1       7.775  10.611  26.334  0.00  0.00    -0.313 N 
ATOM      2  H13 UNL     1       7.351  11.567  26.355  0.00  0.00    +0.152 HD
ENDROOT
BRANCH   1   3
ATOM      3  C10 UNL     1       7.848   9.884  27.572  0.00  0.00    +0.055 A 
ATOM      4  C11 UNL     1       7.366   8.565  27.645  0.00  0.00    +0.063 A 
ATOM      5  C12 UNL     1       7.372   7.876  28.860  0.00  0.00    +0.125 A 
ATOM      6  F1  UNL     1       6.906   6.605  28.920  0.00  0.00    -0.205 F 
ATOM      7  C13 UNL     1       7.845   8.500  30.015  0.00  0.00    +0.040 A 
ATOM      8  C14 UNL     1       8.316   9.813  29.959  0.00  0.00    +0.028 A 
ATOM      9  C15 UNL     1       8.323  10.514  28.743  0.00  0.00    +0.051 A 
BRANCH   9  10
ATOM     10  N3  UNL     1       8.850  11.851  28.701  0.00  0.00    -0.326 N 
ATOM     11  C16 UNL     1      10.301  12.046  28.609  0.00  0.00    +0.120 C 
ATOM     12  C17 UNL     1      10.636  13.527  28.442  0.00  0.00    +0.100 C 
ATOM     13  N4  UNL     1       9.726  14.110  27.454  0.00  0.00    -0.313 NA
ATOM     14  C18 UNL     1       8.336  14.168  27.945  0.00  0.00    +0.100 C 
ATOM     15  C19 UNL     1       7.959  13.004  28.889  0.00  0.00    +0.120 C 
ATOM     16  H21 UNL     1      10.044  15.088  27.253  0.00  0.00    +0.122 HD
ENDBRANCH   9  10
ENDBRANCH   1   3
BRANCH   1  20
ATOM     17  C6  UNL     1       9.181   9.045  22.633  0.00  0.00    +0.037 A 
ATOM     18  C7  UNL     1       9.995   9.026  23.777  0.00  0.00    +0.015 A 
ATOM     19  C8  UNL     1       9.527   9.548  24.988  0.00  0.00    +0.024 A 
ATOM     20  C9  UNL     1       8.241  10.100  25.074  0.00  0.00    +0.031 A 
ATOM     21  C20 UNL     1       7.412  10.085  23.938  0.00  0.00    +0.024 A 
ATOM     22  C21 UNL     1       7.880   9.564  22.729  0.00  0.00    +0.015 A 
BRANCH  17  25
ATOM     23  N1  UNL     1       9.904   7.069  21.203  0.00  0.00    -0.298 N 
ATOM     24  C4  UNL     1       8.836   6.139  21.594  0.00  0.00    +0.132 C 
ATOM     25  C5  UNL     1       9.676   8.482  21.357  0.00  0.00    +0.247 C 
ATOM     26  O1  UNL     1       9.901   9.256  20.387  0.00  0.00    -0.270 OA
BRANCH  23  28
ATOM     27  C1  UNL     1      12.381   6.923  21.223  0.00  0.00    +0.028 C 
ATOM     28  C2  UNL     1      11.091   6.609  20.457  0.00  0.00    +0.070 C 
ATOM     29  C3  UNL     1      10.984   5.116  20.123  0.00  0.00    +0.028 C 
ENDBRANCH  23  28
ENDBRANCH  17  25
ENDBRANCH   1  20
TORSDOF 5
ENDMDL
MODEL 9
REMARK VINA RESULT:    -5.951     11.584     14.589
REMARK INTER + INTRA:          -8.686
REMARK INTER:                  -7.834
REMARK INTRA:                  -0.853
REMARK UNBOUND:                -0.996
REMARK  Name = /home/qwerty/github/datacon2025hack/step_04_hit_selection/docking/ligands/lig_326.pdb
REMARK  8 active torsions:
REMARK  status: ('A' for Active; 'I' for Inactive)
REMARK    1  A    between atoms: C1_1  and  C2_2
REMARK    2  A    between atoms: C2_2  and  C3_3
REMARK    3  A    between atoms: C2_2  and  N1_4
REMARK    4  A    between atoms: N1_4  and  C4_5
REMARK    5  A    between atoms: C5_6  and  C6_8
REMARK    6  A    between atoms: C9_11  and  N2_12
REMARK    7  A    between atoms: N2_12  and  C10_13
REMARK    8  A    between atoms: C15_19  and  N3_20
REMARK                            x       y       z     vdW  Elec       q    Type
REMARK                         _______ _______ _______ _____ _____    ______ ____
ROOT
ATOM      1  N2  UNL     1      20.990   0.672  26.767  0.00  0.00    -0.313 N 
ATOM      2  H13 UNL     1      21.753   0.030  26.456  0.00  0.00    +0.152 HD
ENDROOT
BRANCH   1   3
ATOM      3  C10 UNL     1      21.156   1.354  28.022  0.00  0.00    +0.055 A 
ATOM      4  C11 UNL     1      21.069   0.639  29.229  0.00  0.00    +0.063 A 
ATOM      5  C12 UNL     1      21.161   1.304  30.454  0.00  0.00    +0.125 A 
ATOM      6  F1  UNL     1      21.078   0.607  31.612  0.00  0.00    -0.205 F 
ATOM      7  C13 UNL     1      21.326   2.690  30.485  0.00  0.00    +0.040 A 
ATOM      8  C14 UNL     1      21.402   3.414  29.293  0.00  0.00    +0.028 A 
ATOM      9  C15 UNL     1      21.318   2.756  28.056  0.00  0.00    +0.051 A 
BRANCH   9  10
ATOM     10  N3  UNL     1      21.440   3.516  26.842  0.00  0.00    -0.326 N 
ATOM     11  C16 UNL     1      20.302   4.321  26.384  0.00  0.00    +0.120 C 
ATOM     12  C17 UNL     1      20.686   5.149  25.159  0.00  0.00    +0.100 C 
ATOM     13  N4  UNL     1      22.002   5.751  25.387  0.00  0.00    -0.313 NA
ATOM     14  C18 UNL     1      23.077   4.741  25.420  0.00  0.00    +0.100 C 
ATOM     15  C19 UNL     1      22.635   3.379  26.000  0.00  0.00    +0.120 C 
ATOM     16  H21 UNL     1      22.198   6.415  24.601  0.00  0.00    +0.122 HD
ENDBRANCH   9  10
ENDBRANCH   1   3
BRANCH   1  20
ATOM     17  C6  UNL     1      17.564   1.174  24.288  0.00  0.00    +0.037 A 
ATOM     18  C7  UNL     1      17.426   0.866  25.650  0.00  0.00    +0.015 A 
ATOM     19  C8  UNL     1      18.557   0.697  26.456  0.00  0.00    +0.024 A 
ATOM     20  C9  UNL     1      19.842   0.830  25.914  0.00  0.00    +0.031 A 
ATOM     21  C20 UNL     1      19.981   1.177  24.558  0.00  0.00    +0.024 A 
ATOM     22  C21 UNL     1      18.851   1.345  23.753  0.00  0.00    +0.015 A 
BRANCH  17  25
ATOM     23  N1  UNL     1      16.290   0.801  22.117  0.00  0.00    -0.298 N 
ATOM     24  C4  UNL     1      16.612  -0.622  21.940  0.00  0.00    +0.132 C 
ATOM     25  C5  UNL     1      16.365   1.363  23.441  0.00  0.00    +0.247 C 
ATOM     26  O1  UNL     1      15.392   2.028  23.888  0.00  0.00    -0.270 OA
BRANCH  23  28
ATOM     27  C1  UNL     1      16.602   2.744  20.605  0.00  0.00    +0.028 C 
ATOM     28  C2  UNL     1      15.681   1.595  21.032  0.00  0.00    +0.070 C 
ATOM     29  C3  UNL     1      15.306   0.702  19.843  0.00  0.00    +0.028 C 
ENDBRANCH  23  28
ENDBRANCH  17  25
ENDBRANCH   1  20
TORSDOF 5
ENDMDL
