MODEL 1
REMARK VINA RESULT:    -5.992      0.000      0.000
REMARK INTER + INTRA:          -8.758
REMARK INTER:                  -8.093
REMARK INTRA:                  -0.665
REMARK UNBOUND:                -0.665
REMARK  Name = /home/qwerty/github/datacon2025hack/step_04_hit_selection/docking/ligands/lig_564.pdb
REMARK  8 active torsions:
REMARK  status: ('A' for Active; 'I' for Inactive)
REMARK    1  A    between atoms: C1_1  and  C2_2
REMARK    2  A    between atoms: C2_2  and  C3_3
REMARK    3  A    between atoms: C2_2  and  N2_9
REMARK    4  A    between atoms: N1_5  and  C4_6
REMARK    5  A    between atoms: C9_12  and  N3_13
REMARK    6  A    between atoms: N3_13  and  C10_14
REMARK    7  A    between atoms: C11_15  and  C12_17
REMARK    8  A    between atoms: C12_17  and  C13_18
REMARK                            x       y       z     vdW  Elec       q    Type
REMARK                         _______ _______ _______ _____ _____    ______ ____
ROOT
ATOM      1  N2  UNL     1      20.363   1.232  29.453  0.00  0.00    -0.292 NA
ATOM      2  C7  UNL     1      20.241   0.686  30.827  0.00  0.00    +0.087 C 
ATOM      3  C8  UNL     1      20.805   1.643  31.889  0.00  0.00    +0.038 C 
ATOM      4  C9  UNL     1      20.110   3.013  31.795  0.00  0.00    +0.078 C 
ATOM      5  C17 UNL     1      20.136   3.569  30.359  0.00  0.00    +0.038 C 
ATOM      6  C18 UNL     1      19.625   2.518  29.358  0.00  0.00    +0.087 C 
ENDROOT
BRANCH   4   7
ATOM      7  N3  UNL     1      20.678   3.977  32.764  0.00  0.00    -0.301 N 
ATOM      8  C10 UNL     1      19.808   4.525  33.813  0.00  0.00    +0.132 C 
ATOM      9  C11 UNL     1      22.061   4.400  32.700  0.00  0.00    +0.216 C 
ATOM     10  O2  UNL     1      22.930   3.640  32.187  0.00  0.00    -0.276 OA
BRANCH   9  11
ATOM     11  C12 UNL     1      22.501   5.720  33.290  0.00  0.00    +0.108 C 
BRANCH  11  12
ATOM     12  C13 UNL     1      23.550   6.441  32.419  0.00  0.00    +0.085 C 
ATOM     13  C14 UNL     1      23.159   7.905  32.098  0.00  0.00    +0.032 C 
ATOM     14  C15 UNL     1      24.146   8.818  32.852  0.00  0.00    +0.105 C 
ATOM     15  N4  UNL     1      25.177   7.948  33.379  0.00  0.00    -0.315 N 
ATOM     16  C16 UNL     1      24.826   6.599  33.156  0.00  0.00    +0.217 C 
ATOM     17  O3  UNL     1      25.538   5.636  33.550  0.00  0.00    -0.276 OA
ATOM     18  H26 UNL     1      26.007   8.266  33.927  0.00  0.00    +0.149 HD
ENDBRANCH  11  12
ENDBRANCH   9  11
ENDBRANCH   4   7
BRANCH   1  20
ATOM     19  C1  UNL     1      22.502  -0.035  29.026  0.00  0.00    +0.034 C 
ATOM     20  C2  UNL     1      21.761   1.312  28.932  0.00  0.00    +0.140 C 
BRANCH  20  21
ATOM     21  C3  UNL     1      21.764   1.735  27.483  0.00  0.00    +0.230 C 
ATOM     22  O1  UNL     1      21.097   1.074  26.642  0.00  0.00    -0.274 OA
ATOM     23  N1  UNL     1      22.498   2.894  27.067  0.00  0.00    -0.311 N 
ATOM     24  H5  UNL     1      22.978   3.481  27.786  0.00  0.00    +0.149 HD
BRANCH  23  25
ATOM     25  C4  UNL     1      22.510   3.332  25.673  0.00  0.00    +0.073 C 
ATOM     26  C5  UNL     1      21.558   4.479  25.380  0.00  0.00    +0.024 C 
ATOM     27  C6  UNL     1      23.051   4.741  25.491  0.00  0.00    +0.024 C 
ENDBRANCH  23  25
ENDBRANCH  20  21
ENDBRANCH   1  20
TORSDOF 6
ENDMDL
MODEL 2
REMARK VINA RESULT:    -5.920      4.535      9.545
REMARK INTER + INTRA:          -8.661
REMARK INTER:                  -7.870
REMARK INTRA:                  -0.791
REMARK UNBOUND:                -0.665
REMARK  Name = /home/qwerty/github/datacon2025hack/step_04_hit_selection/docking/ligands/lig_564.pdb
REMARK  8 active torsions:
REMARK  status: ('A' for Active; 'I' for Inactive)
REMARK    1  A    between atoms: C1_1  and  C2_2
REMARK    2  A    between atoms: C2_2  and  C3_3
REMARK    3  A    between atoms: C2_2  and  N2_9
REMARK    4  A    between atoms: N1_5  and  C4_6
REMARK    5  A    between atoms: C9_12  and  N3_13
REMARK    6  A    between atoms: N3_13  and  C10_14
REMARK    7  A    between atoms: C11_15  and  C12_17
REMARK    8  A    between atoms: C12_17  and  C13_18
REMARK                            x       y       z     vdW  Elec       q    Type
REMARK                         _______ _______ _______ _____ _____    ______ ____
ROOT
ATOM      1  N2  UNL     1      21.829   2.639  28.519  0.00  0.00    -0.292 NA
ATOM      2  C7  UNL     1      22.229   2.769  27.096  0.00  0.00    +0.087 C 
ATOM      3  C8  UNL     1      21.387   1.881  26.168  0.00  0.00    +0.038 C 
ATOM      4  C9  UNL     1      19.891   2.204  26.334  0.00  0.00    +0.078 C 
ATOM      5  C17 UNL     1      19.460   2.169  27.812  0.00  0.00    +0.038 C 
ATOM      6  C18 UNL     1      20.403   3.025  28.675  0.00  0.00    +0.087 C 
ENDROOT
BRANCH   4   7
ATOM      7  N3  UNL     1      19.049   1.319  25.498  0.00  0.00    -0.301 N 
ATOM      8  C10 UNL     1      19.476  -0.068  25.277  0.00  0.00    +0.132 C 
ATOM      9  C11 UNL     1      17.824   1.788  24.885  0.00  0.00    +0.216 C 
ATOM     10  O2  UNL     1      17.178   2.738  25.410  0.00  0.00    -0.276 OA
BRANCH   9  11
ATOM     11  C12 UNL     1      17.264   1.121  23.650  0.00  0.00    +0.108 C 
BRANCH  11  12
ATOM     12  C13 UNL     1      16.154   0.101  23.974  0.00  0.00    +0.085 C 
ATOM     13  C14 UNL     1      14.731   0.678  23.766  0.00  0.00    +0.032 C 
ATOM     14  C15 UNL     1      14.114  -0.052  22.556  0.00  0.00    +0.105 C 
ATOM     15  N4  UNL     1      15.020  -1.135  22.235  0.00  0.00    -0.315 N 
ATOM     16  C16 UNL     1      16.187  -1.034  23.021  0.00  0.00    +0.217 C 
ATOM     17  O3  UNL     1      17.154  -1.836  22.911  0.00  0.00    -0.276 OA
ATOM     18  H26 UNL     1      14.874  -1.831  21.470  0.00  0.00    +0.149 HD
ENDBRANCH  11  12
ENDBRANCH   9  11
ENDBRANCH   4   7
BRANCH   1  20
ATOM     19  C1  UNL     1      23.671   1.036  29.153  0.00  0.00    +0.034 C 
ATOM     20  C2  UNL     1      22.158   1.322  29.144  0.00  0.00    +0.140 C 
BRANCH  20  21
ATOM     21  C3  UNL     1      21.676   1.278  30.575  0.00  0.00    +0.230 C 
ATOM     22  O1  UNL     1      22.138   2.101  31.411  0.00  0.00    -0.274 OA
ATOM     23  N1  UNL     1      20.681   0.328  30.977  0.00  0.00    -0.311 N 
ATOM     24  H5  UNL     1      20.245  -0.292  30.257  0.00  0.00    +0.149 HD
BRANCH  23  25
ATOM     25  C4  UNL     1      20.190   0.271  32.351  0.00  0.00    +0.073 C 
ATOM     26  C5  UNL     1      19.019   1.199  32.626  0.00  0.00    +0.024 C 
ATOM     27  C6  UNL     1      18.783  -0.294  32.463  0.00  0.00    +0.024 C 
ENDBRANCH  23  25
ENDBRANCH  20  21
ENDBRANCH   1  20
TORSDOF 6
ENDMDL
MODEL 3
REMARK VINA RESULT:    -5.894     10.612     14.016
REMARK INTER + INTRA:          -8.626
REMARK INTER:                  -7.734
REMARK INTRA:                  -0.892
REMARK UNBOUND:                -0.665
REMARK  Name = /home/qwerty/github/datacon2025hack/step_04_hit_selection/docking/ligands/lig_564.pdb
REMARK  8 active torsions:
REMARK  status: ('A' for Active; 'I' for Inactive)
REMARK    1  A    between atoms: C1_1  and  C2_2
REMARK    2  A    between atoms: C2_2  and  C3_3
REMARK    3  A    between atoms: C2_2  and  N2_9
REMARK    4  A    between atoms: N1_5  and  C4_6
REMARK    5  A    between atoms: C9_12  and  N3_13
REMARK    6  A    between atoms: N3_13  and  C10_14
REMARK    7  A    between atoms: C11_15  and  C12_17
REMARK    8  A    between atoms: C12_17  and  C13_18
REMARK                            x       y       z     vdW  Elec       q    Type
REMARK                         _______ _______ _______ _____ _____    ______ ____
ROOT
ATOM      1  N2  UNL     1      16.369   1.227  21.486  0.00  0.00    -0.292 NA
ATOM      2  C7  UNL     1      16.003   2.148  20.382  0.00  0.00    +0.087 C 
ATOM      3  C8  UNL     1      14.485   2.357  20.274  0.00  0.00    +0.038 C 
ATOM      4  C9  UNL     1      13.921   2.874  21.609  0.00  0.00    +0.078 C 
ATOM      5  C17 UNL     1      14.358   1.992  22.794  0.00  0.00    +0.038 C 
ATOM      6  C18 UNL     1      15.882   1.776  22.778  0.00  0.00    +0.087 C 
ENDROOT
BRANCH   4   7
ATOM      7  N3  UNL     1      12.449   3.024  21.555  0.00  0.00    -0.301 N 
ATOM      8  C10 UNL     1      11.605   1.848  21.797  0.00  0.00    +0.132 C 
ATOM      9  C11 UNL     1      11.822   4.295  21.260  0.00  0.00    +0.216 C 
ATOM     10  O2  UNL     1      12.422   5.373  21.530  0.00  0.00    -0.276 OA
BRANCH   9  11
ATOM     11  C12 UNL     1      10.427   4.362  20.683  0.00  0.00    +0.108 C 
BRANCH  11  12
ATOM     12  C13 UNL     1       9.427   5.067  21.621  0.00  0.00    +0.085 C 
ATOM     13  C14 UNL     1       8.525   6.085  20.880  0.00  0.00    +0.032 C 
ATOM     14  C15 UNL     1       7.092   5.516  20.885  0.00  0.00    +0.105 C 
ATOM     15  N4  UNL     1       7.118   4.369  21.769  0.00  0.00    -0.315 N 
ATOM     16  C16 UNL     1       8.444   4.099  22.165  0.00  0.00    +0.217 C 
ATOM     17  O3  UNL     1       8.748   3.127  22.909  0.00  0.00    -0.276 OA
ATOM     18  H26 UNL     1       6.292   3.773  22.001  0.00  0.00    +0.149 HD
ENDBRANCH  11  12
ENDBRANCH   9  11
ENDBRANCH   4   7
BRANCH   1  20
ATOM     19  C1  UNL     1      16.629  -0.796  20.002  0.00  0.00    +0.034 C 
ATOM     20  C2  UNL     1      15.982  -0.200  21.266  0.00  0.00    +0.140 C 
BRANCH  20  21
ATOM     21  C3  UNL     1      16.404  -1.051  22.440  0.00  0.00    +0.230 C 
ATOM     22  O1  UNL     1      17.627  -1.148  22.729  0.00  0.00    -0.274 OA
ATOM     23  N1  UNL     1      15.421  -1.722  23.239  0.00  0.00    -0.311 N 
ATOM     24  H5  UNL     1      14.407  -1.566  23.041  0.00  0.00    +0.149 HD
BRANCH  23  25
ATOM     25  C4  UNL     1      15.801  -2.543  24.386  0.00  0.00    +0.073 C 
ATOM     26  C5  UNL     1      15.682  -1.828  25.721  0.00  0.00    +0.024 C 
ATOM     27  C6  UNL     1      14.636  -2.853  25.314  0.00  0.00    +0.024 C 
ENDBRANCH  23  25
ENDBRANCH  20  21
ENDBRANCH   1  20
TORSDOF 6
ENDMDL
MODEL 4
REMARK VINA RESULT:    -5.828     14.349     16.720
REMARK INTER + INTRA:          -8.538
REMARK INTER:                  -7.866
REMARK INTRA:                  -0.672
REMARK UNBOUND:                -0.665
REMARK  Name = /home/qwerty/github/datacon2025hack/step_04_hit_selection/docking/ligands/lig_564.pdb
REMARK  8 active torsions:
REMARK  status: ('A' for Active; 'I' for Inactive)
REMARK    1  A    between atoms: C1_1  and  C2_2
REMARK    2  A    between atoms: C2_2  and  C3_3
REMARK    3  A    between atoms: C2_2  and  N2_9
REMARK    4  A    between atoms: N1_5  and  C4_6
REMARK    5  A    between atoms: C9_12  and  N3_13
REMARK    6  A    between atoms: N3_13  and  C10_14
REMARK    7  A    between atoms: C11_15  and  C12_17
REMARK    8  A    between atoms: C12_17  and  C13_18
REMARK                            x       y       z     vdW  Elec       q    Type
REMARK                         _______ _______ _______ _____ _____    ______ ____
ROOT
ATOM      1  N2  UNL     1       9.005  11.326  29.679  0.00  0.00    -0.292 NA
ATOM      2  C7  UNL     1       7.838  10.410  29.665  0.00  0.00    +0.087 C 
ATOM      3  C8  UNL     1       7.534   9.872  28.258  0.00  0.00    +0.038 C 
ATOM      4  C9  UNL     1       8.773   9.168  27.678  0.00  0.00    +0.078 C 
ATOM      5  C17 UNL     1      10.027  10.057  27.761  0.00  0.00    +0.038 C 
ATOM      6  C18 UNL     1      10.209  10.609  29.186  0.00  0.00    +0.087 C 
ENDROOT
BRANCH   4   7
ATOM      7  N3  UNL     1       8.531   8.694  26.296  0.00  0.00    -0.301 N 
ATOM      8  C10 UNL     1       8.483   7.249  26.039  0.00  0.00    +0.132 C 
ATOM      9  C11 UNL     1       8.351   9.615  25.194  0.00  0.00    +0.216 C 
ATOM     10  O2  UNL     1       7.900  10.775  25.408  0.00  0.00    -0.276 OA
BRANCH   9  11
ATOM     11  C12 UNL     1       8.640   9.195  23.771  0.00  0.00    +0.108 C 
BRANCH  11  12
ATOM     12  C13 UNL     1       9.241  10.334  22.924  0.00  0.00    +0.085 C 
ATOM     13  C14 UNL     1      10.406   9.860  22.021  0.00  0.00    +0.032 C 
ATOM     14  C15 UNL     1       9.917   9.944  20.561  0.00  0.00    +0.105 C 
ATOM     15  N4  UNL     1       8.648  10.639  20.602  0.00  0.00    -0.315 N 
ATOM     16  C16 UNL     1       8.252  10.838  21.942  0.00  0.00    +0.217 C 
ATOM     17  O3  UNL     1       7.163  11.391  22.256  0.00  0.00    -0.276 OA
ATOM     18  H26 UNL     1       8.065  10.873  19.767  0.00  0.00    +0.149 HD
ENDBRANCH  11  12
ENDBRANCH   9  11
ENDBRANCH   4   7
BRANCH   1  20
ATOM     19  C1  UNL     1       7.575  13.402  29.588  0.00  0.00    +0.034 C 
ATOM     20  C2  UNL     1       8.779  12.640  29.004  0.00  0.00    +0.140 C 
BRANCH  20  21
ATOM     21  C3  UNL     1       9.994  13.525  29.146  0.00  0.00    +0.230 C 
ATOM     22  O1  UNL     1      10.445  13.780  30.296  0.00  0.00    -0.274 OA
ATOM     23  N1  UNL     1      10.647  14.053  27.985  0.00  0.00    -0.311 N 
ATOM     24  H5  UNL     1      10.315  13.767  27.037  0.00  0.00    +0.149 HD
BRANCH  23  25
ATOM     25  C4  UNL     1      11.830  14.904  28.094  0.00  0.00    +0.073 C 
ATOM     26  C5  UNL     1      13.142  14.139  28.080  0.00  0.00    +0.024 C 
ATOM     27  C6  UNL     1      12.692  14.896  26.841  0.00  0.00    +0.024 C 
ENDBRANCH  23  25
ENDBRANCH  20  21
ENDBRANCH   1  20
TORSDOF 6
ENDMDL
MODEL 5
REMARK VINA RESULT:    -5.822     13.059     14.517
REMARK INTER + INTRA:          -8.528
REMARK INTER:                  -7.685
REMARK INTRA:                  -0.844
REMARK UNBOUND:                -0.665
REMARK  Name = /home/qwerty/github/datacon2025hack/step_04_hit_selection/docking/ligands/lig_564.pdb
REMARK  8 active torsions:
REMARK  status: ('A' for Active; 'I' for Inactive)
REMARK    1  A    between atoms: C1_1  and  C2_2
REMARK    2  A    between atoms: C2_2  and  C3_3
REMARK    3  A    between atoms: C2_2  and  N2_9
REMARK    4  A    between atoms: N1_5  and  C4_6
REMARK    5  A    between atoms: C9_12  and  N3_13
REMARK    6  A    between atoms: N3_13  and  C10_14
REMARK    7  A    between atoms: C11_15  and  C12_17
REMARK    8  A    between atoms: C12_17  and  C13_18
REMARK                            x       y       z     vdW  Elec       q    Type
REMARK                         _______ _______ _______ _____ _____    ______ ____
ROOT
ATOM      1  N2  UNL     1      10.218  12.576  28.129  0.00  0.00    -0.292 NA
ATOM      2  C7  UNL     1      11.038  13.807  28.250  0.00  0.00    +0.087 C 
ATOM      3  C8  UNL     1      11.341  14.166  29.712  0.00  0.00    +0.038 C 
ATOM      4  C9  UNL     1      12.038  12.988  30.417  0.00  0.00    +0.078 C 
ATOM      5  C17 UNL     1      11.260  11.672  30.234  0.00  0.00    +0.038 C 
ATOM      6  C18 UNL     1      10.936  11.433  28.748  0.00  0.00    +0.087 C 
ENDROOT
BRANCH   4   7
ATOM      7  N3  UNL     1      12.286  13.281  31.847  0.00  0.00    -0.301 N 
ATOM      8  C10 UNL     1      11.258  13.994  32.615  0.00  0.00    +0.132 C 
ATOM      9  C11 UNL     1      13.516  12.893  32.503  0.00  0.00    +0.216 C 
ATOM     10  O2  UNL     1      14.174  11.903  32.077  0.00  0.00    -0.276 OA
BRANCH   9  11
ATOM     11  C12 UNL     1      14.007  13.621  33.734  0.00  0.00    +0.108 C 
BRANCH  11  12
ATOM     12  C13 UNL     1      14.013  12.728  34.991  0.00  0.00    +0.085 C 
ATOM     13  C14 UNL     1      15.439  12.468  35.535  0.00  0.00    +0.032 C 
ATOM     14  C15 UNL     1      15.556  13.205  36.884  0.00  0.00    +0.105 C 
ATOM     15  N4  UNL     1      14.221  13.662  37.210  0.00  0.00    -0.315 N 
ATOM     16  C16 UNL     1      13.352  13.414  36.127  0.00  0.00    +0.217 C 
ATOM     17  O3  UNL     1      12.136  13.749  36.139  0.00  0.00    -0.276 OA
ATOM     18  H26 UNL     1      13.961  14.183  38.077  0.00  0.00    +0.149 HD
ENDBRANCH  11  12
ENDBRANCH   9  11
ENDBRANCH   4   7
BRANCH   1  20
ATOM     19  C1  UNL     1       8.021  13.772  27.802  0.00  0.00    +0.034 C 
ATOM     20  C2  UNL     1       8.807  12.715  28.600  0.00  0.00    +0.140 C 
BRANCH  20  21
ATOM     21  C3  UNL     1       8.072  11.402  28.469  0.00  0.00    +0.230 C 
ATOM     22  O1  UNL     1       7.949  10.871  27.332  0.00  0.00    -0.274 OA
ATOM     23  N1  UNL     1       7.540  10.750  29.629  0.00  0.00    -0.311 N 
ATOM     24  H5  UNL     1       7.721  11.157  30.573  0.00  0.00    +0.149 HD
BRANCH  23  25
ATOM     25  C4  UNL     1       6.834   9.474  29.531  0.00  0.00    +0.073 C 
ATOM     26  C5  UNL     1       7.752   8.266  29.462  0.00  0.00    +0.024 C 
ATOM     27  C6  UNL     1       7.019   8.591  30.754  0.00  0.00    +0.024 C 
ENDBRANCH  23  25
ENDBRANCH  20  21
ENDBRANCH   1  20
TORSDOF 6
ENDMDL
MODEL 6
REMARK VINA RESULT:    -5.757     13.919     16.497
REMARK INTER + INTRA:          -8.441
REMARK INTER:                  -7.664
REMARK INTRA:                  -0.778
REMARK UNBOUND:                -0.665
REMARK  Name = /home/qwerty/github/datacon2025hack/step_04_hit_selection/docking/ligands/lig_564.pdb
REMARK  8 active torsions:
REMARK  status: ('A' for Active; 'I' for Inactive)
REMARK    1  A    between atoms: C1_1  and  C2_2
REMARK    2  A    between atoms: C2_2  and  C3_3
REMARK    3  A    between atoms: C2_2  and  N2_9
REMARK    4  A    between atoms: N1_5  and  C4_6
REMARK    5  A    between atoms: C9_12  and  N3_13
REMARK    6  A    between atoms: N3_13  and  C10_14
REMARK    7  A    between atoms: C11_15  and  C12_17
REMARK    8  A    between atoms: C12_17  and  C13_18
REMARK                            x       y       z     vdW  Elec       q    Type
REMARK                         _______ _______ _______ _____ _____    ______ ____
ROOT
ATOM      1  N2  UNL     1       9.284  11.373  29.027  0.00  0.00    -0.292 NA
ATOM      2  C7  UNL     1       8.162  10.411  28.896  0.00  0.00    +0.087 C 
ATOM      3  C8  UNL     1       7.854  10.068  27.431  0.00  0.00    +0.038 C 
ATOM      4  C9  UNL     1       9.113   9.518  26.736  0.00  0.00    +0.078 C 
ATOM      5  C17 UNL     1      10.325  10.448  26.930  0.00  0.00    +0.038 C 
ATOM      6  C18 UNL     1      10.510  10.798  28.418  0.00  0.00    +0.087 C 
ENDROOT
BRANCH   4   7
ATOM      7  N3  UNL     1       8.864   9.238  25.304  0.00  0.00    -0.301 N 
ATOM      8  C10 UNL     1       7.870  10.043  24.584  0.00  0.00    +0.132 C 
ATOM      9  C11 UNL     1       9.565   8.185  24.599  0.00  0.00    +0.216 C 
ATOM     10  O2  UNL     1      10.712   7.823  24.985  0.00  0.00    -0.276 OA
BRANCH   9  11
ATOM     11  C12 UNL     1       8.973   7.544  23.365  0.00  0.00    +0.108 C 
BRANCH  11  12
ATOM     12  C13 UNL     1       9.979   7.454  22.200  0.00  0.00    +0.085 C 
ATOM     13  C14 UNL     1      10.335   5.994  21.826  0.00  0.00    +0.032 C 
ATOM     14  C15 UNL     1       9.730   5.717  20.435  0.00  0.00    +0.105 C 
ATOM     15  N4  UNL     1       9.262   6.994  19.939  0.00  0.00    -0.315 N 
ATOM     16  C16 UNL     1       9.380   7.973  20.947  0.00  0.00    +0.217 C 
ATOM     17  O3  UNL     1       9.007   9.167  20.785  0.00  0.00    -0.276 OA
ATOM     18  H26 UNL     1       8.815   7.147  19.007  0.00  0.00    +0.149 HD
ENDBRANCH  11  12
ENDBRANCH   9  11
ENDBRANCH   4   7
BRANCH   1  20
ATOM     19  C1  UNL     1       7.807  13.397  29.317  0.00  0.00    +0.034 C 
ATOM     20  C2  UNL     1       8.981  12.758  28.553  0.00  0.00    +0.140 C 
BRANCH  20  21
ATOM     21  C3  UNL     1      10.183  13.654  28.729  0.00  0.00    +0.230 C 
ATOM     22  O1  UNL     1      10.624  13.881  29.888  0.00  0.00    -0.274 OA
ATOM     23  N1  UNL     1      10.837  14.223  27.588  0.00  0.00    -0.311 N 
ATOM     24  H5  UNL     1      10.514  13.961  26.629  0.00  0.00    +0.149 HD
BRANCH  23  25
ATOM     25  C4  UNL     1      12.008  15.085  27.729  0.00  0.00    +0.073 C 
ATOM     26  C5  UNL     1      13.322  14.328  27.828  0.00  0.00    +0.024 C 
ATOM     27  C6  UNL     1      12.944  15.027  26.532  0.00  0.00    +0.024 C 
ENDBRANCH  23  25
ENDBRANCH  20  21
ENDBRANCH   1  20
TORSDOF 6
ENDMDL
MODEL 7
REMARK VINA RESULT:    -5.730      6.770     10.384
REMARK INTER + INTRA:          -8.405
REMARK INTER:                  -7.412
REMARK INTRA:                  -0.993
REMARK UNBOUND:                -0.665
REMARK  Name = /home/qwerty/github/datacon2025hack/step_04_hit_selection/docking/ligands/lig_564.pdb
REMARK  8 active torsions:
REMARK  status: ('A' for Active; 'I' for Inactive)
REMARK    1  A    between atoms: C1_1  and  C2_2
REMARK    2  A    between atoms: C2_2  and  C3_3
REMARK    3  A    between atoms: C2_2  and  N2_9
REMARK    4  A    between atoms: N1_5  and  C4_6
REMARK    5  A    between atoms: C9_12  and  N3_13
REMARK    6  A    between atoms: N3_13  and  C10_14
REMARK    7  A    between atoms: C11_15  and  C12_17
REMARK    8  A    between atoms: C12_17  and  C13_18
REMARK                            x       y       z     vdW  Elec       q    Type
REMARK                         _______ _______ _______ _____ _____    ______ ____
ROOT
ATOM      1  N2  UNL     1      16.394   8.926  37.482  0.00  0.00    -0.292 NA
ATOM      2  C7  UNL     1      17.002   7.580  37.343  0.00  0.00    +0.087 C 
ATOM      3  C8  UNL     1      18.387   7.629  36.681  0.00  0.00    +0.038 C 
ATOM      4  C9  UNL     1      19.324   8.559  37.472  0.00  0.00    +0.078 C 
ATOM      5  C17 UNL     1      18.686   9.939  37.716  0.00  0.00    +0.038 C 
ATOM      6  C18 UNL     1      17.274   9.789  38.311  0.00  0.00    +0.087 C 
ENDROOT
BRANCH   4   7
ATOM      7  N3  UNL     1      20.648   8.677  36.821  0.00  0.00    -0.301 N 
ATOM      8  C10 UNL     1      20.906   9.820  35.937  0.00  0.00    +0.132 C 
ATOM      9  C11 UNL     1      21.689   7.691  37.024  0.00  0.00    +0.216 C 
ATOM     10  O2  UNL     1      21.717   7.013  38.089  0.00  0.00    -0.276 OA
BRANCH   9  11
ATOM     11  C12 UNL     1      22.786   7.494  36.004  0.00  0.00    +0.108 C 
BRANCH  11  12
ATOM     12  C13 UNL     1      22.717   6.118  35.312  0.00  0.00    +0.085 C 
ATOM     13  C14 UNL     1      21.339   5.844  34.659  0.00  0.00    +0.032 C 
ATOM     14  C15 UNL     1      21.548   5.847  33.132  0.00  0.00    +0.105 C 
ATOM     15  N4  UNL     1      22.980   5.884  32.922  0.00  0.00    -0.315 N 
ATOM     16  C16 UNL     1      23.641   6.063  34.155  0.00  0.00    +0.217 C 
ATOM     17  O3  UNL     1      24.895   6.164  34.248  0.00  0.00    -0.276 OA
ATOM     18  H26 UNL     1      23.449   5.876  31.988  0.00  0.00    +0.149 HD
ENDBRANCH  11  12
ENDBRANCH   9  11
ENDBRANCH   4   7
BRANCH   1  20
ATOM     19  C1  UNL     1      15.313   8.564  35.232  0.00  0.00    +0.034 C 
ATOM     20  C2  UNL     1      15.981   9.563  36.195  0.00  0.00    +0.140 C 
BRANCH  20  21
ATOM     21  C3  UNL     1      14.998  10.681  36.448  0.00  0.00    +0.230 C 
ATOM     22  O1  UNL     1      15.333  11.870  36.200  0.00  0.00    -0.274 OA
ATOM     23  N1  UNL     1      13.683  10.393  36.942  0.00  0.00    -0.311 N 
ATOM     24  H5  UNL     1      13.389   9.398  37.064  0.00  0.00    +0.149 HD
BRANCH  23  25
ATOM     25  C4  UNL     1      12.709  11.455  37.185  0.00  0.00    +0.073 C 
ATOM     26  C5  UNL     1      11.557  11.472  36.195  0.00  0.00    +0.024 C 
ATOM     27  C6  UNL     1      11.343  10.932  37.600  0.00  0.00    +0.024 C 
ENDBRANCH  23  25
ENDBRANCH  20  21
ENDBRANCH   1  20
TORSDOF 6
ENDMDL
MODEL 8
REMARK VINA RESULT:    -5.497     10.953     14.479
REMARK INTER + INTRA:          -8.090
REMARK INTER:                  -7.165
REMARK INTRA:                  -0.925
REMARK UNBOUND:                -0.665
REMARK  Name = /home/qwerty/github/datacon2025hack/step_04_hit_selection/docking/ligands/lig_564.pdb
REMARK  8 active torsions:
REMARK  status: ('A' for Active; 'I' for Inactive)
REMARK    1  A    between atoms: C1_1  and  C2_2
REMARK    2  A    between atoms: C2_2  and  C3_3
REMARK    3  A    between atoms: C2_2  and  N2_9
REMARK    4  A    between atoms: N1_5  and  C4_6
REMARK    5  A    between atoms: C9_12  and  N3_13
REMARK    6  A    between atoms: N3_13  and  C10_14
REMARK    7  A    between atoms: C11_15  and  C12_17
REMARK    8  A    between atoms: C12_17  and  C13_18
REMARK                            x       y       z     vdW  Elec       q    Type
REMARK                         _______ _______ _______ _____ _____    ______ ____
ROOT
ATOM      1  N2  UNL     1      11.452   5.988  20.834  0.00  0.00    -0.292 NA
ATOM      2  C7  UNL     1      12.861   5.644  20.520  0.00  0.00    +0.087 C 
ATOM      3  C8  UNL     1      13.304   4.331  21.183  0.00  0.00    +0.038 C 
ATOM      4  C9  UNL     1      12.368   3.182  20.769  0.00  0.00    +0.078 C 
ATOM      5  C17 UNL     1      10.887   3.541  20.995  0.00  0.00    +0.038 C 
ATOM      6  C18 UNL     1      10.554   4.903  20.362  0.00  0.00    +0.087 C 
ENDROOT
BRANCH   4   7
ATOM      7  N3  UNL     1      12.732   1.915  21.443  0.00  0.00    -0.301 N 
ATOM      8  C10 UNL     1      11.886   1.424  22.538  0.00  0.00    +0.132 C 
ATOM      9  C11 UNL     1      13.903   1.155  21.059  0.00  0.00    +0.216 C 
ATOM     10  O2  UNL     1      14.351   1.238  19.881  0.00  0.00    -0.276 OA
BRANCH   9  11
ATOM     11  C12 UNL     1      14.574   0.212  22.031  0.00  0.00    +0.108 C 
BRANCH  11  12
ATOM     12  C13 UNL     1      16.104   0.394  22.078  0.00  0.00    +0.085 C 
ATOM     13  C14 UNL     1      16.646   0.535  23.522  0.00  0.00    +0.032 C 
ATOM     14  C15 UNL     1      17.467  -0.734  23.829  0.00  0.00    +0.105 C 
ATOM     15  N4  UNL     1      17.587  -1.447  22.575  0.00  0.00    -0.315 N 
ATOM     16  C16 UNL     1      16.795  -0.822  21.589  0.00  0.00    +0.217 C 
ATOM     17  O3  UNL     1      16.694  -1.267  20.413  0.00  0.00    -0.276 OA
ATOM     18  H26 UNL     1      18.106  -2.345  22.443  0.00  0.00    +0.149 HD
ENDBRANCH  11  12
ENDBRANCH   9  11
ENDBRANCH   4   7
BRANCH   1  20
ATOM     19  C1  UNL     1      12.262   7.373  22.781  0.00  0.00    +0.034 C 
ATOM     20  C2  UNL     1      11.206   6.384  22.254  0.00  0.00    +0.140 C 
BRANCH  20  21
ATOM     21  C3  UNL     1       9.854   7.042  22.395  0.00  0.00    +0.230 C 
ATOM     22  O1  UNL     1       8.979   6.511  23.131  0.00  0.00    -0.274 OA
ATOM     23  N1  UNL     1       9.573   8.274  21.718  0.00  0.00    -0.311 N 
ATOM     24  H5  UNL     1      10.333   8.747  21.179  0.00  0.00    +0.149 HD
BRANCH  23  25
ATOM     25  C4  UNL     1       8.277   8.937  21.845  0.00  0.00    +0.073 C 
ATOM     26  C5  UNL     1       8.243  10.027  22.903  0.00  0.00    +0.024 C 
ATOM     27  C6  UNL     1       8.308  10.399  21.430  0.00  0.00    +0.024 C 
ENDBRANCH  23  25
ENDBRANCH  20  21
ENDBRANCH   1  20
TORSDOF 6
ENDMDL
MODEL 9
REMARK VINA RESULT:    -5.434      9.436     13.217
REMARK INTER + INTRA:          -8.005
REMARK INTER:                  -6.940
REMARK INTRA:                  -1.065
REMARK UNBOUND:                -0.665
REMARK  Name = /home/qwerty/github/datacon2025hack/step_04_hit_selection/docking/ligands/lig_564.pdb
REMARK  8 active torsions:
REMARK  status: ('A' for Active; 'I' for Inactive)
REMARK    1  A    between atoms: C1_1  and  C2_2
REMARK    2  A    between atoms: C2_2  and  C3_3
REMARK    3  A    between atoms: C2_2  and  N2_9
REMARK    4  A    between atoms: N1_5  and  C4_6
REMARK    5  A    between atoms: C9_12  and  N3_13
REMARK    6  A    between atoms: N3_13  and  C10_14
REMARK    7  A    between atoms: C11_15  and  C12_17
REMARK    8  A    between atoms: C12_17  and  C13_18
REMARK                            x       y       z     vdW  Elec       q    Type
REMARK                         _______ _______ _______ _____ _____    ______ ____
ROOT
ATOM      1  N2  UNL     1      13.991   5.206  20.255  0.00  0.00    -0.292 NA
ATOM      2  C7  UNL     1      15.381   4.707  20.391  0.00  0.00    +0.087 C 
ATOM      3  C8  UNL     1      15.448   3.357  21.121  0.00  0.00    +0.038 C 
ATOM      4  C9  UNL     1      14.575   2.315  20.399  0.00  0.00    +0.078 C 
ATOM      5  C17 UNL     1      13.146   2.838  20.158  0.00  0.00    +0.038 C 
ATOM      6  C18 UNL     1      13.178   4.224  19.492  0.00  0.00    +0.087 C 
ENDROOT
BRANCH   4   7
ATOM      7  N3  UNL     1      14.569   1.021  21.116  0.00  0.00    -0.301 N 
ATOM      8  C10 UNL     1      13.407   0.670  21.941  0.00  0.00    +0.132 C 
ATOM      9  C11 UNL     1      15.681   0.098  21.034  0.00  0.00    +0.216 C 
ATOM     10  O2  UNL     1      16.429   0.099  20.015  0.00  0.00    -0.276 OA
BRANCH   9  11
ATOM     11  C12 UNL     1      15.937  -0.916  22.125  0.00  0.00    +0.108 C 
BRANCH  11  12
ATOM     12  C13 UNL     1      17.241  -0.642  22.900  0.00  0.00    +0.085 C 
ATOM     13  C14 UNL     1      17.310   0.798  23.466  0.00  0.00    +0.032 C 
ATOM     14  C15 UNL     1      17.215   0.692  25.002  0.00  0.00    +0.105 C 
ATOM     15  N4  UNL     1      17.322  -0.718  25.314  0.00  0.00    -0.315 N 
ATOM     16  C16 UNL     1      17.311  -1.475  24.124  0.00  0.00    +0.217 C 
ATOM     17  O3  UNL     1      17.357  -2.736  24.118  0.00  0.00    -0.276 OA
ATOM     18  H26 UNL     1      17.312  -1.120  26.278  0.00  0.00    +0.149 HD
ENDBRANCH  11  12
ENDBRANCH   9  11
ENDBRANCH   4   7
BRANCH   1  20
ATOM     19  C1  UNL     1      14.245   6.592  22.348  0.00  0.00    +0.034 C 
ATOM     20  C2  UNL     1      13.351   5.636  21.536  0.00  0.00    +0.140 C 
BRANCH  20  21
ATOM     21  C3  UNL     1      12.047   6.348  21.266  0.00  0.00    +0.230 C 
ATOM     22  O1  UNL     1      10.973   5.868  21.718  0.00  0.00    -0.274 OA
ATOM     23  N1  UNL     1      12.031   7.574  20.524  0.00  0.00    -0.311 N 
ATOM     24  H5  UNL     1      12.935   8.005  20.227  0.00  0.00    +0.149 HD
BRANCH  23  25
ATOM     25  C4  UNL     1      10.784   8.288  20.257  0.00  0.00    +0.073 C 
ATOM     26  C5  UNL     1      10.601   9.542  21.096  0.00  0.00    +0.024 C 
ATOM     27  C6  UNL     1      11.000   9.658  19.633  0.00  0.00    +0.024 C 
ENDBRANCH  23  25
ENDBRANCH  20  21
ENDBRANCH   1  20
TORSDOF 6
ENDMDL
