REMARK  Name = /home/qwerty/github/datacon2025hack/step_04_hit_selection/docking/ligands/lig_303.pdb
REMARK  5 active torsions:
REMARK  status: ('A' for Active; 'I' for Inactive)
REMARK    1  A    between atoms: C1_1  and  N1_2
REMARK    2  A    between atoms: N2_5  and  C4_6
REMARK    3  A    between atoms: C7_9  and  N3_10
REMARK    4  A    between atoms: C8_11  and  C9_13
REMARK    5  A    between atoms: C12_16  and  C13_17
REMARK                            x       y       z     vdW  Elec       q    Type
REMARK                         _______ _______ _______ _____ _____    ______ ____
ROOT
ATOM      1  N3  UNL     1       0.790  -0.096   0.547  0.00  0.00    -0.265 N 
ATOM      2  C8  UNL     1       1.699   0.148  -0.543  0.00  0.00    +0.268 C 
ATOM      3  O1  UNL     1       1.258   0.502  -1.671  0.00  0.00    -0.268 OA
ATOM      4  H10 UNL     1       1.190  -0.381   1.469  0.00  0.00    +0.157 HD
ENDROOT
BRANCH   1   8
ATOM      5  C4  UNL     1      -3.439   0.277   0.270  0.00  0.00    +0.048 A 
ATOM      6  C5  UNL     1      -2.822  -0.107   1.483  0.00  0.00    +0.028 A 
ATOM      7  C6  UNL     1      -1.436  -0.227   1.575  0.00  0.00    +0.045 A 
ATOM      8  C7  UNL     1      -0.641   0.028   0.455  0.00  0.00    +0.125 A 
ATOM      9  N5  UNL     1      -1.239   0.387  -0.711  0.00  0.00    -0.238 NA
ATOM     10  C20 UNL     1      -2.586   0.514  -0.833  0.00  0.00    +0.136 A 
BRANCH   5  15
ATOM     11  C1  UNL     1      -9.102   0.088  -0.356  0.00  0.00    +0.105 C 
ATOM     12  N1  UNL     1      -7.639  -0.014  -0.235  0.00  0.00    -0.302 NA
ATOM     13  C2  UNL     1      -6.996   0.936  -1.149  0.00  0.00    +0.103 C 
ATOM     14  C3  UNL     1      -5.481   0.724  -1.163  0.00  0.00    +0.120 C 
ATOM     15  N2  UNL     1      -4.891   0.409   0.158  0.00  0.00    -0.326 N 
ATOM     16  C21 UNL     1      -5.733   0.056   1.324  0.00  0.00    +0.120 C 
ATOM     17  C22 UNL     1      -7.228   0.323   1.133  0.00  0.00    +0.103 C 
ENDBRANCH   5  15
ENDBRANCH   1   8
BRANCH   2  18
ATOM     18  C9  UNL     1       3.159  -0.012  -0.352  0.00  0.00    +0.126 A 
ATOM     19  C10 UNL     1       4.057   0.223  -1.405  0.00  0.00    +0.033 A 
ATOM     20  C11 UNL     1       5.427   0.063  -1.192  0.00  0.00    +0.012 A 
ATOM     21  C12 UNL     1       5.907  -0.333   0.067  0.00  0.00    +0.000 A 
ATOM     22  C19 UNL     1       4.974  -0.558   1.092  0.00  0.00    +0.120 A 
ATOM     23  N4  UNL     1       3.645  -0.393   0.861  0.00  0.00    -0.250 NA
BRANCH  21  24
ATOM     24  C13 UNL     1       7.362  -0.508   0.307  0.00  0.00    -0.016 A 
ATOM     25  C14 UNL     1       7.834  -1.575   1.095  0.00  0.00    +0.011 A 
ATOM     26  C15 UNL     1       9.205  -1.738   1.319  0.00  0.00    +0.039 A 
ATOM     27  C16 UNL     1      10.119  -0.840   0.762  0.00  0.00    +0.123 A 
ATOM     28  F1  UNL     1      11.447  -1.000   0.982  0.00  0.00    -0.205 F 
ATOM     29  C17 UNL     1       9.663   0.223  -0.021  0.00  0.00    +0.039 A 
ATOM     30  C18 UNL     1       8.293   0.390  -0.249  0.00  0.00    +0.011 A 
ENDBRANCH  21  24
ENDBRANCH   2  18
TORSDOF 4
