REMARK  Name = /home/qwerty/github/datacon2025hack/step_04_hit_selection/docking/ligands/lig_336.pdb
REMARK  9 active torsions:
REMARK  status: ('A' for Active; 'I' for Inactive)
REMARK    1  A    between atoms: C1_1  and  C2_2
REMARK    2  A    between atoms: C2_2  and  C3_3
REMARK    3  A    between atoms: C3_3  and  C4_4
REMARK    4  A    between atoms: C3_3  and  N1_5
REMARK    5  A    between atoms: C6_8  and  C7_9
REMARK    6  A    between atoms: N3_11  and  C8_12
REMARK    7  A    between atoms: C12_16  and  O2_17
REMARK    8  A    between atoms: C14_19  and  C15_20
REMARK    9  A    between atoms: C18_24  and  C19_26
REMARK                            x       y       z     vdW  Elec       q    Type
REMARK                         _______ _______ _______ _____ _____    ______ ____
ROOT
ATOM      1  N1  UNL     1      -1.615  -3.355   0.817  0.00  0.00    -0.265 N 
ATOM      2  N2  UNL     1      -2.911  -3.485   0.579  0.00  0.00    -0.178 NA
ATOM      3  C5  UNL     1      -3.427  -2.277   0.309  0.00  0.00    +0.147 A 
ATOM      4  C6  UNL     1      -2.431  -1.330   0.383  0.00  0.00    +0.078 A 
ATOM      5  C14 UNL     1      -1.266  -2.041   0.693  0.00  0.00    +0.055 A 
ENDROOT
BRANCH   5   6
ATOM      6  C15 UNL     1       0.144  -1.480   0.838  0.00  0.00    +0.041 C 
ATOM      7  C16 UNL     1       0.356  -0.791   2.201  0.00  0.00    +0.029 C 
ATOM      8  C17 UNL     1       1.815  -0.343   2.342  0.00  0.00    +0.109 C 
ATOM      9  N4  UNL     1       2.183   0.497   1.196  0.00  0.00    -0.297 N 
ATOM     10  C18 UNL     1       2.540   1.880   1.392  0.00  0.00    +0.247 C 
ATOM     11  O3  UNL     1       1.990   2.536   2.317  0.00  0.00    -0.270 OA
ATOM     12  C25 UNL     1       1.995  -0.061  -0.152  0.00  0.00    +0.109 C 
ATOM     13  C26 UNL     1       0.550  -0.549  -0.322  0.00  0.00    +0.029 C 
BRANCH  10  14
ATOM     14  C19 UNL     1       3.558   2.549   0.544  0.00  0.00    +0.040 A 
ATOM     15  C20 UNL     1       4.596   1.810  -0.050  0.00  0.00    +0.013 A 
ATOM     16  C21 UNL     1       5.545   2.447  -0.859  0.00  0.00    +0.004 A 
ATOM     17  C22 UNL     1       5.468   3.824  -1.080  0.00  0.00    +0.038 A 
ATOM     18  C23 UNL     1       4.452   4.569  -0.477  0.00  0.00    +0.124 A 
ATOM     19  F1  UNL     1       4.388   5.905  -0.677  0.00  0.00    -0.205 F 
ATOM     20  C24 UNL     1       3.504   3.938   0.336  0.00  0.00    +0.051 A 
ENDBRANCH  10  14
ENDBRANCH   5   6
BRANCH   4  21
ATOM     21  C7  UNL     1      -2.641   0.112   0.169  0.00  0.00    +0.252 C 
ATOM     22  O1  UNL     1      -2.147   0.943   0.978  0.00  0.00    -0.270 OA
ATOM     23  N3  UNL     1      -3.503   0.565  -0.886  0.00  0.00    -0.281 N 
ATOM     24  H11 UNL     1      -4.165  -0.120  -1.315  0.00  0.00    +0.155 HD
BRANCH  23  25
ATOM     25  C8  UNL     1      -3.568   1.932  -1.332  0.00  0.00    +0.037 A 
ATOM     26  C9  UNL     1      -4.786   2.450  -1.796  0.00  0.00    +0.023 A 
ATOM     27  C10 UNL     1      -4.865   3.766  -2.269  0.00  0.00    +0.005 A 
ATOM     28  C11 UNL     1      -3.726   4.572  -2.290  0.00  0.00    +0.045 A 
ATOM     29  C12 UNL     1      -2.498   4.065  -1.840  0.00  0.00    +0.119 A 
ATOM     30  C13 UNL     1      -2.418   2.746  -1.368  0.00  0.00    +0.068 A 
BRANCH  29  31
ATOM     31  O2  UNL     1      -1.354   4.861  -1.860  0.00  0.00    -0.507 OA
ATOM     32  H15 UNL     1      -1.383   5.824  -2.179  0.00  0.00    +0.292 HD
ENDBRANCH  29  31
ENDBRANCH  23  25
ENDBRANCH   4  21
BRANCH   1  33
ATOM     33  C3  UNL     1      -0.797  -4.544   1.128  0.00  0.00    +0.104 C 
ATOM     34  C4  UNL     1      -0.040  -4.404   2.458  0.00  0.00    +0.032 C 
BRANCH  33  36
ATOM     35  C1  UNL     1      -0.668  -5.198  -1.335  0.00  0.00    +0.006 C 
ATOM     36  C2  UNL     1       0.119  -4.961  -0.045  0.00  0.00    +0.023 C 
ENDBRANCH  33  36
ENDBRANCH   1  33
TORSDOF 7
