MODEL 1
REMARK VINA RESULT:    -6.041      0.000      0.000
REMARK INTER + INTRA:          -9.235
REMARK INTER:                  -8.513
REMARK INTRA:                  -0.722
REMARK UNBOUND:                -0.722
REMARK  Name = /home/qwerty/github/datacon2025hack/step_04_hit_selection/docking/ligands/lig_764.pdb
REMARK  9 active torsions:
REMARK  status: ('A' for Active; 'I' for Inactive)
REMARK    1  A    between atoms: C1_1  and  C2_2
REMARK    2  A    between atoms: C2_2  and  C3_3
REMARK    3  A    between atoms: C3_3  and  C4_4
REMARK    4  A    between atoms: C3_3  and  N4_16
REMARK    5  A    between atoms: C4_4  and  N1_5
REMARK    6  A    between atoms: C5_6  and  C6_8
REMARK    7  A    between atoms: N4_16  and  C12_17
REMARK    8  A    between atoms: C12_17  and  C13_18
REMARK    9  A    between atoms: C16_21  and  C17_22
REMARK                            x       y       z     vdW  Elec       q    Type
REMARK                         _______ _______ _______ _____ _____    ______ ____
ROOT
ATOM      1  C3  UNL     1      10.739  13.471  29.438  0.00  0.00    +0.071 C 
ENDROOT
BRANCH   1   3
ATOM      2  C1  UNL     1      12.065  15.145  27.957  0.00  0.00    +0.005 C 
ATOM      3  C2  UNL     1      11.082  13.970  28.010  0.00  0.00    +0.017 C 
ENDBRANCH   1   3
BRANCH   1   4
ATOM      4  N4  UNL     1       9.286  13.575  29.694  0.00  0.00    -0.308 NA
ATOM      5  H17 UNL     1       8.992  12.877  30.415  0.00  0.00    +0.123 HD
BRANCH   4   6
ATOM      6  C12 UNL     1       8.470  13.384  28.486  0.00  0.00    +0.116 C 
BRANCH   6   7
ATOM      7  C13 UNL     1       8.154  11.925  28.295  0.00  0.00    -0.034 A 
ATOM      8  C14 UNL     1       8.311  11.317  27.039  0.00  0.00    +0.005 A 
ATOM      9  C15 UNL     1       7.998   9.966  26.865  0.00  0.00    +0.003 A 
ATOM     10  C16 UNL     1       7.510   9.208  27.940  0.00  0.00    -0.050 A 
ATOM     11  C17 UNL     1       7.210   7.750  27.762  0.00  0.00    +0.044 C 
ATOM     12  C18 UNL     1       7.366   9.811  29.199  0.00  0.00    +0.003 A 
ATOM     13  C19 UNL     1       7.679  11.162  29.373  0.00  0.00    +0.005 A 
ENDBRANCH   6   7
ENDBRANCH   4   6
ENDBRANCH   1   4
BRANCH   1  14
ATOM     14  C4  UNL     1      11.599  14.149  30.537  0.00  0.00    +0.123 C 
BRANCH  14  15
ATOM     15  N1  UNL     1      11.139  13.836  31.890  0.00  0.00    -0.309 N 
ATOM     16  C5  UNL     1      11.762  14.370  33.069  0.00  0.00    +0.262 C 
ATOM     17  O1  UNL     1      12.783  15.102  32.965  0.00  0.00    -0.269 OA
ATOM     18  H9  UNL     1      10.344  13.170  31.983  0.00  0.00    +0.149 HD
BRANCH  16  19
ATOM     19  C6  UNL     1      11.246  14.053  34.415  0.00  0.00    +0.124 A 
ATOM     20  C7  UNL     1      10.055  14.513  34.963  0.00  0.00    +0.143 A 
ATOM     21  N2  UNL     1       9.804  13.865  36.128  0.00  0.00    -0.240 NA
ATOM     22  C8  UNL     1      10.885  13.075  36.271  0.00  0.00    +0.110 A 
ATOM     23  N3  UNL     1      11.754  13.166  35.285  0.00  0.00    -0.324 N 
ATOM     24  C9  UNL     1      12.644  12.029  35.205  0.00  0.00    +0.124 C 
ATOM     25  C10 UNL     1      12.243  11.166  36.429  0.00  0.00    +0.029 C 
ATOM     26  C11 UNL     1      11.043  11.873  37.110  0.00  0.00    +0.076 C 
ENDBRANCH  16  19
ENDBRANCH  14  15
ENDBRANCH   1  14
TORSDOF 7
ENDMDL
MODEL 2
REMARK VINA RESULT:    -5.993      8.160     11.689
REMARK INTER + INTRA:          -9.168
REMARK INTER:                  -8.537
REMARK INTRA:                  -0.631
REMARK UNBOUND:                -0.722
REMARK  Name = /home/qwerty/github/datacon2025hack/step_04_hit_selection/docking/ligands/lig_764.pdb
REMARK  9 active torsions:
REMARK  status: ('A' for Active; 'I' for Inactive)
REMARK    1  A    between atoms: C1_1  and  C2_2
REMARK    2  A    between atoms: C2_2  and  C3_3
REMARK    3  A    between atoms: C3_3  and  C4_4
REMARK    4  A    between atoms: C3_3  and  N4_16
REMARK    5  A    between atoms: C4_4  and  N1_5
REMARK    6  A    between atoms: C5_6  and  C6_8
REMARK    7  A    between atoms: N4_16  and  C12_17
REMARK    8  A    between atoms: C12_17  and  C13_18
REMARK    9  A    between atoms: C16_21  and  C17_22
REMARK                            x       y       z     vdW  Elec       q    Type
REMARK                         _______ _______ _______ _____ _____    ______ ____
ROOT
ATOM      1  C3  UNL     1      18.423  11.496  36.622  0.00  0.00    +0.071 C 
ENDROOT
BRANCH   1   3
ATOM      2  C1  UNL     1      20.334  12.141  34.983  0.00  0.00    +0.005 C 
ATOM      3  C2  UNL     1      19.747  12.271  36.393  0.00  0.00    +0.017 C 
ENDBRANCH   1   3
BRANCH   1   4
ATOM      4  N4  UNL     1      17.312  12.431  36.900  0.00  0.00    -0.308 NA
ATOM      5  H17 UNL     1      17.644  13.227  37.490  0.00  0.00    +0.123 HD
BRANCH   4   6
ATOM      6  C12 UNL     1      16.168  11.790  37.566  0.00  0.00    +0.116 C 
BRANCH   6   7
ATOM      7  C13 UNL     1      14.875  12.342  37.027  0.00  0.00    -0.034 A 
ATOM      8  C14 UNL     1      14.789  13.677  36.601  0.00  0.00    +0.005 A 
ATOM      9  C15 UNL     1      13.580  14.188  36.121  0.00  0.00    +0.003 A 
ATOM     10  C16 UNL     1      12.437  13.375  36.073  0.00  0.00    -0.050 A 
ATOM     11  C17 UNL     1      11.150  13.913  35.522  0.00  0.00    +0.044 C 
ATOM     12  C18 UNL     1      12.526  12.037  36.485  0.00  0.00    +0.003 A 
ATOM     13  C19 UNL     1      13.735  11.526  36.966  0.00  0.00    +0.005 A 
ENDBRANCH   6   7
ENDBRANCH   4   6
ENDBRANCH   1   4
BRANCH   1  14
ATOM     14  C4  UNL     1      18.556  10.375  37.686  0.00  0.00    +0.123 C 
BRANCH  14  15
ATOM     15  N1  UNL     1      19.857   9.707  37.646  0.00  0.00    -0.309 N 
ATOM     16  C5  UNL     1      20.102   8.522  36.872  0.00  0.00    +0.262 C 
ATOM     17  O1  UNL     1      19.160   7.984  36.229  0.00  0.00    -0.269 OA
ATOM     18  H9  UNL     1      20.617  10.104  38.236  0.00  0.00    +0.149 HD
BRANCH  16  19
ATOM     19  C6  UNL     1      21.438   7.897  36.835  0.00  0.00    +0.124 A 
ATOM     20  C7  UNL     1      21.986   7.079  37.815  0.00  0.00    +0.143 A 
ATOM     21  N2  UNL     1      23.137   6.524  37.361  0.00  0.00    -0.240 NA
ATOM     22  C8  UNL     1      23.274   7.073  36.138  0.00  0.00    +0.110 A 
ATOM     23  N3  UNL     1      22.295   7.888  35.802  0.00  0.00    -0.324 N 
ATOM     24  C9  UNL     1      22.201   8.103  34.375  0.00  0.00    +0.124 C 
ATOM     25  C10 UNL     1      23.407   7.311  33.807  0.00  0.00    +0.029 C 
ATOM     26  C11 UNL     1      24.092   6.605  35.005  0.00  0.00    +0.076 C 
ENDBRANCH  16  19
ENDBRANCH  14  15
ENDBRANCH   1  14
TORSDOF 7
ENDMDL
MODEL 3
REMARK VINA RESULT:    -5.986      4.974     10.200
REMARK INTER + INTRA:          -9.158
REMARK INTER:                  -8.351
REMARK INTRA:                  -0.807
REMARK UNBOUND:                -0.722
REMARK  Name = /home/qwerty/github/datacon2025hack/step_04_hit_selection/docking/ligands/lig_764.pdb
REMARK  9 active torsions:
REMARK  status: ('A' for Active; 'I' for Inactive)
REMARK    1  A    between atoms: C1_1  and  C2_2
REMARK    2  A    between atoms: C2_2  and  C3_3
REMARK    3  A    between atoms: C3_3  and  C4_4
REMARK    4  A    between atoms: C3_3  and  N4_16
REMARK    5  A    between atoms: C4_4  and  N1_5
REMARK    6  A    between atoms: C5_6  and  C6_8
REMARK    7  A    between atoms: N4_16  and  C12_17
REMARK    8  A    between atoms: C12_17  and  C13_18
REMARK    9  A    between atoms: C16_21  and  C17_22
REMARK                            x       y       z     vdW  Elec       q    Type
REMARK                         _______ _______ _______ _____ _____    ______ ____
ROOT
ATOM      1  C3  UNL     1       8.284  10.585  27.621  0.00  0.00    +0.071 C 
ENDROOT
BRANCH   1   3
ATOM      2  C1  UNL     1       8.264   9.722  30.072  0.00  0.00    +0.005 C 
ATOM      3  C2  UNL     1       7.493  10.418  28.944  0.00  0.00    +0.017 C 
ENDBRANCH   1   3
BRANCH   1   4
ATOM      4  N4  UNL     1       8.202  11.979  27.134  0.00  0.00    -0.308 NA
ATOM      5  H17 UNL     1       9.045  12.216  26.564  0.00  0.00    +0.123 HD
BRANCH   4   6
ATOM      6  C12 UNL     1       8.067  12.964  28.217  0.00  0.00    +0.116 C 
BRANCH   6   7
ATOM      7  C13 UNL     1       9.423  13.464  28.640  0.00  0.00    -0.034 A 
ATOM      8  C14 UNL     1      10.297  14.039  27.705  0.00  0.00    +0.005 A 
ATOM      9  C15 UNL     1      11.562  14.483  28.102  0.00  0.00    +0.003 A 
ATOM     10  C16 UNL     1      11.975  14.344  29.435  0.00  0.00    -0.050 A 
ATOM     11  C17 UNL     1      13.317  14.855  29.867  0.00  0.00    +0.044 C 
ATOM     12  C18 UNL     1      11.096  13.782  30.373  0.00  0.00    +0.003 A 
ATOM     13  C19 UNL     1       9.831  13.338  29.977  0.00  0.00    +0.005 A 
ENDBRANCH   6   7
ENDBRANCH   4   6
ENDBRANCH   1   4
BRANCH   1  14
ATOM     14  C4  UNL     1       7.886   9.541  26.544  0.00  0.00    +0.123 C 
BRANCH  14  15
ATOM     15  N1  UNL     1       8.098  10.025  25.180  0.00  0.00    -0.309 N 
ATOM     16  C5  UNL     1       8.380   9.150  24.076  0.00  0.00    +0.262 C 
ATOM     17  O1  UNL     1       8.508   7.911  24.272  0.00  0.00    -0.269 OA
ATOM     18  H9  UNL     1       8.070  11.055  25.028  0.00  0.00    +0.149 HD
BRANCH  16  19
ATOM     19  C6  UNL     1       8.556   9.677  22.709  0.00  0.00    +0.124 A 
ATOM     20  C7  UNL     1       7.836  10.717  22.135  0.00  0.00    +0.143 A 
ATOM     21  N2  UNL     1       8.396  11.067  20.950  0.00  0.00    -0.240 NA
ATOM     22  C8  UNL     1       9.406  10.183  20.824  0.00  0.00    +0.110 A 
ATOM     23  N3  UNL     1       9.523   9.350  21.838  0.00  0.00    -0.324 N 
ATOM     24  C9  UNL     1      10.831   8.738  21.921  0.00  0.00    +0.124 C 
ATOM     25  C10 UNL     1      11.567   9.278  20.668  0.00  0.00    +0.029 C 
ATOM     26  C11 UNL     1      10.602  10.268  19.966  0.00  0.00    +0.076 C 
ENDBRANCH  16  19
ENDBRANCH  14  15
ENDBRANCH   1  14
TORSDOF 7
ENDMDL
MODEL 4
REMARK VINA RESULT:    -5.983     14.026     16.556
REMARK INTER + INTRA:          -9.153
REMARK INTER:                  -8.162
REMARK INTRA:                  -0.991
REMARK UNBOUND:                -0.722
REMARK  Name = /home/qwerty/github/datacon2025hack/step_04_hit_selection/docking/ligands/lig_764.pdb
REMARK  9 active torsions:
REMARK  status: ('A' for Active; 'I' for Inactive)
REMARK    1  A    between atoms: C1_1  and  C2_2
REMARK    2  A    between atoms: C2_2  and  C3_3
REMARK    3  A    between atoms: C3_3  and  C4_4
REMARK    4  A    between atoms: C3_3  and  N4_16
REMARK    5  A    between atoms: C4_4  and  N1_5
REMARK    6  A    between atoms: C5_6  and  C6_8
REMARK    7  A    between atoms: N4_16  and  C12_17
REMARK    8  A    between atoms: C12_17  and  C13_18
REMARK    9  A    between atoms: C16_21  and  C17_22
REMARK                            x       y       z     vdW  Elec       q    Type
REMARK                         _______ _______ _______ _____ _____    ______ ____
ROOT
ATOM      1  C3  UNL     1      22.173   4.508  33.955  0.00  0.00    +0.071 C 
ENDROOT
BRANCH   1   3
ATOM      2  C1  UNL     1      20.962   6.312  35.381  0.00  0.00    +0.005 C 
ATOM      3  C2  UNL     1      21.024   5.544  34.055  0.00  0.00    +0.017 C 
ENDBRANCH   1   3
BRANCH   1   4
ATOM      4  N4  UNL     1      23.187   4.945  32.971  0.00  0.00    -0.308 NA
ATOM      5  H17 UNL     1      23.715   4.121  32.602  0.00  0.00    +0.123 HD
BRANCH   4   6
ATOM      6  C12 UNL     1      24.143   5.919  33.516  0.00  0.00    +0.116 C 
BRANCH   6   7
ATOM      7  C13 UNL     1      24.105   7.192  32.715  0.00  0.00    -0.034 A 
ATOM      8  C14 UNL     1      23.251   7.315  31.607  0.00  0.00    +0.005 A 
ATOM      9  C15 UNL     1      23.235   8.495  30.856  0.00  0.00    +0.003 A 
ATOM     10  C16 UNL     1      24.082   9.560  31.194  0.00  0.00    -0.050 A 
ATOM     11  C17 UNL     1      24.037  10.839  30.411  0.00  0.00    +0.044 C 
ATOM     12  C18 UNL     1      24.925   9.444  32.310  0.00  0.00    +0.003 A 
ATOM     13  C19 UNL     1      24.941   8.265  33.060  0.00  0.00    +0.005 A 
ENDBRANCH   6   7
ENDBRANCH   4   6
ENDBRANCH   1   4
BRANCH   1  14
ATOM     14  C4  UNL     1      21.664   3.064  33.703  0.00  0.00    +0.123 C 
BRANCH  14  15
ATOM     15  N1  UNL     1      22.060   2.544  32.394  0.00  0.00    -0.309 N 
ATOM     16  C5  UNL     1      21.111   2.191  31.376  0.00  0.00    +0.262 C 
ATOM     17  O1  UNL     1      19.875   2.275  31.610  0.00  0.00    -0.269 OA
ATOM     18  H9  UNL     1      23.076   2.400  32.224  0.00  0.00    +0.149 HD
BRANCH  16  19
ATOM     19  C6  UNL     1      21.554   1.699  30.056  0.00  0.00    +0.124 A 
ATOM     20  C7  UNL     1      21.633   0.369  29.664  0.00  0.00    +0.143 A 
ATOM     21  N2  UNL     1      21.882   0.295  28.333  0.00  0.00    -0.240 NA
ATOM     22  C8  UNL     1      22.000   1.589  27.978  0.00  0.00    +0.110 A 
ATOM     23  N3  UNL     1      21.819   2.439  28.968  0.00  0.00    -0.324 N 
ATOM     24  C9  UNL     1      21.496   3.774  28.518  0.00  0.00    +0.124 C 
ATOM     25  C10 UNL     1      21.584   3.670  26.974  0.00  0.00    +0.029 C 
ATOM     26  C11 UNL     1      21.894   2.189  26.635  0.00  0.00    +0.076 C 
ENDBRANCH  16  19
ENDBRANCH  14  15
ENDBRANCH   1  14
TORSDOF 7
ENDMDL
MODEL 5
REMARK VINA RESULT:    -5.965      8.487     12.522
REMARK INTER + INTRA:          -9.129
REMARK INTER:                  -8.395
REMARK INTRA:                  -0.733
REMARK UNBOUND:                -0.722
REMARK  Name = /home/qwerty/github/datacon2025hack/step_04_hit_selection/docking/ligands/lig_764.pdb
REMARK  9 active torsions:
REMARK  status: ('A' for Active; 'I' for Inactive)
REMARK    1  A    between atoms: C1_1  and  C2_2
REMARK    2  A    between atoms: C2_2  and  C3_3
REMARK    3  A    between atoms: C3_3  and  C4_4
REMARK    4  A    between atoms: C3_3  and  N4_16
REMARK    5  A    between atoms: C4_4  and  N1_5
REMARK    6  A    between atoms: C5_6  and  C6_8
REMARK    7  A    between atoms: N4_16  and  C12_17
REMARK    8  A    between atoms: C12_17  and  C13_18
REMARK    9  A    between atoms: C16_21  and  C17_22
REMARK                            x       y       z     vdW  Elec       q    Type
REMARK                         _______ _______ _______ _____ _____    ______ ____
ROOT
ATOM      1  C3  UNL     1      19.553   8.242  37.335  0.00  0.00    +0.071 C 
ENDROOT
BRANCH   1   3
ATOM      2  C1  UNL     1      18.480   5.886  37.106  0.00  0.00    +0.005 C 
ATOM      3  C2  UNL     1      19.625   6.731  37.676  0.00  0.00    +0.017 C 
ENDBRANCH   1   3
BRANCH   1   4
ATOM      4  N4  UNL     1      20.904   8.843  37.335  0.00  0.00    -0.308 NA
ATOM      5  H17 UNL     1      20.966   9.602  38.051  0.00  0.00    +0.123 HD
BRANCH   4   6
ATOM      6  C12 UNL     1      21.296   9.389  36.027  0.00  0.00    +0.116 C 
BRANCH   6   7
ATOM      7  C13 UNL     1      22.321   8.500  35.376  0.00  0.00    -0.034 A 
ATOM      8  C14 UNL     1      22.755   8.749  34.064  0.00  0.00    +0.005 A 
ATOM      9  C15 UNL     1      23.693   7.907  33.460  0.00  0.00    +0.003 A 
ATOM     10  C16 UNL     1      24.199   6.797  34.153  0.00  0.00    -0.050 A 
ATOM     11  C17 UNL     1      25.233   5.916  33.518  0.00  0.00    +0.044 C 
ATOM     12  C18 UNL     1      23.776   6.556  35.469  0.00  0.00    +0.003 A 
ATOM     13  C19 UNL     1      22.837   7.397  36.074  0.00  0.00    +0.005 A 
ENDBRANCH   6   7
ENDBRANCH   4   6
ENDBRANCH   1   4
BRANCH   1  14
ATOM     14  C4  UNL     1      18.545   9.014  38.225  0.00  0.00    +0.123 C 
BRANCH  14  15
ATOM     15  N1  UNL     1      18.300  10.377  37.753  0.00  0.00    -0.309 N 
ATOM     16  C5  UNL     1      17.361  10.685  36.710  0.00  0.00    +0.262 C 
ATOM     17  O1  UNL     1      16.745   9.755  36.123  0.00  0.00    -0.269 OA
ATOM     18  H9  UNL     1      18.863  11.140  38.182  0.00  0.00    +0.149 HD
BRANCH  16  19
ATOM     19  C6  UNL     1      17.121  12.078  36.286  0.00  0.00    +0.124 A 
ATOM     20  C7  UNL     1      17.855  12.782  35.339  0.00  0.00    +0.143 A 
ATOM     21  N2  UNL     1      17.235  13.955  35.054  0.00  0.00    -0.240 NA
ATOM     22  C8  UNL     1      16.174  13.942  35.885  0.00  0.00    +0.110 A 
ATOM     23  N3  UNL     1      16.082  12.856  36.625  0.00  0.00    -0.324 N 
ATOM     24  C9  UNL     1      14.753  12.639  37.151  0.00  0.00    +0.124 C 
ATOM     25  C10 UNL     1      13.963  13.885  36.672  0.00  0.00    +0.029 C 
ATOM     26  C11 UNL     1      14.929  14.727  35.800  0.00  0.00    +0.076 C 
ENDBRANCH  16  19
ENDBRANCH  14  15
ENDBRANCH   1  14
TORSDOF 7
ENDMDL
MODEL 6
REMARK VINA RESULT:    -5.959     14.204     15.703
REMARK INTER + INTRA:          -9.120
REMARK INTER:                  -8.427
REMARK INTRA:                  -0.693
REMARK UNBOUND:                -0.722
REMARK  Name = /home/qwerty/github/datacon2025hack/step_04_hit_selection/docking/ligands/lig_764.pdb
REMARK  9 active torsions:
REMARK  status: ('A' for Active; 'I' for Inactive)
REMARK    1  A    between atoms: C1_1  and  C2_2
REMARK    2  A    between atoms: C2_2  and  C3_3
REMARK    3  A    between atoms: C3_3  and  C4_4
REMARK    4  A    between atoms: C3_3  and  N4_16
REMARK    5  A    between atoms: C4_4  and  N1_5
REMARK    6  A    between atoms: C5_6  and  C6_8
REMARK    7  A    between atoms: N4_16  and  C12_17
REMARK    8  A    between atoms: C12_17  and  C13_18
REMARK    9  A    between atoms: C16_21  and  C17_22
REMARK                            x       y       z     vdW  Elec       q    Type
REMARK                         _______ _______ _______ _____ _____    ______ ____
ROOT
ATOM      1  C3  UNL     1      21.299   1.891  31.229  0.00  0.00    +0.071 C 
ENDROOT
BRANCH   1   3
ATOM      2  C1  UNL     1      19.774   0.283  32.587  0.00  0.00    +0.005 C 
ATOM      3  C2  UNL     1      20.638   0.493  31.337  0.00  0.00    +0.017 C 
ENDBRANCH   1   3
BRANCH   1   4
ATOM      4  N4  UNL     1      22.559   1.817  30.459  0.00  0.00    -0.308 NA
ATOM      5  H17 UNL     1      22.769   2.739  30.013  0.00  0.00    +0.123 HD
BRANCH   4   6
ATOM      6  C12 UNL     1      22.542   0.778  29.418  0.00  0.00    +0.116 C 
BRANCH   6   7
ATOM      7  C13 UNL     1      22.134   1.371  28.096  0.00  0.00    -0.034 A 
ATOM      8  C14 UNL     1      22.835   2.459  27.552  0.00  0.00    +0.005 A 
ATOM      9  C15 UNL     1      22.438   3.016  26.333  0.00  0.00    +0.003 A 
ATOM     10  C16 UNL     1      21.326   2.502  25.649  0.00  0.00    -0.050 A 
ATOM     11  C17 UNL     1      20.924   3.076  24.323  0.00  0.00    +0.044 C 
ATOM     12  C18 UNL     1      20.634   1.405  26.185  0.00  0.00    +0.003 A 
ATOM     13  C19 UNL     1      21.031   0.849  27.404  0.00  0.00    +0.005 A 
ENDBRANCH   6   7
ENDBRANCH   4   6
ENDBRANCH   1   4
BRANCH   1  14
ATOM     14  C4  UNL     1      21.469   2.587  32.606  0.00  0.00    +0.123 C 
BRANCH  14  15
ATOM     15  N1  UNL     1      22.517   3.608  32.599  0.00  0.00    -0.309 N 
ATOM     16  C5  UNL     1      22.371   4.880  33.250  0.00  0.00    +0.262 C 
ATOM     17  O1  UNL     1      21.284   5.177  33.816  0.00  0.00    -0.269 OA
ATOM     18  H9  UNL     1      23.387   3.397  32.068  0.00  0.00    +0.149 HD
BRANCH  16  19
ATOM     19  C6  UNL     1      23.466   5.870  33.247  0.00  0.00    +0.124 A 
ATOM     20  C7  UNL     1      24.825   5.586  33.287  0.00  0.00    +0.143 A 
ATOM     21  N2  UNL     1      25.539   6.717  33.066  0.00  0.00    -0.240 NA
ATOM     22  C8  UNL     1      24.582   7.659  32.955  0.00  0.00    +0.110 A 
ATOM     23  N3  UNL     1      23.353   7.194  33.062  0.00  0.00    -0.324 N 
ATOM     24  C9  UNL     1      22.360   8.083  32.502  0.00  0.00    +0.124 C 
ATOM     25  C10 UNL     1      23.184   9.319  32.059  0.00  0.00    +0.029 C 
ATOM     26  C11 UNL     1      24.674   8.998  32.345  0.00  0.00    +0.076 C 
ENDBRANCH  16  19
ENDBRANCH  14  15
ENDBRANCH   1  14
TORSDOF 7
ENDMDL
MODEL 7
REMARK VINA RESULT:    -5.948     11.266     13.674
REMARK INTER + INTRA:          -9.104
REMARK INTER:                  -8.373
REMARK INTRA:                  -0.731
REMARK UNBOUND:                -0.722
REMARK  Name = /home/qwerty/github/datacon2025hack/step_04_hit_selection/docking/ligands/lig_764.pdb
REMARK  9 active torsions:
REMARK  status: ('A' for Active; 'I' for Inactive)
REMARK    1  A    between atoms: C1_1  and  C2_2
REMARK    2  A    between atoms: C2_2  and  C3_3
REMARK    3  A    between atoms: C3_3  and  C4_4
REMARK    4  A    between atoms: C3_3  and  N4_16
REMARK    5  A    between atoms: C4_4  and  N1_5
REMARK    6  A    between atoms: C5_6  and  C6_8
REMARK    7  A    between atoms: N4_16  and  C12_17
REMARK    8  A    between atoms: C12_17  and  C13_18
REMARK    9  A    between atoms: C16_21  and  C17_22
REMARK                            x       y       z     vdW  Elec       q    Type
REMARK                         _______ _______ _______ _____ _____    ______ ____
ROOT
ATOM      1  C3  UNL     1      23.792   6.303  34.751  0.00  0.00    +0.071 C 
ENDROOT
BRANCH   1   3
ATOM      2  C1  UNL     1      24.957   7.846  33.015  0.00  0.00    +0.005 C 
ATOM      3  C2  UNL     1      23.647   7.425  33.691  0.00  0.00    +0.017 C 
ENDBRANCH   1   3
BRANCH   1   4
ATOM      4  N4  UNL     1      22.908   5.162  34.430  0.00  0.00    -0.308 NA
ATOM      5  H17 UNL     1      23.137   4.341  35.036  0.00  0.00    +0.123 HD
BRANCH   4   6
ATOM      6  C12 UNL     1      22.984   4.749  33.021  0.00  0.00    +0.116 C 
BRANCH   6   7
ATOM      7  C13 UNL     1      22.138   3.525  32.790  0.00  0.00    -0.034 A 
ATOM      8  C14 UNL     1      22.171   2.854  31.557  0.00  0.00    +0.005 A 
ATOM      9  C15 UNL     1      21.367   1.730  31.344  0.00  0.00    +0.003 A 
ATOM     10  C16 UNL     1      20.510   1.271  32.355  0.00  0.00    -0.050 A 
ATOM     11  C17 UNL     1      19.677   0.043  32.138  0.00  0.00    +0.044 C 
ATOM     12  C18 UNL     1      20.487   1.932  33.592  0.00  0.00    +0.003 A 
ATOM     13  C19 UNL     1      21.290   3.056  33.805  0.00  0.00    +0.005 A 
ENDBRANCH   6   7
ENDBRANCH   4   6
ENDBRANCH   1   4
BRANCH   1  14
ATOM     14  C4  UNL     1      23.614   6.819  36.204  0.00  0.00    +0.123 C 
BRANCH  14  15
ATOM     15  N1  UNL     1      22.766   8.009  36.283  0.00  0.00    -0.309 N 
ATOM     16  C5  UNL     1      21.332   7.944  36.319  0.00  0.00    +0.262 C 
ATOM     17  O1  UNL     1      20.749   6.830  36.229  0.00  0.00    -0.269 OA
ATOM     18  H9  UNL     1      23.241   8.935  36.280  0.00  0.00    +0.149 HD
BRANCH  16  19
ATOM     19  C6  UNL     1      20.515   9.168  36.431  0.00  0.00    +0.124 A 
ATOM     20  C7  UNL     1      20.630  10.304  35.640  0.00  0.00    +0.143 A 
ATOM     21  N2  UNL     1      19.595  11.145  35.885  0.00  0.00    -0.240 NA
ATOM     22  C8  UNL     1      18.918  10.510  36.862  0.00  0.00    +0.110 A 
ATOM     23  N3  UNL     1      19.436   9.349  37.209  0.00  0.00    -0.324 N 
ATOM     24  C9  UNL     1      18.495   8.489  37.893  0.00  0.00    +0.124 C 
ATOM     25  C10 UNL     1      17.223   9.367  38.017  0.00  0.00    +0.029 C 
ATOM     26  C11 UNL     1      17.522  10.705  37.292  0.00  0.00    +0.076 C 
ENDBRANCH  16  19
ENDBRANCH  14  15
ENDBRANCH   1  14
TORSDOF 7
ENDMDL
MODEL 8
REMARK VINA RESULT:    -5.910      7.475     10.886
REMARK INTER + INTRA:          -9.050
REMARK INTER:                  -8.081
REMARK INTRA:                  -0.969
REMARK UNBOUND:                -0.722
REMARK  Name = /home/qwerty/github/datacon2025hack/step_04_hit_selection/docking/ligands/lig_764.pdb
REMARK  9 active torsions:
REMARK  status: ('A' for Active; 'I' for Inactive)
REMARK    1  A    between atoms: C1_1  and  C2_2
REMARK    2  A    between atoms: C2_2  and  C3_3
REMARK    3  A    between atoms: C3_3  and  C4_4
REMARK    4  A    between atoms: C3_3  and  N4_16
REMARK    5  A    between atoms: C4_4  and  N1_5
REMARK    6  A    between atoms: C5_6  and  C6_8
REMARK    7  A    between atoms: N4_16  and  C12_17
REMARK    8  A    between atoms: C12_17  and  C13_18
REMARK    9  A    between atoms: C16_21  and  C17_22
REMARK                            x       y       z     vdW  Elec       q    Type
REMARK                         _______ _______ _______ _____ _____    ______ ____
ROOT
ATOM      1  C3  UNL     1      17.991  12.597  35.749  0.00  0.00    +0.071 C 
ENDROOT
BRANCH   1   3
ATOM      2  C1  UNL     1      16.422  12.714  33.681  0.00  0.00    +0.005 C 
ATOM      3  C2  UNL     1      17.454  13.433  34.559  0.00  0.00    +0.017 C 
ENDBRANCH   1   3
BRANCH   1   4
ATOM      4  N4  UNL     1      17.302  12.970  37.004  0.00  0.00    -0.308 NA
ATOM      5  H17 UNL     1      17.999  13.206  37.746  0.00  0.00    +0.123 HD
BRANCH   4   6
ATOM      6  C12 UNL     1      16.407  11.918  37.508  0.00  0.00    +0.116 C 
BRANCH   6   7
ATOM      7  C13 UNL     1      14.991  12.187  37.074  0.00  0.00    -0.034 A 
ATOM      8  C14 UNL     1      14.086  11.129  36.890  0.00  0.00    +0.005 A 
ATOM      9  C15 UNL     1      12.778  11.386  36.467  0.00  0.00    +0.003 A 
ATOM     10  C16 UNL     1      12.362  12.700  36.210  0.00  0.00    -0.050 A 
ATOM     11  C17 UNL     1      10.948  12.978  35.793  0.00  0.00    +0.044 C 
ATOM     12  C18 UNL     1      13.261  13.759  36.407  0.00  0.00    +0.003 A 
ATOM     13  C19 UNL     1      14.569  13.503  36.829  0.00  0.00    +0.005 A 
ENDBRANCH   6   7
ENDBRANCH   4   6
ENDBRANCH   1   4
BRANCH   1  14
ATOM     14  C4  UNL     1      19.537  12.641  35.869  0.00  0.00    +0.123 C 
BRANCH  14  15
ATOM     15  N1  UNL     1      20.096  11.421  36.451  0.00  0.00    -0.309 N 
ATOM     16  C5  UNL     1      20.316  10.223  35.689  0.00  0.00    +0.262 C 
ATOM     17  O1  UNL     1      19.975  10.177  34.476  0.00  0.00    -0.269 OA
ATOM     18  H9  UNL     1      20.308  11.430  37.470  0.00  0.00    +0.149 HD
BRANCH  16  19
ATOM     19  C6  UNL     1      20.912   9.023  36.308  0.00  0.00    +0.124 A 
ATOM     20  C7  UNL     1      20.335   8.244  37.304  0.00  0.00    +0.143 A 
ATOM     21  N2  UNL     1      21.065   7.116  37.487  0.00  0.00    -0.240 NA
ATOM     22  C8  UNL     1      22.093   7.281  36.632  0.00  0.00    +0.110 A 
ATOM     23  N3  UNL     1      22.035   8.394  35.928  0.00  0.00    -0.324 N 
ATOM     24  C9  UNL     1      22.846   8.351  34.732  0.00  0.00    +0.124 C 
ATOM     25  C10 UNL     1      23.553   6.974  34.819  0.00  0.00    +0.029 C 
ATOM     26  C11 UNL     1      23.008   6.263  36.085  0.00  0.00    +0.076 C 
ENDBRANCH  16  19
ENDBRANCH  14  15
ENDBRANCH   1  14
TORSDOF 7
ENDMDL
MODEL 9
REMARK VINA RESULT:    -5.892      5.661      8.703
REMARK INTER + INTRA:          -9.025
REMARK INTER:                  -8.239
REMARK INTRA:                  -0.786
REMARK UNBOUND:                -0.722
REMARK  Name = /home/qwerty/github/datacon2025hack/step_04_hit_selection/docking/ligands/lig_764.pdb
REMARK  9 active torsions:
REMARK  status: ('A' for Active; 'I' for Inactive)
REMARK    1  A    between atoms: C1_1  and  C2_2
REMARK    2  A    between atoms: C2_2  and  C3_3
REMARK    3  A    between atoms: C3_3  and  C4_4
REMARK    4  A    between atoms: C3_3  and  N4_16
REMARK    5  A    between atoms: C4_4  and  N1_5
REMARK    6  A    between atoms: C5_6  and  C6_8
REMARK    7  A    between atoms: N4_16  and  C12_17
REMARK    8  A    between atoms: C12_17  and  C13_18
REMARK    9  A    between atoms: C16_21  and  C17_22
REMARK                            x       y       z     vdW  Elec       q    Type
REMARK                         _______ _______ _______ _____ _____    ______ ____
ROOT
ATOM      1  C3  UNL     1       8.340   9.618  21.965  0.00  0.00    +0.071 C 
ENDROOT
BRANCH   1   3
ATOM      2  C1  UNL     1      10.598  10.088  20.768  0.00  0.00    +0.005 C 
ATOM      3  C2  UNL     1       9.072  10.238  20.747  0.00  0.00    +0.017 C 
ENDBRANCH   1   3
BRANCH   1   4
ATOM      4  N4  UNL     1       7.496   8.479  21.544  0.00  0.00    -0.308 NA
ATOM      5  H17 UNL     1       6.829   8.219  22.306  0.00  0.00    +0.123 HD
BRANCH   4   6
ATOM      6  C12 UNL     1       8.273   7.291  21.165  0.00  0.00    +0.116 C 
BRANCH   6   7
ATOM      7  C13 UNL     1       8.164   6.234  22.232  0.00  0.00    -0.034 A 
ATOM      8  C14 UNL     1       7.477   5.035  21.984  0.00  0.00    +0.005 A 
ATOM      9  C15 UNL     1       7.364   4.067  22.986  0.00  0.00    +0.003 A 
ATOM     10  C16 UNL     1       7.924   4.290  24.253  0.00  0.00    -0.050 A 
ATOM     11  C17 UNL     1       7.834   3.235  25.315  0.00  0.00    +0.044 C 
ATOM     12  C18 UNL     1       8.623   5.482  24.496  0.00  0.00    +0.003 A 
ATOM     13  C19 UNL     1       8.736   6.450  23.495  0.00  0.00    +0.005 A 
ENDBRANCH   6   7
ENDBRANCH   4   6
ENDBRANCH   1   4
BRANCH   1  14
ATOM     14  C4  UNL     1       7.567  10.670  22.803  0.00  0.00    +0.123 C 
BRANCH  14  15
ATOM     15  N1  UNL     1       7.183  10.171  24.125  0.00  0.00    -0.309 N 
ATOM     16  C5  UNL     1       8.133   9.934  25.175  0.00  0.00    +0.262 C 
ATOM     17  O1  UNL     1       9.364  10.105  24.961  0.00  0.00    -0.269 OA
ATOM     18  H9  UNL     1       6.177   9.955  24.281  0.00  0.00    +0.149 HD
BRANCH  16  19
ATOM     19  C6  UNL     1       7.700   9.460  26.504  0.00  0.00    +0.124 A 
ATOM     20  C7  UNL     1       7.419   8.145  26.852  0.00  0.00    +0.143 A 
ATOM     21  N2  UNL     1       7.249   8.049  28.194  0.00  0.00    -0.240 NA
ATOM     22  C8  UNL     1       7.379   9.326  28.604  0.00  0.00    +0.110 A 
ATOM     23  N3  UNL     1       7.639  10.180  27.635  0.00  0.00    -0.324 N 
ATOM     24  C9  UNL     1       8.217  11.417  28.109  0.00  0.00    +0.124 C 
ATOM     25  C10 UNL     1       8.214  11.254  29.651  0.00  0.00    +0.029 C 
ATOM     26  C11 UNL     1       7.676   9.832  29.957  0.00  0.00    +0.076 C 
ENDBRANCH  16  19
ENDBRANCH  14  15
ENDBRANCH   1  14
TORSDOF 7
ENDMDL
