MODEL 1
REMARK VINA RESULT:    -7.005      0.000      0.000
REMARK INTER + INTRA:          -8.652
REMARK INTER:                  -8.234
REMARK INTRA:                  -0.418
REMARK UNBOUND:                -0.418
REMARK  Name = /home/qwerty/github/datacon2025hack/step_04_hit_selection/docking/ligands/lig_591.pdb
REMARK  6 active torsions:
REMARK  status: ('A' for Active; 'I' for Inactive)
REMARK    1  A    between atoms: C1_1  and  C2_2
REMARK    2  A    between atoms: C4_4  and  C5_5
REMARK    3  A    between atoms: C8_10  and  N2_11
REMARK    4  A    between atoms: N4_17  and  C12_18
REMARK    5  A    between atoms: C12_18  and  C13_19
REMARK    6  A    between atoms: C12_18  and  C14_20
REMARK                            x       y       z     vdW  Elec       q    Type
REMARK                         _______ _______ _______ _____ _____    ______ ____
ROOT
ATOM      1  C5  UNL     1      10.120   8.202  21.296  0.00  0.00    +0.267 C 
ATOM      2  O1  UNL     1      10.381   9.232  20.617  0.00  0.00    -0.268 OA
ATOM      3  N1  UNL     1       9.467   8.342  22.573  0.00  0.00    -0.296 N 
ATOM      4  C6  UNL     1       8.441   9.383  22.729  0.00  0.00    +0.110 C 
ATOM      5  C7  UNL     1       7.868   9.403  24.151  0.00  0.00    +0.041 C 
ATOM      6  C8  UNL     1       9.011   9.434  25.182  0.00  0.00    +0.081 C 
ATOM      7  C17 UNL     1      10.047   8.296  24.978  0.00  0.00    +0.041 C 
ATOM      8  C18 UNL     1       9.820   7.471  23.704  0.00  0.00    +0.110 C 
ENDROOT
BRANCH   6   9
ATOM      9  N2  UNL     1       8.481   9.419  26.549  0.00  0.00    -0.276 N 
ATOM     10  C9  UNL     1       7.462   8.535  27.067  0.00  0.00    +0.303 C 
ATOM     11  O2  UNL     1       7.148   7.444  26.522  0.00  0.00    -0.253 OA
ATOM     12  N3  UNL     1       6.844   9.007  28.276  0.00  0.00    -0.293 N 
ATOM     13  C10 UNL     1       7.788  10.041  28.644  0.00  0.00    +0.110 C 
ATOM     14  C11 UNL     1       7.455  11.300  29.394  0.00  0.00    +0.109 C 
ATOM     15  N4  UNL     1       8.572  12.211  28.995  0.00  0.00    -0.296 NA
ATOM     16  C15 UNL     1       9.186  11.646  27.755  0.00  0.00    +0.109 C 
ATOM     17  C16 UNL     1       8.182  10.607  27.326  0.00  0.00    +0.113 C 
ATOM     18  H10 UNL     1       6.294   8.418  28.940  0.00  0.00    +0.151 HD
BRANCH  15  19
ATOM     19  C12 UNL     1       8.232  13.655  28.909  0.00  0.00    +0.051 C 
ATOM     20  C13 UNL     1       7.817  14.132  27.502  0.00  0.00    +0.024 C 
ATOM     21  C14 UNL     1       7.154  14.010  29.940  0.00  0.00    +0.024 C 
ENDBRANCH  15  19
ENDBRANCH   6   9
BRANCH   1  25
ATOM     22  C1  UNL     1      12.647   4.133  19.760  0.00  0.00    +0.065 C 
ATOM     23  C2  UNL     1      11.577   5.139  20.041  0.00  0.00    +0.034 A 
ATOM     24  C3  UNL     1      11.762   6.388  20.594  0.00  0.00    +0.057 A 
ATOM     25  C4  UNL     1      10.476   6.879  20.750  0.00  0.00    +0.147 A 
ATOM     26  N5  UNL     1       9.582   5.969  20.312  0.00  0.00    -0.169 NA
ATOM     27  N6  UNL     1      10.260   4.916  19.886  0.00  0.00    -0.281 N 
ATOM     28  H28 UNL     1       9.821   4.045  19.514  0.00  0.00    +0.189 HD
ENDBRANCH   1  25
TORSDOF 3
ENDMDL
MODEL 2
REMARK VINA RESULT:    -6.814      7.644     12.181
REMARK INTER + INTRA:          -8.427
REMARK INTER:                  -8.057
REMARK INTRA:                  -0.370
REMARK UNBOUND:                -0.418
REMARK  Name = /home/qwerty/github/datacon2025hack/step_04_hit_selection/docking/ligands/lig_591.pdb
REMARK  6 active torsions:
REMARK  status: ('A' for Active; 'I' for Inactive)
REMARK    1  A    between atoms: C1_1  and  C2_2
REMARK    2  A    between atoms: C4_4  and  C5_5
REMARK    3  A    between atoms: C8_10  and  N2_11
REMARK    4  A    between atoms: N4_17  and  C12_18
REMARK    5  A    between atoms: C12_18  and  C13_19
REMARK    6  A    between atoms: C12_18  and  C14_20
REMARK                            x       y       z     vdW  Elec       q    Type
REMARK                         _______ _______ _______ _____ _____    ______ ____
ROOT
ATOM      1  C5  UNL     1      13.595  12.862  36.008  0.00  0.00    +0.267 C 
ATOM      2  O1  UNL     1      12.597  12.723  36.765  0.00  0.00    -0.268 OA
ATOM      3  N1  UNL     1      13.402  13.335  34.660  0.00  0.00    -0.296 N 
ATOM      4  C6  UNL     1      12.372  14.355  34.412  0.00  0.00    +0.110 C 
ATOM      5  C7  UNL     1      12.290  14.725  32.927  0.00  0.00    +0.041 C 
ATOM      6  C8  UNL     1      12.187  13.452  32.069  0.00  0.00    +0.081 C 
ATOM      7  C17 UNL     1      13.316  12.426  32.360  0.00  0.00    +0.041 C 
ATOM      8  C18 UNL     1      14.208  12.808  33.549  0.00  0.00    +0.110 C 
ENDROOT
BRANCH   6   9
ATOM      9  N2  UNL     1      12.141  13.786  30.642  0.00  0.00    -0.276 N 
ATOM     10  C9  UNL     1      12.926  14.797  29.970  0.00  0.00    +0.303 C 
ATOM     11  O2  UNL     1      13.991  15.277  30.443  0.00  0.00    -0.253 OA
ATOM     12  N3  UNL     1      12.389  15.198  28.698  0.00  0.00    -0.293 N 
ATOM     13  C10 UNL     1      11.440  14.126  28.486  0.00  0.00    +0.110 C 
ATOM     14  C11 UNL     1      10.149  14.242  27.725  0.00  0.00    +0.109 C 
ATOM     15  N4  UNL     1       9.345  13.116  28.293  0.00  0.00    -0.296 NA
ATOM     16  C15 UNL     1       9.975  12.731  29.593  0.00  0.00    +0.109 C 
ATOM     17  C16 UNL     1      10.925  13.870  29.858  0.00  0.00    +0.113 C 
ATOM     18  H10 UNL     1      12.920  15.700  27.952  0.00  0.00    +0.151 HD
BRANCH  15  19
ATOM     19  C12 UNL     1       7.878  13.338  28.363  0.00  0.00    +0.051 C 
ATOM     20  C13 UNL     1       7.361  13.771  29.751  0.00  0.00    +0.024 C 
ATOM     21  C14 UNL     1       7.439  14.338  27.287  0.00  0.00    +0.024 C 
ENDBRANCH  15  19
ENDBRANCH   6   9
BRANCH   1  25
ATOM     22  C1  UNL     1      17.740  10.475  37.565  0.00  0.00    +0.065 C 
ATOM     23  C2  UNL     1      16.712  11.515  37.253  0.00  0.00    +0.034 A 
ATOM     24  C3  UNL     1      15.450  11.285  36.749  0.00  0.00    +0.057 A 
ATOM     25  C4  UNL     1      14.938  12.554  36.535  0.00  0.00    +0.147 A 
ATOM     26  N5  UNL     1      15.848  13.482  36.894  0.00  0.00    -0.169 NA
ATOM     27  N6  UNL     1      16.922  12.842  37.327  0.00  0.00    -0.281 N 
ATOM     28  H28 UNL     1      17.797  13.311  37.648  0.00  0.00    +0.189 HD
ENDBRANCH   1  25
TORSDOF 3
ENDMDL
MODEL 3
REMARK VINA RESULT:    -6.612     14.318     17.242
REMARK INTER + INTRA:          -8.190
REMARK INTER:                  -7.681
REMARK INTRA:                  -0.509
REMARK UNBOUND:                -0.418
REMARK  Name = /home/qwerty/github/datacon2025hack/step_04_hit_selection/docking/ligands/lig_591.pdb
REMARK  6 active torsions:
REMARK  status: ('A' for Active; 'I' for Inactive)
REMARK    1  A    between atoms: C1_1  and  C2_2
REMARK    2  A    between atoms: C4_4  and  C5_5
REMARK    3  A    between atoms: C8_10  and  N2_11
REMARK    4  A    between atoms: N4_17  and  C12_18
REMARK    5  A    between atoms: C12_18  and  C13_19
REMARK    6  A    between atoms: C12_18  and  C14_20
REMARK                            x       y       z     vdW  Elec       q    Type
REMARK                         _______ _______ _______ _____ _____    ______ ____
ROOT
ATOM      1  C5  UNL     1      20.693   8.201  34.628  0.00  0.00    +0.267 C 
ATOM      2  O1  UNL     1      21.260   9.022  33.857  0.00  0.00    -0.268 OA
ATOM      3  N1  UNL     1      20.731   6.795  34.317  0.00  0.00    -0.296 N 
ATOM      4  C6  UNL     1      21.953   6.238  33.718  0.00  0.00    +0.110 C 
ATOM      5  C7  UNL     1      21.812   4.738  33.437  0.00  0.00    +0.041 C 
ATOM      6  C8  UNL     1      20.507   4.464  32.667  0.00  0.00    +0.081 C 
ATOM      7  C17 UNL     1      19.252   5.056  33.363  0.00  0.00    +0.041 C 
ATOM      8  C18 UNL     1      19.573   5.928  34.584  0.00  0.00    +0.110 C 
ENDROOT
BRANCH   6   9
ATOM      9  N2  UNL     1      20.339   3.029  32.418  0.00  0.00    -0.276 N 
ATOM     10  C9  UNL     1      20.255   1.988  33.417  0.00  0.00    +0.303 C 
ATOM     11  O2  UNL     1      19.965   2.205  34.624  0.00  0.00    -0.253 OA
ATOM     12  N3  UNL     1      20.518   0.670  32.905  0.00  0.00    -0.293 N 
ATOM     13  C10 UNL     1      20.417   0.936  31.485  0.00  0.00    +0.110 C 
ATOM     14  C11 UNL     1      21.169   0.210  30.406  0.00  0.00    +0.109 C 
ATOM     15  N4  UNL     1      21.161   1.206  29.290  0.00  0.00    -0.296 NA
ATOM     16  C15 UNL     1      20.851   2.541  29.887  0.00  0.00    +0.109 C 
ATOM     17  C16 UNL     1      21.012   2.294  31.365  0.00  0.00    +0.113 C 
ATOM     18  H10 UNL     1      20.257  -0.223  33.379  0.00  0.00    +0.151 HD
BRANCH  15  19
ATOM     19  C12 UNL     1      22.350   1.192  28.399  0.00  0.00    +0.051 C 
ATOM     20  C13 UNL     1      22.543   2.478  27.570  0.00  0.00    +0.024 C 
ATOM     21  C14 UNL     1      23.615   0.872  29.204  0.00  0.00    +0.024 C 
ENDBRANCH  15  19
ENDBRANCH   6   9
BRANCH   1  25
ATOM     22  C1  UNL     1      17.373  10.219  37.823  0.00  0.00    +0.065 C 
ATOM     23  C2  UNL     1      18.603   9.626  37.212  0.00  0.00    +0.034 A 
ATOM     24  C3  UNL     1      18.784   9.328  35.878  0.00  0.00    +0.057 A 
ATOM     25  C4  UNL     1      20.022   8.709  35.840  0.00  0.00    +0.147 A 
ATOM     26  N5  UNL     1      20.543   8.646  37.082  0.00  0.00    -0.169 NA
ATOM     27  N6  UNL     1      19.673   9.203  37.909  0.00  0.00    -0.281 N 
ATOM     28  H28 UNL     1      19.803   9.272  38.942  0.00  0.00    +0.189 HD
ENDBRANCH   1  25
TORSDOF 3
ENDMDL
MODEL 4
REMARK VINA RESULT:    -6.413      9.839     13.191
REMARK INTER + INTRA:          -7.955
REMARK INTER:                  -7.461
REMARK INTRA:                  -0.495
REMARK UNBOUND:                -0.418
REMARK  Name = /home/qwerty/github/datacon2025hack/step_04_hit_selection/docking/ligands/lig_591.pdb
REMARK  6 active torsions:
REMARK  status: ('A' for Active; 'I' for Inactive)
REMARK    1  A    between atoms: C1_1  and  C2_2
REMARK    2  A    between atoms: C4_4  and  C5_5
REMARK    3  A    between atoms: C8_10  and  N2_11
REMARK    4  A    between atoms: N4_17  and  C12_18
REMARK    5  A    between atoms: C12_18  and  C13_19
REMARK    6  A    between atoms: C12_18  and  C14_20
REMARK                            x       y       z     vdW  Elec       q    Type
REMARK                         _______ _______ _______ _____ _____    ______ ____
ROOT
ATOM      1  C5  UNL     1      15.354   1.448  22.885  0.00  0.00    +0.267 C 
ATOM      2  O1  UNL     1      14.573   0.741  23.578  0.00  0.00    -0.268 OA
ATOM      3  N1  UNL     1      16.717   1.630  23.316  0.00  0.00    -0.296 N 
ATOM      4  C6  UNL     1      17.410   0.501  23.954  0.00  0.00    +0.110 C 
ATOM      5  C7  UNL     1      18.839   0.875  24.366  0.00  0.00    +0.041 C 
ATOM      6  C8  UNL     1      18.831   2.191  25.165  0.00  0.00    +0.081 C 
ATOM      7  C17 UNL     1      18.106   3.349  24.428  0.00  0.00    +0.041 C 
ATOM      8  C18 UNL     1      17.404   2.918  23.134  0.00  0.00    +0.110 C 
ENDROOT
BRANCH   6   9
ATOM      9  N2  UNL     1      20.194   2.582  25.538  0.00  0.00    -0.276 N 
ATOM     10  C9  UNL     1      21.281   2.883  24.634  0.00  0.00    +0.303 C 
ATOM     11  O2  UNL     1      21.112   3.187  23.423  0.00  0.00    -0.253 OA
ATOM     12  N3  UNL     1      22.580   2.817  25.247  0.00  0.00    -0.293 N 
ATOM     13  C10 UNL     1      22.192   2.808  26.641  0.00  0.00    +0.110 C 
ATOM     14  C11 UNL     1      22.948   2.137  27.752  0.00  0.00    +0.109 C 
ATOM     15  N4  UNL     1      21.882   1.929  28.781  0.00  0.00    -0.296 NA
ATOM     16  C15 UNL     1      20.564   2.042  28.084  0.00  0.00    +0.109 C 
ATOM     17  C16 UNL     1      20.948   1.992  26.627  0.00  0.00    +0.113 C 
ATOM     18  H10 UNL     1      23.451   3.243  24.858  0.00  0.00    +0.151 HD
BRANCH  15  19
ATOM     19  C12 UNL     1      22.027   0.720  29.631  0.00  0.00    +0.051 C 
ATOM     20  C13 UNL     1      20.743   0.308  30.382  0.00  0.00    +0.024 C 
ATOM     21  C14 UNL     1      22.567  -0.452  28.802  0.00  0.00    +0.024 C 
ENDBRANCH  15  19
ENDBRANCH   6   9
BRANCH   1  25
ATOM     22  C1  UNL     1      12.907   4.317  19.556  0.00  0.00    +0.065 C 
ATOM     23  C2  UNL     1      13.752   3.265  20.199  0.00  0.00    +0.034 A 
ATOM     24  C3  UNL     1      13.892   3.051  21.554  0.00  0.00    +0.057 A 
ATOM     25  C4  UNL     1      14.849   2.053  21.638  0.00  0.00    +0.147 A 
ATOM     26  N5  UNL     1      15.252   1.698  20.401  0.00  0.00    -0.169 NA
ATOM     27  N6  UNL     1      14.582   2.441  19.534  0.00  0.00    -0.281 N 
ATOM     28  H28 UNL     1      14.709   2.396  18.499  0.00  0.00    +0.189 HD
ENDBRANCH   1  25
TORSDOF 3
ENDMDL
MODEL 5
REMARK VINA RESULT:    -6.390     14.125     15.062
REMARK INTER + INTRA:          -7.929
REMARK INTER:                  -7.287
REMARK INTRA:                  -0.641
REMARK UNBOUND:                -0.418
REMARK  Name = /home/qwerty/github/datacon2025hack/step_04_hit_selection/docking/ligands/lig_591.pdb
REMARK  6 active torsions:
REMARK  status: ('A' for Active; 'I' for Inactive)
REMARK    1  A    between atoms: C1_1  and  C2_2
REMARK    2  A    between atoms: C4_4  and  C5_5
REMARK    3  A    between atoms: C8_10  and  N2_11
REMARK    4  A    between atoms: N4_17  and  C12_18
REMARK    5  A    between atoms: C12_18  and  C13_19
REMARK    6  A    between atoms: C12_18  and  C14_20
REMARK                            x       y       z     vdW  Elec       q    Type
REMARK                         _______ _______ _______ _____ _____    ______ ____
ROOT
ATOM      1  C5  UNL     1      21.316   1.806  28.244  0.00  0.00    +0.267 C 
ATOM      2  O1  UNL     1      20.859   0.642  28.399  0.00  0.00    -0.268 OA
ATOM      3  N1  UNL     1      21.636   2.603  29.401  0.00  0.00    -0.296 N 
ATOM      4  C6  UNL     1      22.209   1.935  30.579  0.00  0.00    +0.110 C 
ATOM      5  C7  UNL     1      22.468   2.925  31.720  0.00  0.00    +0.041 C 
ATOM      6  C8  UNL     1      21.209   3.772  31.981  0.00  0.00    +0.081 C 
ATOM      7  C17 UNL     1      20.668   4.470  30.704  0.00  0.00    +0.041 C 
ATOM      8  C18 UNL     1      21.389   4.053  29.416  0.00  0.00    +0.110 C 
ENDROOT
BRANCH   6   9
ATOM      9  N2  UNL     1      21.449   4.749  33.048  0.00  0.00    -0.276 N 
ATOM     10  C9  UNL     1      20.556   5.068  34.138  0.00  0.00    +0.303 C 
ATOM     11  O2  UNL     1      19.621   4.312  34.513  0.00  0.00    -0.253 OA
ATOM     12  N3  UNL     1      20.840   6.327  34.771  0.00  0.00    -0.293 N 
ATOM     13  C10 UNL     1      22.161   6.578  34.234  0.00  0.00    +0.110 C 
ATOM     14  C11 UNL     1      22.752   7.933  33.969  0.00  0.00    +0.109 C 
ATOM     15  N4  UNL     1      23.790   7.629  32.935  0.00  0.00    -0.296 NA
ATOM     16  C15 UNL     1      23.452   6.299  32.344  0.00  0.00    +0.109 C 
ATOM     17  C16 UNL     1      22.053   6.052  32.847  0.00  0.00    +0.113 C 
ATOM     18  H10 UNL     1      20.500   6.616  35.716  0.00  0.00    +0.151 HD
BRANCH  15  19
ATOM     19  C12 UNL     1      24.045   8.699  31.937  0.00  0.00    +0.051 C 
ATOM     20  C13 UNL     1      22.862   9.667  31.722  0.00  0.00    +0.024 C 
ATOM     21  C14 UNL     1      25.317   9.474  32.300  0.00  0.00    +0.024 C 
ENDBRANCH  15  19
ENDBRANCH   6   9
BRANCH   1  25
ATOM     22  C1  UNL     1      20.637   3.310  23.491  0.00  0.00    +0.065 C 
ATOM     23  C2  UNL     1      21.240   2.916  24.802  0.00  0.00    +0.034 A 
ATOM     24  C3  UNL     1      20.560   2.409  25.889  0.00  0.00    +0.057 A 
ATOM     25  C4  UNL     1      21.529   2.312  26.874  0.00  0.00    +0.147 A 
ATOM     26  N5  UNL     1      22.716   2.737  26.394  0.00  0.00    -0.169 NA
ATOM     27  N6  UNL     1      22.529   3.104  25.136  0.00  0.00    -0.281 N 
ATOM     28  H28 UNL     1      23.275   3.499  24.522  0.00  0.00    +0.189 HD
ENDBRANCH   1  25
TORSDOF 3
ENDMDL
MODEL 6
REMARK VINA RESULT:    -6.320      1.850      3.514
REMARK INTER + INTRA:          -7.846
REMARK INTER:                  -7.145
REMARK INTRA:                  -0.701
REMARK UNBOUND:                -0.418
REMARK  Name = /home/qwerty/github/datacon2025hack/step_04_hit_selection/docking/ligands/lig_591.pdb
REMARK  6 active torsions:
REMARK  status: ('A' for Active; 'I' for Inactive)
REMARK    1  A    between atoms: C1_1  and  C2_2
REMARK    2  A    between atoms: C4_4  and  C5_5
REMARK    3  A    between atoms: C8_10  and  N2_11
REMARK    4  A    between atoms: N4_17  and  C12_18
REMARK    5  A    between atoms: C12_18  and  C13_19
REMARK    6  A    between atoms: C12_18  and  C14_20
REMARK                            x       y       z     vdW  Elec       q    Type
REMARK                         _______ _______ _______ _____ _____    ______ ____
ROOT
ATOM      1  C5  UNL     1       9.586   8.882  21.398  0.00  0.00    +0.267 C 
ATOM      2  O1  UNL     1       9.793   9.907  20.695  0.00  0.00    -0.268 OA
ATOM      3  N1  UNL     1       8.948   9.020  22.683  0.00  0.00    -0.296 N 
ATOM      4  C6  UNL     1       7.881  10.020  22.835  0.00  0.00    +0.110 C 
ATOM      5  C7  UNL     1       7.330  10.046  24.265  0.00  0.00    +0.041 C 
ATOM      6  C8  UNL     1       8.487  10.145  25.276  0.00  0.00    +0.081 C 
ATOM      7  C17 UNL     1       9.567   9.048  25.079  0.00  0.00    +0.041 C 
ATOM      8  C18 UNL     1       9.355   8.188  23.825  0.00  0.00    +0.110 C 
ENDROOT
BRANCH   6   9
ATOM      9  N2  UNL     1       7.980  10.136  26.652  0.00  0.00    -0.276 N 
ATOM     10  C9  UNL     1       8.157  11.175  27.641  0.00  0.00    +0.303 C 
ATOM     11  O2  UNL     1       8.463  12.363  27.352  0.00  0.00    -0.253 OA
ATOM     12  N3  UNL     1       7.938  10.734  28.992  0.00  0.00    -0.293 N 
ATOM     13  C10 UNL     1       7.278   9.472  28.732  0.00  0.00    +0.110 C 
ATOM     14  C11 UNL     1       7.348   8.255  29.610  0.00  0.00    +0.109 C 
ATOM     15  N4  UNL     1       7.030   7.153  28.649  0.00  0.00    -0.296 NA
ATOM     16  C15 UNL     1       7.249   7.688  27.271  0.00  0.00    +0.109 C 
ATOM     17  C16 UNL     1       7.989   8.976  27.523  0.00  0.00    +0.113 C 
ATOM     18  H10 UNL     1       7.757  11.362  29.807  0.00  0.00    +0.151 HD
BRANCH  15  19
ATOM     19  C12 UNL     1       7.691   5.850  28.915  0.00  0.00    +0.051 C 
ATOM     20  C13 UNL     1       8.044   5.041  27.649  0.00  0.00    +0.024 C 
ATOM     21  C14 UNL     1       8.934   6.052  29.790  0.00  0.00    +0.024 C 
ENDBRANCH  15  19
ENDBRANCH   6   9
BRANCH   1  25
ATOM     22  C1  UNL     1      12.258   4.886  19.917  0.00  0.00    +0.065 C 
ATOM     23  C2  UNL     1      11.152   5.855  20.187  0.00  0.00    +0.034 A 
ATOM     24  C3  UNL     1      11.292   7.120  20.717  0.00  0.00    +0.057 A 
ATOM     25  C4  UNL     1       9.989   7.564  20.873  0.00  0.00    +0.147 A 
ATOM     26  N5  UNL     1       9.128   6.613  20.456  0.00  0.00    -0.169 NA
ATOM     27  N6  UNL     1       9.843   5.579  20.044  0.00  0.00    -0.281 N 
ATOM     28  H28 UNL     1       9.436   4.686  19.690  0.00  0.00    +0.189 HD
ENDBRANCH   1  25
TORSDOF 3
ENDMDL
MODEL 7
REMARK VINA RESULT:    -6.292      7.789     12.150
REMARK INTER + INTRA:          -7.813
REMARK INTER:                  -7.180
REMARK INTRA:                  -0.633
REMARK UNBOUND:                -0.418
REMARK  Name = /home/qwerty/github/datacon2025hack/step_04_hit_selection/docking/ligands/lig_591.pdb
REMARK  6 active torsions:
REMARK  status: ('A' for Active; 'I' for Inactive)
REMARK    1  A    between atoms: C1_1  and  C2_2
REMARK    2  A    between atoms: C4_4  and  C5_5
REMARK    3  A    between atoms: C8_10  and  N2_11
REMARK    4  A    between atoms: N4_17  and  C12_18
REMARK    5  A    between atoms: C12_18  and  C13_19
REMARK    6  A    between atoms: C12_18  and  C14_20
REMARK                            x       y       z     vdW  Elec       q    Type
REMARK                         _______ _______ _______ _____ _____    ______ ____
ROOT
ATOM      1  C5  UNL     1      12.317  12.704  35.876  0.00  0.00    +0.267 C 
ATOM      2  O1  UNL     1      11.305  12.391  36.559  0.00  0.00    -0.268 OA
ATOM      3  N1  UNL     1      12.138  13.264  34.560  0.00  0.00    -0.296 N 
ATOM      4  C6  UNL     1      11.010  14.179  34.331  0.00  0.00    +0.110 C 
ATOM      5  C7  UNL     1      10.960  14.662  32.878  0.00  0.00    +0.041 C 
ATOM      6  C8  UNL     1      11.050  13.462  31.918  0.00  0.00    +0.081 C 
ATOM      7  C17 UNL     1      12.275  12.549  32.195  0.00  0.00    +0.041 C 
ATOM      8  C18 UNL     1      13.056  12.926  33.461  0.00  0.00    +0.110 C 
ENDROOT
BRANCH   6   9
ATOM      9  N2  UNL     1      11.038  13.909  30.521  0.00  0.00    -0.276 N 
ATOM     10  C9  UNL     1      10.051  13.573  29.520  0.00  0.00    +0.303 C 
ATOM     11  O2  UNL     1       8.898  13.147  29.797  0.00  0.00    -0.253 OA
ATOM     12  N3  UNL     1      10.499  13.784  28.170  0.00  0.00    -0.293 N 
ATOM     13  C10 UNL     1      11.673  14.592  28.426  0.00  0.00    +0.110 C 
ATOM     14  C11 UNL     1      12.912  14.624  27.578  0.00  0.00    +0.109 C 
ATOM     15  N4  UNL     1      13.946  15.105  28.547  0.00  0.00    -0.296 NA
ATOM     16  C15 UNL     1      13.404  14.885  29.922  0.00  0.00    +0.109 C 
ATOM     17  C16 UNL     1      12.214  13.994  29.676  0.00  0.00    +0.113 C 
ATOM     18  H10 UNL     1       9.877  13.858  27.334  0.00  0.00    +0.151 HD
BRANCH  15  19
ATOM     19  C12 UNL     1      15.322  14.584  28.338  0.00  0.00    +0.051 C 
ATOM     20  C13 UNL     1      16.208  15.464  27.431  0.00  0.00    +0.024 C 
ATOM     21  C14 UNL     1      16.008  14.336  29.686  0.00  0.00    +0.024 C 
ENDBRANCH  15  19
ENDBRANCH   6   9
BRANCH   1  25
ATOM     22  C1  UNL     1      16.591  10.662  37.568  0.00  0.00    +0.065 C 
ATOM     23  C2  UNL     1      15.487  11.613  37.232  0.00  0.00    +0.034 A 
ATOM     24  C3  UNL     1      14.274  11.282  36.667  0.00  0.00    +0.057 A 
ATOM     25  C4  UNL     1      13.658  12.505  36.456  0.00  0.00    +0.147 A 
ATOM     26  N5  UNL     1      14.464  13.502  36.876  0.00  0.00    -0.169 NA
ATOM     27  N6  UNL     1      15.572  12.951  37.342  0.00  0.00    -0.281 N 
ATOM     28  H28 UNL     1      16.386  13.489  37.713  0.00  0.00    +0.189 HD
ENDBRANCH   1  25
TORSDOF 3
ENDMDL
MODEL 8
REMARK VINA RESULT:    -6.279      6.886     11.479
REMARK INTER + INTRA:          -7.798
REMARK INTER:                  -7.288
REMARK INTRA:                  -0.510
REMARK UNBOUND:                -0.418
REMARK  Name = /home/qwerty/github/datacon2025hack/step_04_hit_selection/docking/ligands/lig_591.pdb
REMARK  6 active torsions:
REMARK  status: ('A' for Active; 'I' for Inactive)
REMARK    1  A    between atoms: C1_1  and  C2_2
REMARK    2  A    between atoms: C4_4  and  C5_5
REMARK    3  A    between atoms: C8_10  and  N2_11
REMARK    4  A    between atoms: N4_17  and  C12_18
REMARK    5  A    between atoms: C12_18  and  C13_19
REMARK    6  A    between atoms: C12_18  and  C14_20
REMARK                            x       y       z     vdW  Elec       q    Type
REMARK                         _______ _______ _______ _____ _____    ______ ____
ROOT
ATOM      1  C5  UNL     1      11.617   4.271  21.044  0.00  0.00    +0.267 C 
ATOM      2  O1  UNL     1      11.920   5.196  20.244  0.00  0.00    -0.268 OA
ATOM      3  N1  UNL     1      12.641   3.366  21.501  0.00  0.00    -0.296 N 
ATOM      4  C6  UNL     1      13.989   3.897  21.753  0.00  0.00    +0.110 C 
ATOM      5  C7  UNL     1      14.953   2.797  22.212  0.00  0.00    +0.041 C 
ATOM      6  C8  UNL     1      14.878   1.594  21.255  0.00  0.00    +0.081 C 
ATOM      7  C17 UNL     1      13.433   1.065  21.050  0.00  0.00    +0.041 C 
ATOM      8  C18 UNL     1      12.355   1.938  21.707  0.00  0.00    +0.110 C 
ENDROOT
BRANCH   6   9
ATOM      9  N2  UNL     1      15.770   0.518  21.698  0.00  0.00    -0.276 N 
ATOM     10  C9  UNL     1      16.475  -0.418  20.852  0.00  0.00    +0.303 C 
ATOM     11  O2  UNL     1      16.695  -0.218  19.628  0.00  0.00    -0.253 OA
ATOM     12  N3  UNL     1      16.921  -1.600  21.540  0.00  0.00    -0.293 N 
ATOM     13  C10 UNL     1      16.754  -1.162  22.910  0.00  0.00    +0.110 C 
ATOM     14  C11 UNL     1      16.428  -2.051  24.076  0.00  0.00    +0.109 C 
ATOM     15  N4  UNL     1      15.816  -1.090  25.045  0.00  0.00    -0.296 NA
ATOM     16  C15 UNL     1      15.406   0.121  24.271  0.00  0.00    +0.109 C 
ATOM     17  C16 UNL     1      15.517  -0.339  22.841  0.00  0.00    +0.113 C 
ATOM     18  H10 UNL     1      17.655  -2.257  21.193  0.00  0.00    +0.151 HD
BRANCH  15  19
ATOM     19  C12 UNL     1      14.756  -1.644  25.926  0.00  0.00    +0.051 C 
ATOM     20  C13 UNL     1      13.498  -0.758  26.050  0.00  0.00    +0.024 C 
ATOM     21  C14 UNL     1      14.376  -3.060  25.476  0.00  0.00    +0.024 C 
ENDBRANCH  15  19
ENDBRANCH   6   9
BRANCH   1  25
ATOM     22  C1  UNL     1       7.493   3.808  23.886  0.00  0.00    +0.065 C 
ATOM     23  C2  UNL     1       8.440   3.905  22.733  0.00  0.00    +0.034 A 
ATOM     24  C3  UNL     1       9.815   3.962  22.815  0.00  0.00    +0.057 A 
ATOM     25  C4  UNL     1      10.221   4.155  21.505  0.00  0.00    +0.147 A 
ATOM     26  N5  UNL     1       9.144   4.207  20.694  0.00  0.00    -0.169 NA
ATOM     27  N6  UNL     1       8.068   4.057  21.450  0.00  0.00    -0.281 N 
ATOM     28  H28 UNL     1       7.088   4.081  21.090  0.00  0.00    +0.189 HD
ENDBRANCH   1  25
TORSDOF 3
ENDMDL
MODEL 9
REMARK VINA RESULT:    -6.275     14.340     17.201
REMARK INTER + INTRA:          -7.794
REMARK INTER:                  -7.107
REMARK INTRA:                  -0.687
REMARK UNBOUND:                -0.418
REMARK  Name = /home/qwerty/github/datacon2025hack/step_04_hit_selection/docking/ligands/lig_591.pdb
REMARK  6 active torsions:
REMARK  status: ('A' for Active; 'I' for Inactive)
REMARK    1  A    between atoms: C1_1  and  C2_2
REMARK    2  A    between atoms: C4_4  and  C5_5
REMARK    3  A    between atoms: C8_10  and  N2_11
REMARK    4  A    between atoms: N4_17  and  C12_18
REMARK    5  A    between atoms: C12_18  and  C13_19
REMARK    6  A    between atoms: C12_18  and  C14_20
REMARK                            x       y       z     vdW  Elec       q    Type
REMARK                         _______ _______ _______ _____ _____    ______ ____
ROOT
ATOM      1  C5  UNL     1      17.748  10.300  37.124  0.00  0.00    +0.267 C 
ATOM      2  O1  UNL     1      17.378  10.025  38.297  0.00  0.00    -0.268 OA
ATOM      3  N1  UNL     1      18.690   9.438  36.457  0.00  0.00    -0.296 N 
ATOM      4  C6  UNL     1      18.601   7.988  36.683  0.00  0.00    +0.110 C 
ATOM      5  C7  UNL     1      19.687   7.228  35.915  0.00  0.00    +0.041 C 
ATOM      6  C8  UNL     1      21.065   7.860  36.182  0.00  0.00    +0.081 C 
ATOM      7  C17 UNL     1      21.101   9.386  35.901  0.00  0.00    +0.041 C 
ATOM      8  C18 UNL     1      19.728   9.989  35.573  0.00  0.00    +0.110 C 
ENDROOT
BRANCH   6   9
ATOM      9  N2  UNL     1      22.113   7.166  35.428  0.00  0.00    -0.276 N 
ATOM     10  C9  UNL     1      23.263   6.486  35.980  0.00  0.00    +0.303 C 
ATOM     11  O2  UNL     1      23.333   6.101  37.177  0.00  0.00    -0.253 OA
ATOM     12  N3  UNL     1      24.322   6.274  35.031  0.00  0.00    -0.293 N 
ATOM     13  C10 UNL     1      23.607   6.545  33.802  0.00  0.00    +0.110 C 
ATOM     14  C11 UNL     1      24.210   7.114  32.549  0.00  0.00    +0.109 C 
ATOM     15  N4  UNL     1      23.020   7.714  31.869  0.00  0.00    -0.296 NA
ATOM     16  C15 UNL     1      21.953   7.877  32.902  0.00  0.00    +0.109 C 
ATOM     17  C16 UNL     1      22.697   7.656  34.194  0.00  0.00    +0.113 C 
ATOM     18  H10 UNL     1      25.103   5.589  35.144  0.00  0.00    +0.151 HD
BRANCH  15  19
ATOM     19  C12 UNL     1      23.282   8.930  31.058  0.00  0.00    +0.051 C 
ATOM     20  C13 UNL     1      22.087   9.901  30.955  0.00  0.00    +0.024 C 
ATOM     21  C14 UNL     1      24.526   9.660  31.578  0.00  0.00    +0.024 C 
ENDBRANCH  15  19
ENDBRANCH   6   9
BRANCH   1  25
ATOM     22  C1  UNL     1      14.994  13.386  34.261  0.00  0.00    +0.065 C 
ATOM     23  C2  UNL     1      16.025  12.820  35.185  0.00  0.00    +0.034 A 
ATOM     24  C3  UNL     1      16.190  11.488  35.499  0.00  0.00    +0.057 A 
ATOM     25  C4  UNL     1      17.186  11.492  36.461  0.00  0.00    +0.147 A 
ATOM     26  N5  UNL     1      17.588  12.758  36.700  0.00  0.00    -0.169 NA
ATOM     27  N6  UNL     1      16.875  13.556  35.923  0.00  0.00    -0.281 N 
ATOM     28  H28 UNL     1      16.957  14.597  35.915  0.00  0.00    +0.189 HD
ENDBRANCH   1  25
TORSDOF 3
ENDMDL
