REMARK  Name = /home/qwerty/github/datacon2025hack/step_04_hit_selection/docking/ligands/lig_491.pdb
REMARK  7 active torsions:
REMARK  status: ('A' for Active; 'I' for Inactive)
REMARK    1  A    between atoms: C1_1  and  C2_2
REMARK    2  A    between atoms: C2_2  and  N1_3
REMARK    3  A    between atoms: C2_2  and  C15_17
REMARK    4  A    between atoms: C3_4  and  C4_6
REMARK    5  A    between atoms: C7_9  and  C8_10
REMARK    6  A    between atoms: C18_20  and  N2_21
REMARK    7  A    between atoms: N3_24  and  C20_25
REMARK                            x       y       z     vdW  Elec       q    Type
REMARK                         _______ _______ _______ _____ _____    ______ ____
ROOT
ATOM      1  C15 UNL     1       0.321  -1.202  -2.451  0.00  0.00    -0.027 A 
ATOM      2  C16 UNL     1       0.048  -2.042  -1.358  0.00  0.00    +0.007 A 
ATOM      3  C17 UNL     1       1.014  -2.255  -0.371  0.00  0.00    +0.023 A 
ATOM      4  C18 UNL     1       2.269  -1.636  -0.457  0.00  0.00    +0.035 A 
ATOM      5  C28 UNL     1       2.556  -0.826  -1.570  0.00  0.00    +0.023 A 
ATOM      6  C29 UNL     1       1.589  -0.608  -2.555  0.00  0.00    +0.007 A 
ENDROOT
BRANCH   4   7
ATOM      7  N2  UNL     1       3.255  -1.905   0.555  0.00  0.00    -0.269 N 
ATOM      8  C19 UNL     1       4.287  -0.985   0.948  0.00  0.00    +0.308 C 
ATOM      9  O2  UNL     1       4.206   0.233   0.630  0.00  0.00    -0.252 OA
ATOM     10  N3  UNL     1       5.365  -1.446   1.775  0.00  0.00    -0.263 N 
ATOM     11  H19 UNL     1       3.187  -2.806   1.080  0.00  0.00    +0.156 HD
ATOM     12  H20 UNL     1       5.263  -2.375   2.242  0.00  0.00    +0.157 HD
BRANCH  10  13
ATOM     13  C20 UNL     1       6.564  -0.703   2.038  0.00  0.00    +0.074 A 
ATOM     14  C21 UNL     1       7.087   0.333   1.259  0.00  0.00    +0.039 A 
ATOM     15  C22 UNL     1       8.311   0.796   1.756  0.00  0.00    -0.009 A 
ATOM     16  C23 UNL     1       9.091   1.817   1.206  0.00  0.00    +0.009 A 
ATOM     17  C24 UNL     1      10.307   2.150   1.828  0.00  0.00    +0.001 A 
ATOM     18  C25 UNL     1      10.730   1.463   2.983  0.00  0.00    +0.001 A 
ATOM     19  C26 UNL     1       9.941   0.437   3.526  0.00  0.00    +0.016 A 
ATOM     20  C27 UNL     1       8.739   0.125   2.893  0.00  0.00    +0.021 A 
ATOM     21  S1  UNL     1       7.622  -1.057   3.309  0.00  0.00    -0.073 S 
ENDBRANCH  10  13
ENDBRANCH   4   7
BRANCH   1  23
ATOM     22  C1  UNL     1      -0.729  -2.203  -4.481  0.00  0.00    +0.033 C 
ATOM     23  C2  UNL     1      -0.706  -0.992  -3.544  0.00  0.00    +0.100 C 
BRANCH  23  24
ATOM     24  N1  UNL     1      -2.036  -0.758  -2.967  0.00  0.00    -0.305 N 
ATOM     25  C3  UNL     1      -2.338   0.425  -2.209  0.00  0.00    +0.245 C 
ATOM     26  O1  UNL     1      -1.511   1.379  -2.187  0.00  0.00    -0.270 OA
ATOM     27  H5  UNL     1      -2.799  -1.444  -3.158  0.00  0.00    +0.150 HD
BRANCH  25  28
ATOM     28  C4  UNL     1      -3.612   0.551  -1.464  0.00  0.00    +0.037 A 
ATOM     29  C5  UNL     1      -4.302  -0.586  -1.010  0.00  0.00    +0.013 A 
ATOM     30  C6  UNL     1      -5.505  -0.456  -0.309  0.00  0.00    +0.009 A 
ATOM     31  C7  UNL     1      -6.043   0.817  -0.033  0.00  0.00    -0.022 A 
ATOM     32  C13 UNL     1      -5.345   1.952  -0.486  0.00  0.00    +0.009 A 
ATOM     33  C14 UNL     1      -4.142   1.820  -1.185  0.00  0.00    +0.013 A 
BRANCH  31  34
ATOM     34  C8  UNL     1      -7.329   0.975   0.703  0.00  0.00    -0.044 C 
ATOM     35  C9  UNL     1      -7.895   0.040   1.453  0.00  0.00    -0.023 C 
ATOM     36  C10 UNL     1      -9.165   0.491   2.070  0.00  0.00    +0.028 C 
ATOM     37  C11 UNL     1      -9.410   1.874   1.467  0.00  0.00    +0.009 C 
ATOM     38  C12 UNL     1      -8.129   2.233   0.713  0.00  0.00    +0.036 C 
ENDBRANCH  31  34
ENDBRANCH  25  28
ENDBRANCH  23  24
ENDBRANCH   1  23
TORSDOF 6
