MODEL 1
REMARK VINA RESULT:    -6.470      0.000      0.000
REMARK INTER + INTRA:          -8.050
REMARK INTER:                  -7.605
REMARK INTRA:                  -0.445
REMARK UNBOUND:                -0.445
REMARK  Name = /home/qwerty/github/datacon2025hack/step_04_hit_selection/docking/ligands/lig_450.pdb
REMARK  4 active torsions:
REMARK  status: ('A' for Active; 'I' for Inactive)
REMARK    1  A    between atoms: C1_1  and  C2_2
REMARK    2  A    between atoms: C5_5  and  N1_6
REMARK    3  A    between atoms: C6_7  and  C7_9
REMARK    4  A    between atoms: N2_11  and  C8_12
REMARK                            x       y       z     vdW  Elec       q    Type
REMARK                         _______ _______ _______ _____ _____    ______ ____
ROOT
ATOM      1  C7  UNL     1      15.427   9.293  21.169  0.00  0.00    +0.303 C 
ATOM      2  O2  UNL     1      16.283   8.966  22.035  0.00  0.00    -0.265 OA
ATOM      3  N2  UNL     1      15.851   9.865  19.922  0.00  0.00    -0.276 N 
ATOM      4  H7  UNL     1      15.152  10.390  19.348  0.00  0.00    +0.155 HD
ENDROOT
BRANCH   3   5
ATOM      5  C8  UNL     1      17.233   9.974  19.554  0.00  0.00    +0.056 A 
ATOM      6  C9  UNL     1      17.834  11.250  19.536  0.00  0.00    +0.074 A 
ATOM      7  C10 UNL     1      19.175  11.339  19.176  0.00  0.00    +0.168 A 
ATOM      8  C11 UNL     1      19.901  10.246  18.834  0.00  0.00    +0.168 A 
ATOM      9  C12 UNL     1      19.348   8.971  18.814  0.00  0.00    +0.071 A 
ATOM     10  C13 UNL     1      17.992   8.831  19.170  0.00  0.00    +0.066 A 
ATOM     11 CL1  UNL     1      17.258   7.237  19.048  0.00  0.00    -0.081 Cl
ATOM     12  O3  UNL     1      21.192  10.629  18.524  0.00  0.00    -0.453 OA
ATOM     13  C14 UNL     1      21.281  12.053  18.684  0.00  0.00    +0.466 C 
ATOM     14  O4  UNL     1      19.973  12.464  19.100  0.00  0.00    -0.453 OA
ENDBRANCH   3   5
BRANCH   1  16
ATOM     15  N1  UNL     1      13.095  10.222  21.470  0.00  0.00    -0.276 N 
ATOM     16  C6  UNL     1      13.992   9.099  21.454  0.00  0.00    +0.303 C 
ATOM     17  O1  UNL     1      13.554   7.934  21.661  0.00  0.00    -0.265 OA
ATOM     18  H6  UNL     1      13.423  11.123  21.057  0.00  0.00    +0.155 HD
BRANCH  15  23
ATOM     19  C1  UNL     1       7.678  10.048  23.412  0.00  0.00    +0.044 C 
ATOM     20  C2  UNL     1       9.090  10.056  22.906  0.00  0.00    -0.049 A 
ATOM     21  C3  UNL     1      10.162  10.105  23.806  0.00  0.00    +0.005 A 
ATOM     22  C4  UNL     1      11.477  10.149  23.335  0.00  0.00    +0.025 A 
ATOM     23  C5  UNL     1      11.742  10.147  21.954  0.00  0.00    +0.052 A 
ATOM     24  C15 UNL     1      10.661  10.133  21.050  0.00  0.00    +0.062 A 
ATOM     25 CL2  UNL     1      10.925  10.137  19.310  0.00  0.00    -0.082 Cl
ATOM     26  C16 UNL     1       9.346  10.087  21.527  0.00  0.00    +0.025 A 
ENDBRANCH  15  23
ENDBRANCH   1  16
TORSDOF 3
ENDMDL
MODEL 2
REMARK VINA RESULT:    -6.381      9.886     11.488
REMARK INTER + INTRA:          -7.946
REMARK INTER:                  -7.395
REMARK INTRA:                  -0.550
REMARK UNBOUND:                -0.445
REMARK  Name = /home/qwerty/github/datacon2025hack/step_04_hit_selection/docking/ligands/lig_450.pdb
REMARK  4 active torsions:
REMARK  status: ('A' for Active; 'I' for Inactive)
REMARK    1  A    between atoms: C1_1  and  C2_2
REMARK    2  A    between atoms: C5_5  and  N1_6
REMARK    3  A    between atoms: C6_7  and  C7_9
REMARK    4  A    between atoms: N2_11  and  C8_12
REMARK                            x       y       z     vdW  Elec       q    Type
REMARK                         _______ _______ _______ _____ _____    ______ ____
ROOT
ATOM      1  C7  UNL     1      21.888   3.587  25.807  0.00  0.00    +0.303 C 
ATOM      2  O2  UNL     1      22.775   2.945  25.180  0.00  0.00    -0.265 OA
ATOM      3  N2  UNL     1      21.215   4.686  25.174  0.00  0.00    -0.276 N 
ATOM      4  H7  UNL     1      20.711   5.378  25.774  0.00  0.00    +0.155 HD
ENDROOT
BRANCH   3   5
ATOM      5  C8  UNL     1      21.416   5.022  23.795  0.00  0.00    +0.056 A 
ATOM      6  C9  UNL     1      22.392   5.985  23.464  0.00  0.00    +0.074 A 
ATOM      7  C10 UNL     1      22.574   6.301  22.121  0.00  0.00    +0.168 A 
ATOM      8  C11 UNL     1      21.838   5.723  21.140  0.00  0.00    +0.168 A 
ATOM      9  C12 UNL     1      20.850   4.785  21.418  0.00  0.00    +0.071 A 
ATOM     10  C13 UNL     1      20.627   4.434  22.764  0.00  0.00    +0.066 A 
ATOM     11 CL1  UNL     1      19.311   3.327  23.131  0.00  0.00    -0.081 Cl
ATOM     12  O3  UNL     1      22.230   6.223  19.914  0.00  0.00    -0.453 OA
ATOM     13  C14 UNL     1      23.281   7.175  20.140  0.00  0.00    +0.466 C 
ATOM     14  O4  UNL     1      23.468   7.193  21.561  0.00  0.00    -0.453 OA
ENDBRANCH   3   5
BRANCH   1  16
ATOM     15  N1  UNL     1      21.201   1.857  27.519  0.00  0.00    -0.276 N 
ATOM     16  C6  UNL     1      21.564   3.210  27.196  0.00  0.00    +0.303 C 
ATOM     17  O1  UNL     1      21.630   4.083  28.105  0.00  0.00    -0.265 OA
ATOM     18  H6  UNL     1      21.393   1.112  26.813  0.00  0.00    +0.155 HD
BRANCH  15  23
ATOM     19  C1  UNL     1      19.027   0.169  32.575  0.00  0.00    +0.044 C 
ATOM     20  C2  UNL     1      19.595   0.644  31.270  0.00  0.00    -0.049 A 
ATOM     21  C3  UNL     1      18.742   1.037  30.231  0.00  0.00    +0.005 A 
ATOM     22  C4  UNL     1      19.271   1.445  29.004  0.00  0.00    +0.025 A 
ATOM     23  C5  UNL     1      20.661   1.465  28.793  0.00  0.00    +0.052 A 
ATOM     24  C15 UNL     1      21.515   1.035  29.828  0.00  0.00    +0.062 A 
ATOM     25 CL2  UNL     1      23.263   1.028  29.627  0.00  0.00    -0.082 Cl
ATOM     26  C16 UNL     1      20.981   0.629  31.057  0.00  0.00    +0.025 A 
ENDBRANCH  15  23
ENDBRANCH   1  16
TORSDOF 3
ENDMDL
MODEL 3
REMARK VINA RESULT:    -6.337     15.400     16.175
REMARK INTER + INTRA:          -7.893
REMARK INTER:                  -7.393
REMARK INTRA:                  -0.500
REMARK UNBOUND:                -0.445
REMARK  Name = /home/qwerty/github/datacon2025hack/step_04_hit_selection/docking/ligands/lig_450.pdb
REMARK  4 active torsions:
REMARK  status: ('A' for Active; 'I' for Inactive)
REMARK    1  A    between atoms: C1_1  and  C2_2
REMARK    2  A    between atoms: C5_5  and  N1_6
REMARK    3  A    between atoms: C6_7  and  C7_9
REMARK    4  A    between atoms: N2_11  and  C8_12
REMARK                            x       y       z     vdW  Elec       q    Type
REMARK                         _______ _______ _______ _____ _____    ______ ____
ROOT
ATOM      1  C7  UNL     1      19.788   9.266  35.918  0.00  0.00    +0.303 C 
ATOM      2  O2  UNL     1      19.350   8.244  35.323  0.00  0.00    -0.265 OA
ATOM      3  N2  UNL     1      21.190   9.379  36.210  0.00  0.00    -0.276 N 
ATOM      4  H7  UNL     1      21.496  10.063  36.939  0.00  0.00    +0.155 HD
ENDROOT
BRANCH   3   5
ATOM      5  C8  UNL     1      22.154   8.426  35.744  0.00  0.00    +0.056 A 
ATOM      6  C9  UNL     1      22.695   8.579  34.449  0.00  0.00    +0.074 A 
ATOM      7  C10 UNL     1      23.628   7.645  34.012  0.00  0.00    +0.168 A 
ATOM      8  C11 UNL     1      24.014   6.599  34.784  0.00  0.00    +0.168 A 
ATOM      9  C12 UNL     1      23.494   6.392  36.057  0.00  0.00    +0.071 A 
ATOM     10  C13 UNL     1      22.544   7.312  36.543  0.00  0.00    +0.066 A 
ATOM     11 CL1  UNL     1      21.806   7.000  38.109  0.00  0.00    -0.081 Cl
ATOM     12  O3  UNL     1      24.942   5.839  34.100  0.00  0.00    -0.453 OA
ATOM     13  C14 UNL     1      25.154   6.448  32.817  0.00  0.00    +0.466 C 
ATOM     14  O4  UNL     1      24.295   7.596  32.803  0.00  0.00    -0.453 OA
ENDBRANCH   3   5
BRANCH   1  16
ATOM     15  N1  UNL     1      17.871  10.830  35.398  0.00  0.00    -0.276 N 
ATOM     16  C6  UNL     1      18.851  10.331  36.323  0.00  0.00    +0.303 C 
ATOM     17  O1  UNL     1      18.901  10.784  37.499  0.00  0.00    -0.265 OA
ATOM     18  H6  UNL     1      17.684  10.278  34.530  0.00  0.00    +0.155 HD
BRANCH  15  23
ATOM     19  C1  UNL     1      14.640  15.515  36.265  0.00  0.00    +0.044 C 
ATOM     20  C2  UNL     1      15.502  14.302  36.070  0.00  0.00    -0.049 A 
ATOM     21  C3  UNL     1      16.653  14.376  35.276  0.00  0.00    +0.005 A 
ATOM     22  C4  UNL     1      17.436  13.238  35.064  0.00  0.00    +0.025 A 
ATOM     23  C5  UNL     1      17.080  12.006  35.640  0.00  0.00    +0.052 A 
ATOM     24  C15 UNL     1      15.902  11.927  36.410  0.00  0.00    +0.062 A 
ATOM     25 CL2  UNL     1      15.395  10.414  37.152  0.00  0.00    -0.082 Cl
ATOM     26  C16 UNL     1      15.121  13.070  36.620  0.00  0.00    +0.025 A 
ENDBRANCH  15  23
ENDBRANCH   1  16
TORSDOF 3
ENDMDL
MODEL 4
REMARK VINA RESULT:    -6.242     14.477     17.125
REMARK INTER + INTRA:          -7.782
REMARK INTER:                  -7.245
REMARK INTRA:                  -0.537
REMARK UNBOUND:                -0.445
REMARK  Name = /home/qwerty/github/datacon2025hack/step_04_hit_selection/docking/ligands/lig_450.pdb
REMARK  4 active torsions:
REMARK  status: ('A' for Active; 'I' for Inactive)
REMARK    1  A    between atoms: C1_1  and  C2_2
REMARK    2  A    between atoms: C5_5  and  N1_6
REMARK    3  A    between atoms: C6_7  and  C7_9
REMARK    4  A    between atoms: N2_11  and  C8_12
REMARK                            x       y       z     vdW  Elec       q    Type
REMARK                         _______ _______ _______ _____ _____    ______ ____
ROOT
ATOM      1  C7  UNL     1      19.537   0.995  32.153  0.00  0.00    +0.303 C 
ATOM      2  O2  UNL     1      20.289   0.206  32.788  0.00  0.00    -0.265 OA
ATOM      3  N2  UNL     1      18.346   1.505  32.773  0.00  0.00    -0.276 N 
ATOM      4  H7  UNL     1      17.597   1.907  32.165  0.00  0.00    +0.155 HD
ENDROOT
BRANCH   3   5
ATOM      5  C8  UNL     1      18.025   1.254  34.148  0.00  0.00    +0.056 A 
ATOM      6  C9  UNL     1      17.239   0.128  34.470  0.00  0.00    +0.074 A 
ATOM      7  C10 UNL     1      16.935  -0.100  35.808  0.00  0.00    +0.168 A 
ATOM      8  C11 UNL     1      17.359   0.728  36.793  0.00  0.00    +0.168 A 
ATOM      9  C12 UNL     1      18.118   1.863  36.525  0.00  0.00    +0.071 A 
ATOM     10  C13 UNL     1      18.449   2.136  35.183  0.00  0.00    +0.066 A 
ATOM     11 CL1  UNL     1      19.320   3.623  34.826  0.00  0.00    -0.081 Cl
ATOM     12  O3  UNL     1      16.912   0.261  38.014  0.00  0.00    -0.453 OA
ATOM     13  C14 UNL     1      16.161  -0.939  37.779  0.00  0.00    +0.466 C 
ATOM     14  O4  UNL     1      16.200  -1.132  36.360  0.00  0.00    -0.453 OA
ENDBRANCH   3   5
BRANCH   1  16
ATOM     15  N1  UNL     1      21.186   1.889  30.458  0.00  0.00    -0.276 N 
ATOM     16  C6  UNL     1      19.881   1.373  30.769  0.00  0.00    +0.303 C 
ATOM     17  O1  UNL     1      19.026   1.217  29.855  0.00  0.00    -0.265 OA
ATOM     18  H6  UNL     1      21.945   1.776  31.167  0.00  0.00    +0.155 HD
BRANCH  15  23
ATOM     19  C1  UNL     1      22.638   4.298  25.435  0.00  0.00    +0.044 C 
ATOM     20  C2  UNL     1      22.225   3.662  26.729  0.00  0.00    -0.049 A 
ATOM     21  C3  UNL     1      21.632   4.433  27.737  0.00  0.00    +0.005 A 
ATOM     22  C4  UNL     1      21.282   3.848  28.957  0.00  0.00    +0.025 A 
ATOM     23  C5  UNL     1      21.521   2.482  29.191  0.00  0.00    +0.052 A 
ATOM     24  C15 UNL     1      22.150   1.717  28.189  0.00  0.00    +0.062 A 
ATOM     25 CL2  UNL     1      22.484   0.005  28.421  0.00  0.00    -0.082 Cl
ATOM     26  C16 UNL     1      22.497   2.307  26.968  0.00  0.00    +0.025 A 
ENDBRANCH  15  23
ENDBRANCH   1  16
TORSDOF 3
ENDMDL
MODEL 5
REMARK VINA RESULT:    -5.969     15.147     16.011
REMARK INTER + INTRA:          -7.462
REMARK INTER:                  -6.938
REMARK INTRA:                  -0.524
REMARK UNBOUND:                -0.445
REMARK  Name = /home/qwerty/github/datacon2025hack/step_04_hit_selection/docking/ligands/lig_450.pdb
REMARK  4 active torsions:
REMARK  status: ('A' for Active; 'I' for Inactive)
REMARK    1  A    between atoms: C1_1  and  C2_2
REMARK    2  A    between atoms: C5_5  and  N1_6
REMARK    3  A    between atoms: C6_7  and  C7_9
REMARK    4  A    between atoms: N2_11  and  C8_12
REMARK                            x       y       z     vdW  Elec       q    Type
REMARK                         _______ _______ _______ _____ _____    ______ ____
ROOT
ATOM      1  C7  UNL     1      18.149  11.283  36.521  0.00  0.00    +0.303 C 
ATOM      2  O2  UNL     1      19.152  12.000  36.789  0.00  0.00    -0.265 OA
ATOM      3  N2  UNL     1      18.334   9.936  36.057  0.00  0.00    -0.276 N 
ATOM      4  H7  UNL     1      17.541   9.461  35.569  0.00  0.00    +0.155 HD
ENDROOT
BRANCH   3   5
ATOM      5  C8  UNL     1      19.624   9.311  35.998  0.00  0.00    +0.056 A 
ATOM      6  C9  UNL     1      20.036   8.495  37.072  0.00  0.00    +0.074 A 
ATOM      7  C10 UNL     1      21.290   7.897  37.000  0.00  0.00    +0.168 A 
ATOM      8  C11 UNL     1      22.117   8.089  35.943  0.00  0.00    +0.168 A 
ATOM      9  C12 UNL     1      21.766   8.902  34.871  0.00  0.00    +0.071 A 
ATOM     10  C13 UNL     1      20.505   9.530  34.900  0.00  0.00    +0.066 A 
ATOM     11 CL1  UNL     1      20.096  10.640  33.598  0.00  0.00    -0.081 Cl
ATOM     12  O3  UNL     1      23.286   7.380  36.139  0.00  0.00    -0.453 OA
ATOM     13  C14 UNL     1      23.185   6.699  37.398  0.00  0.00    +0.466 C 
ATOM     14  O4  UNL     1      21.897   7.057  37.913  0.00  0.00    -0.453 OA
ENDBRANCH   3   5
BRANCH   1  16
ATOM     15  N1  UNL     1      15.673  11.225  36.013  0.00  0.00    -0.276 N 
ATOM     16  C6  UNL     1      16.793  11.843  36.670  0.00  0.00    +0.303 C 
ATOM     17  O1  UNL     1      16.619  12.859  37.398  0.00  0.00    -0.265 OA
ATOM     18  H6  UNL     1      15.795  10.262  35.629  0.00  0.00    +0.155 HD
BRANCH  15  23
ATOM     19  C1  UNL     1      10.502  13.742  35.751  0.00  0.00    +0.044 C 
ATOM     20  C2  UNL     1      11.838  13.060  35.796  0.00  0.00    -0.049 A 
ATOM     21  C3  UNL     1      12.107  12.101  36.781  0.00  0.00    +0.005 A 
ATOM     22  C4  UNL     1      13.363  11.491  36.845  0.00  0.00    +0.025 A 
ATOM     23  C5  UNL     1      14.372  11.833  35.927  0.00  0.00    +0.052 A 
ATOM     24  C15 UNL     1      14.110  12.823  34.960  0.00  0.00    +0.062 A 
ATOM     25 CL2  UNL     1      15.331  13.301  33.787  0.00  0.00    -0.082 Cl
ATOM     26  C16 UNL     1      12.849  13.429  34.898  0.00  0.00    +0.025 A 
ENDBRANCH  15  23
ENDBRANCH   1  16
TORSDOF 3
ENDMDL
MODEL 6
REMARK VINA RESULT:    -5.925     15.469     17.958
REMARK INTER + INTRA:          -7.409
REMARK INTER:                  -6.987
REMARK INTRA:                  -0.422
REMARK UNBOUND:                -0.445
REMARK  Name = /home/qwerty/github/datacon2025hack/step_04_hit_selection/docking/ligands/lig_450.pdb
REMARK  4 active torsions:
REMARK  status: ('A' for Active; 'I' for Inactive)
REMARK    1  A    between atoms: C1_1  and  C2_2
REMARK    2  A    between atoms: C5_5  and  N1_6
REMARK    3  A    between atoms: C6_7  and  C7_9
REMARK    4  A    between atoms: N2_11  and  C8_12
REMARK                            x       y       z     vdW  Elec       q    Type
REMARK                         _______ _______ _______ _____ _____    ______ ____
ROOT
ATOM      1  C7  UNL     1      18.825   9.253  36.474  0.00  0.00    +0.303 C 
ATOM      2  O2  UNL     1      18.719   9.523  37.701  0.00  0.00    -0.265 OA
ATOM      3  N2  UNL     1      17.896   9.815  35.534  0.00  0.00    -0.276 N 
ATOM      4  H7  UNL     1      17.806   9.370  34.592  0.00  0.00    +0.155 HD
ENDROOT
BRANCH   3   5
ATOM      5  C8  UNL     1      16.907  10.782  35.911  0.00  0.00    +0.056 A 
ATOM      6  C9  UNL     1      15.548  10.403  35.913  0.00  0.00    +0.074 A 
ATOM      7  C10 UNL     1      14.601  11.354  36.280  0.00  0.00    +0.168 A 
ATOM      8  C11 UNL     1      14.948  12.620  36.619  0.00  0.00    +0.168 A 
ATOM      9  C12 UNL     1      16.271  13.048  36.611  0.00  0.00    +0.071 A 
ATOM     10  C13 UNL     1      17.265  12.120  36.244  0.00  0.00    +0.066 A 
ATOM     11 CL1  UNL     1      18.929  12.682  36.133  0.00  0.00    -0.081 Cl
ATOM     12  O3  UNL     1      13.812  13.340  36.935  0.00  0.00    -0.453 OA
ATOM     13  C14 UNL     1      12.681  12.469  36.787  0.00  0.00    +0.466 C 
ATOM     14  O4  UNL     1      13.229  11.213  36.368  0.00  0.00    -0.453 OA
ENDBRANCH   3   5
BRANCH   1  16
ATOM     15  N1  UNL     1      21.254   8.811  35.927  0.00  0.00    -0.276 N 
ATOM     16  C6  UNL     1      19.896   8.347  36.017  0.00  0.00    +0.303 C 
ATOM     17  O1  UNL     1      19.614   7.152  35.728  0.00  0.00    -0.265 OA
ATOM     18  H6  UNL     1      21.502   9.708  36.400  0.00  0.00    +0.155 HD
BRANCH  15  23
ATOM     19  C1  UNL     1      25.539   5.917  33.397  0.00  0.00    +0.044 C 
ATOM     20  C2  UNL     1      24.398   6.645  34.044  0.00  0.00    -0.049 A 
ATOM     21  C3  UNL     1      23.716   7.649  33.346  0.00  0.00    +0.005 A 
ATOM     22  C4  UNL     1      22.677   8.353  33.961  0.00  0.00    +0.025 A 
ATOM     23  C5  UNL     1      22.304   8.066  35.286  0.00  0.00    +0.052 A 
ATOM     24  C15 UNL     1      23.015   7.079  35.998  0.00  0.00    +0.062 A 
ATOM     25 CL2  UNL     1      22.603   6.677  37.660  0.00  0.00    -0.082 Cl
ATOM     26  C16 UNL     1      24.054   6.376  35.376  0.00  0.00    +0.025 A 
ENDBRANCH  15  23
ENDBRANCH   1  16
TORSDOF 3
ENDMDL
MODEL 7
REMARK VINA RESULT:    -5.915      8.135      9.516
REMARK INTER + INTRA:          -7.398
REMARK INTER:                  -6.847
REMARK INTRA:                  -0.551
REMARK UNBOUND:                -0.445
REMARK  Name = /home/qwerty/github/datacon2025hack/step_04_hit_selection/docking/ligands/lig_450.pdb
REMARK  4 active torsions:
REMARK  status: ('A' for Active; 'I' for Inactive)
REMARK    1  A    between atoms: C1_1  and  C2_2
REMARK    2  A    between atoms: C5_5  and  N1_6
REMARK    3  A    between atoms: C6_7  and  C7_9
REMARK    4  A    between atoms: N2_11  and  C8_12
REMARK                            x       y       z     vdW  Elec       q    Type
REMARK                         _______ _______ _______ _____ _____    ______ ____
ROOT
ATOM      1  C7  UNL     1      13.090   2.533  22.964  0.00  0.00    +0.303 C 
ATOM      2  O2  UNL     1      14.136   2.982  23.507  0.00  0.00    -0.265 OA
ATOM      3  N2  UNL     1      13.088   1.216  22.391  0.00  0.00    -0.276 N 
ATOM      4  H7  UNL     1      12.339   0.970  21.704  0.00  0.00    +0.155 HD
ENDROOT
BRANCH   3   5
ATOM      5  C8  UNL     1      14.200   0.320  22.513  0.00  0.00    +0.056 A 
ATOM      6  C9  UNL     1      14.303  -0.487  23.666  0.00  0.00    +0.074 A 
ATOM      7  C10 UNL     1      15.389  -1.350  23.769  0.00  0.00    +0.168 A 
ATOM      8  C11 UNL     1      16.343  -1.422  22.809  0.00  0.00    +0.168 A 
ATOM      9  C12 UNL     1      16.299  -0.632  21.665  0.00  0.00    +0.071 A 
ATOM     10  C13 UNL     1      15.218   0.259  21.517  0.00  0.00    +0.066 A 
ATOM     11 CL1  UNL     1      15.208   1.334  20.125  0.00  0.00    -0.081 Cl
ATOM     12  O3  UNL     1      17.294  -2.355  23.174  0.00  0.00    -0.453 OA
ATOM     13  C14 UNL     1      16.911  -2.903  24.444  0.00  0.00    +0.466 C 
ATOM     14  O4  UNL     1      15.691  -2.234  24.787  0.00  0.00    -0.453 OA
ENDBRANCH   3   5
BRANCH   1  16
ATOM     15  N1  UNL     1      10.798   3.038  22.025  0.00  0.00    -0.276 N 
ATOM     16  C6  UNL     1      11.880   3.376  22.909  0.00  0.00    +0.303 C 
ATOM     17  O1  UNL     1      11.793   4.384  23.662  0.00  0.00    -0.265 OA
ATOM     18  H6  UNL     1      10.782   2.083  21.604  0.00  0.00    +0.155 HD
BRANCH  15  23
ATOM     19  C1  UNL     1       6.422   6.643  21.024  0.00  0.00    +0.044 C 
ATOM     20  C2  UNL     1       7.549   5.681  21.257  0.00  0.00    -0.049 A 
ATOM     21  C3  UNL     1       7.419   4.659  22.206  0.00  0.00    +0.005 A 
ATOM     22  C4  UNL     1       8.482   3.785  22.450  0.00  0.00    +0.025 A 
ATOM     23  C5  UNL     1       9.695   3.921  21.751  0.00  0.00    +0.052 A 
ATOM     24  C15 UNL     1       9.835   4.971  20.823  0.00  0.00    +0.062 A 
ATOM     25 CL2  UNL     1      11.329   5.201  19.921  0.00  0.00    -0.082 Cl
ATOM     26  C16 UNL     1       8.767   5.843  20.581  0.00  0.00    +0.025 A 
ENDBRANCH  15  23
ENDBRANCH   1  16
TORSDOF 3
ENDMDL
MODEL 8
REMARK VINA RESULT:    -5.861     13.761     15.520
REMARK INTER + INTRA:          -7.334
REMARK INTER:                  -6.815
REMARK INTRA:                  -0.520
REMARK UNBOUND:                -0.445
REMARK  Name = /home/qwerty/github/datacon2025hack/step_04_hit_selection/docking/ligands/lig_450.pdb
REMARK  4 active torsions:
REMARK  status: ('A' for Active; 'I' for Inactive)
REMARK    1  A    between atoms: C1_1  and  C2_2
REMARK    2  A    between atoms: C5_5  and  N1_6
REMARK    3  A    between atoms: C6_7  and  C7_9
REMARK    4  A    between atoms: N2_11  and  C8_12
REMARK                            x       y       z     vdW  Elec       q    Type
REMARK                         _______ _______ _______ _____ _____    ______ ____
ROOT
ATOM      1  C7  UNL     1      21.911   3.404  32.083  0.00  0.00    +0.303 C 
ATOM      2  O2  UNL     1      21.904   2.670  33.109  0.00  0.00    -0.265 OA
ATOM      3  N2  UNL     1      21.975   4.832  32.225  0.00  0.00    -0.276 N 
ATOM      4  H7  UNL     1      21.691   5.430  31.416  0.00  0.00    +0.155 HD
ENDROOT
BRANCH   3   5
ATOM      5  C8  UNL     1      22.157   5.474  33.495  0.00  0.00    +0.056 A 
ATOM      6  C9  UNL     1      21.021   5.776  34.275  0.00  0.00    +0.074 A 
ATOM      7  C10 UNL     1      21.215   6.399  35.504  0.00  0.00    +0.168 A 
ATOM      8  C11 UNL     1      22.450   6.730  35.955  0.00  0.00    +0.168 A 
ATOM      9  C12 UNL     1      23.598   6.473  35.213  0.00  0.00    +0.071 A 
ATOM     10  C13 UNL     1      23.452   5.844  33.961  0.00  0.00    +0.066 A 
ATOM     11 CL1  UNL     1      24.888   5.610  32.972  0.00  0.00    -0.081 Cl
ATOM     12  O3  UNL     1      22.343   7.333  37.193  0.00  0.00    -0.453 OA
ATOM     13  C14 UNL     1      20.951   7.382  37.541  0.00  0.00    +0.466 C 
ATOM     14  O4  UNL     1      20.268   6.777  36.436  0.00  0.00    -0.453 OA
ENDBRANCH   3   5
BRANCH   1  16
ATOM     15  N1  UNL     1      21.121   3.440  29.682  0.00  0.00    -0.276 N 
ATOM     16  C6  UNL     1      21.836   2.788  30.745  0.00  0.00    +0.303 C 
ATOM     17  O1  UNL     1      22.425   1.692  30.535  0.00  0.00    -0.265 OA
ATOM     18  H6  UNL     1      20.860   4.444  29.805  0.00  0.00    +0.155 HD
BRANCH  15  23
ATOM     19  C1  UNL     1      19.971   0.804  24.695  0.00  0.00    +0.044 C 
ATOM     20  C2  UNL     1      20.249   1.520  25.984  0.00  0.00    -0.049 A 
ATOM     21  C3  UNL     1      21.375   2.346  26.103  0.00  0.00    +0.005 A 
ATOM     22  C4  UNL     1      21.654   2.984  27.314  0.00  0.00    +0.025 A 
ATOM     23  C5  UNL     1      20.815   2.805  28.428  0.00  0.00    +0.052 A 
ATOM     24  C15 UNL     1      19.703   1.946  28.316  0.00  0.00    +0.062 A 
ATOM     25 CL2  UNL     1      18.618   1.674  29.673  0.00  0.00    -0.082 Cl
ATOM     26  C16 UNL     1      19.426   1.310  27.099  0.00  0.00    +0.025 A 
ENDBRANCH  15  23
ENDBRANCH   1  16
TORSDOF 3
ENDMDL
MODEL 9
REMARK VINA RESULT:    -5.832     10.409     12.592
REMARK INTER + INTRA:          -7.300
REMARK INTER:                  -6.755
REMARK INTRA:                  -0.544
REMARK UNBOUND:                -0.445
REMARK  Name = /home/qwerty/github/datacon2025hack/step_04_hit_selection/docking/ligands/lig_450.pdb
REMARK  4 active torsions:
REMARK  status: ('A' for Active; 'I' for Inactive)
REMARK    1  A    between atoms: C1_1  and  C2_2
REMARK    2  A    between atoms: C5_5  and  N1_6
REMARK    3  A    between atoms: C6_7  and  C7_9
REMARK    4  A    between atoms: N2_11  and  C8_12
REMARK                            x       y       z     vdW  Elec       q    Type
REMARK                         _______ _______ _______ _____ _____    ______ ____
ROOT
ATOM      1  C7  UNL     1       9.272   1.504  25.898  0.00  0.00    +0.303 C 
ATOM      2  O2  UNL     1       9.872   2.578  26.177  0.00  0.00    -0.265 OA
ATOM      3  N2  UNL     1       9.121   1.103  24.527  0.00  0.00    -0.276 N 
ATOM      4  H7  UNL     1       8.391   0.392  24.291  0.00  0.00    +0.155 HD
ENDROOT
BRANCH   3   5
ATOM      5  C8  UNL     1       9.735   1.813  23.443  0.00  0.00    +0.056 A 
ATOM      6  C9  UNL     1      10.995   1.385  22.975  0.00  0.00    +0.074 A 
ATOM      7  C10 UNL     1      11.578   2.086  21.923  0.00  0.00    +0.168 A 
ATOM      8  C11 UNL     1      10.978   3.161  21.356  0.00  0.00    +0.168 A 
ATOM      9  C12 UNL     1       9.747   3.635  21.797  0.00  0.00    +0.071 A 
ATOM     10  C13 UNL     1       9.119   2.958  22.861  0.00  0.00    +0.066 A 
ATOM     11 CL1  UNL     1       7.612   3.613  23.492  0.00  0.00    -0.081 Cl
ATOM     12  O3  UNL     1      11.778   3.655  20.345  0.00  0.00    -0.453 OA
ATOM     13  C14 UNL     1      12.954   2.836  20.271  0.00  0.00    +0.466 C 
ATOM     14  O4  UNL     1      12.785   1.848  21.296  0.00  0.00    -0.453 OA
ENDBRANCH   3   5
BRANCH   1  16
ATOM     15  N1  UNL     1       9.148   0.872  28.342  0.00  0.00    -0.276 N 
ATOM     16  C6  UNL     1       8.715   0.678  26.985  0.00  0.00    +0.303 C 
ATOM     17  O1  UNL     1       7.836  -0.186  26.718  0.00  0.00    -0.265 OA
ATOM     18  H6  UNL     1       9.678   1.743  28.573  0.00  0.00    +0.155 HD
BRANCH  15  23
ATOM     19  C1  UNL     1       7.919  -2.675  32.707  0.00  0.00    +0.044 C 
ATOM     20  C2  UNL     1       8.219  -1.772  31.547  0.00  0.00    -0.049 A 
ATOM     21  C3  UNL     1       9.366  -1.980  30.769  0.00  0.00    +0.005 A 
ATOM     22  C4  UNL     1       9.664  -1.118  29.711  0.00  0.00    +0.025 A 
ATOM     23  C5  UNL     1       8.823  -0.031  29.414  0.00  0.00    +0.052 A 
ATOM     24  C15 UNL     1       7.689   0.196  30.219  0.00  0.00    +0.062 A 
ATOM     25 CL2  UNL     1       6.600   1.542  29.905  0.00  0.00    -0.082 Cl
ATOM     26  C16 UNL     1       7.393  -0.672  31.277  0.00  0.00    +0.025 A 
ENDBRANCH  15  23
ENDBRANCH   1  16
TORSDOF 3
ENDMDL
