MODEL 1
REMARK VINA RESULT:    -6.154      0.000      0.000
REMARK INTER + INTRA:          -9.055
REMARK INTER:                  -8.313
REMARK INTRA:                  -0.741
REMARK UNBOUND:                -0.741
REMARK  Name = /home/qwerty/github/datacon2025hack/step_04_hit_selection/docking/ligands/lig_199.pdb
REMARK  6 active torsions:
REMARK  status: ('A' for Active; 'I' for Inactive)
REMARK    1  A    between atoms: C1_2  and  C11_16
REMARK    2  A    between atoms: N1_3  and  C2_4
REMARK    3  A    between atoms: C4_6  and  C5_7
REMARK    4  A    between atoms: C5_7  and  N2_8
REMARK    5  A    between atoms: N2_8  and  C6_9
REMARK    6  A    between atoms: C6_9  and  C7_10
REMARK                            x       y       z     vdW  Elec       q    Type
REMARK                         _______ _______ _______ _____ _____    ______ ____
ROOT
ATOM      1  O1  UNL     1      23.593   5.528  32.651  0.00  0.00    -0.270 OA
ATOM      2  C1  UNL     1      22.896   4.859  33.464  0.00  0.00    +0.244 C 
ATOM      3  N1  UNL     1      22.840   5.260  34.842  0.00  0.00    -0.308 N 
ATOM      4  H1  UNL     1      22.465   4.591  35.551  0.00  0.00    +0.149 HD
ENDROOT
BRANCH   2   5
ATOM      5  C11 UNL     1      22.162   3.666  32.983  0.00  0.00    +0.037 A 
ATOM      6  C12 UNL     1      21.139   3.071  33.764  0.00  0.00    +0.013 A 
ATOM      7  C13 UNL     1      20.445   1.945  33.291  0.00  0.00    +0.007 A 
ATOM      8  C14 UNL     1      20.784   1.437  32.038  0.00  0.00    -0.017 A 
ATOM      9  C15 UNL     1      21.746   2.001  31.282  0.00  0.00    -0.016 A 
ATOM     10  C16 UNL     1      22.459   3.120  31.713  0.00  0.00    +0.019 A 
ATOM     11  C17 UNL     1      21.864   1.249  30.022  0.00  0.00    +0.195 C 
ATOM     12  O3  UNL     1      20.907   0.197  30.072  0.00  0.00    -0.371 OA
ATOM     13  C18 UNL     1      20.217   0.288  31.312  0.00  0.00    +0.195 C 
ENDBRANCH   2   5
BRANCH   3  14
ATOM     14  C2  UNL     1      23.396   6.543  35.286  0.00  0.00    +0.074 C 
ATOM     15  C3  UNL     1      23.299   6.749  36.798  0.00  0.00    +0.027 C 
ATOM     16  C4  UNL     1      22.321   7.905  36.574  0.00  0.00    +0.006 C 
ATOM     17  C10 UNL     1      22.423   7.698  35.062  0.00  0.00    +0.027 C 
BRANCH  16  18
ATOM     18  C5  UNL     1      20.902   7.644  37.125  0.00  0.00    +0.085 C 
BRANCH  18  19
ATOM     19  N2  UNL     1      20.298   8.853  37.713  0.00  0.00    -0.310 NA
ATOM     20  H8  UNL     1      21.022   9.604  37.798  0.00  0.00    +0.122 HD
BRANCH  19  21
ATOM     21  C6  UNL     1      19.175   9.367  36.917  0.00  0.00    +0.140 C 
BRANCH  21  22
ATOM     22  C7  UNL     1      19.517  10.704  36.336  0.00  0.00    +0.097 A 
ATOM     23  C8  UNL     1      20.577  10.976  35.499  0.00  0.00    +0.068 A 
ATOM     24  C9  UNL     1      20.479  12.333  35.278  0.00  0.00    +0.230 A 
ATOM     25  O2  UNL     1      19.444  12.790  35.947  0.00  0.00    -0.363 OA
ATOM     26  N3  UNL     1      18.842  11.838  36.599  0.00  0.00    -0.082 NA
ENDBRANCH  21  22
ENDBRANCH  19  21
ENDBRANCH  18  19
ENDBRANCH  16  18
ENDBRANCH   3  14
TORSDOF 6
ENDMDL
MODEL 2
REMARK VINA RESULT:    -5.890      1.407      2.033
REMARK INTER + INTRA:          -8.697
REMARK INTER:                  -7.940
REMARK INTRA:                  -0.757
REMARK UNBOUND:                -0.741
REMARK  Name = /home/qwerty/github/datacon2025hack/step_04_hit_selection/docking/ligands/lig_199.pdb
REMARK  6 active torsions:
REMARK  status: ('A' for Active; 'I' for Inactive)
REMARK    1  A    between atoms: C1_2  and  C11_16
REMARK    2  A    between atoms: N1_3  and  C2_4
REMARK    3  A    between atoms: C4_6  and  C5_7
REMARK    4  A    between atoms: C5_7  and  N2_8
REMARK    5  A    between atoms: N2_8  and  C6_9
REMARK    6  A    between atoms: C6_9  and  C7_10
REMARK                            x       y       z     vdW  Elec       q    Type
REMARK                         _______ _______ _______ _____ _____    ______ ____
ROOT
ATOM      1  O1  UNL     1      22.548   4.979  31.968  0.00  0.00    -0.270 OA
ATOM      2  C1  UNL     1      22.136   4.375  32.997  0.00  0.00    +0.244 C 
ATOM      3  N1  UNL     1      22.520   4.851  34.297  0.00  0.00    -0.308 N 
ATOM      4  H1  UNL     1      22.381   4.232  35.126  0.00  0.00    +0.149 HD
ENDROOT
BRANCH   2   5
ATOM      5  C11 UNL     1      21.275   3.179  32.844  0.00  0.00    +0.037 A 
ATOM      6  C12 UNL     1      21.559   2.193  31.864  0.00  0.00    +0.013 A 
ATOM      7  C13 UNL     1      20.738   1.060  31.736  0.00  0.00    +0.007 A 
ATOM      8  C14 UNL     1      19.650   0.930  32.597  0.00  0.00    -0.017 A 
ATOM      9  C15 UNL     1      19.378   1.854  33.539  0.00  0.00    -0.016 A 
ATOM     10  C16 UNL     1      20.167   2.993  33.701  0.00  0.00    +0.019 A 
ATOM     11  C17 UNL     1      18.182   1.433  34.288  0.00  0.00    +0.195 C 
ATOM     12  O3  UNL     1      17.756   0.195  33.733  0.00  0.00    -0.371 OA
ATOM     13  C18 UNL     1      18.650  -0.147  32.681  0.00  0.00    +0.195 C 
ENDBRANCH   2   5
BRANCH   3  14
ATOM     14  C2  UNL     1      23.201   6.139  34.465  0.00  0.00    +0.074 C 
ATOM     15  C3  UNL     1      23.666   6.391  35.900  0.00  0.00    +0.027 C 
ATOM     16  C4  UNL     1      22.674   7.551  36.014  0.00  0.00    +0.006 C 
ATOM     17  C10 UNL     1      22.214   7.299  34.578  0.00  0.00    +0.027 C 
BRANCH  16  18
ATOM     18  C5  UNL     1      21.556   7.323  37.056  0.00  0.00    +0.085 C 
BRANCH  18  19
ATOM     19  N2  UNL     1      20.991   8.588  37.557  0.00  0.00    -0.310 NA
ATOM     20  H8  UNL     1      21.694   9.357  37.451  0.00  0.00    +0.122 HD
BRANCH  19  21
ATOM     21  C6  UNL     1      19.760   8.974  36.853  0.00  0.00    +0.140 C 
BRANCH  21  22
ATOM     22  C7  UNL     1      19.878  10.370  36.325  0.00  0.00    +0.097 A 
ATOM     23  C8  UNL     1      20.715  10.785  35.313  0.00  0.00    +0.068 A 
ATOM     24  C9  UNL     1      20.478  12.139  35.227  0.00  0.00    +0.230 A 
ATOM     25  O2  UNL     1      19.579  12.463  36.129  0.00  0.00    -0.363 OA
ATOM     26  N3  UNL     1      19.195  11.423  36.811  0.00  0.00    -0.082 NA
ENDBRANCH  21  22
ENDBRANCH  19  21
ENDBRANCH  18  19
ENDBRANCH  16  18
ENDBRANCH   3  14
TORSDOF 6
ENDMDL
MODEL 3
REMARK VINA RESULT:    -5.851      7.945     12.303
REMARK INTER + INTRA:          -8.645
REMARK INTER:                  -8.052
REMARK INTRA:                  -0.592
REMARK UNBOUND:                -0.741
REMARK  Name = /home/qwerty/github/datacon2025hack/step_04_hit_selection/docking/ligands/lig_199.pdb
REMARK  6 active torsions:
REMARK  status: ('A' for Active; 'I' for Inactive)
REMARK    1  A    between atoms: C1_2  and  C11_16
REMARK    2  A    between atoms: N1_3  and  C2_4
REMARK    3  A    between atoms: C4_6  and  C5_7
REMARK    4  A    between atoms: C5_7  and  N2_8
REMARK    5  A    between atoms: N2_8  and  C6_9
REMARK    6  A    between atoms: C6_9  and  C7_10
REMARK                            x       y       z     vdW  Elec       q    Type
REMARK                         _______ _______ _______ _____ _____    ______ ____
ROOT
ATOM      1  O1  UNL     1      10.740  14.415  33.998  0.00  0.00    -0.270 OA
ATOM      2  C1  UNL     1      11.846  14.505  33.395  0.00  0.00    +0.244 C 
ATOM      3  N1  UNL     1      13.052  14.677  34.154  0.00  0.00    -0.308 N 
ATOM      4  H1  UNL     1      13.922  14.981  33.663  0.00  0.00    +0.149 HD
ENDROOT
BRANCH   2   5
ATOM      5  C11 UNL     1      11.874  14.443  31.915  0.00  0.00    +0.037 A 
ATOM      6  C12 UNL     1      12.959  14.986  31.180  0.00  0.00    +0.013 A 
ATOM      7  C13 UNL     1      12.977  14.912  29.778  0.00  0.00    +0.007 A 
ATOM      8  C14 UNL     1      11.908  14.289  29.134  0.00  0.00    -0.017 A 
ATOM      9  C15 UNL     1      10.878  13.760  29.822  0.00  0.00    -0.016 A 
ATOM     10  C16 UNL     1      10.822  13.810  31.215  0.00  0.00    +0.019 A 
ATOM     11  C17 UNL     1       9.922  13.171  28.870  0.00  0.00    +0.195 C 
ATOM     12  O3  UNL     1      10.447  13.382  27.565  0.00  0.00    -0.371 OA
ATOM     13  C18 UNL     1      11.684  14.073  27.695  0.00  0.00    +0.195 C 
ENDBRANCH   2   5
BRANCH   3  14
ATOM     14  C2  UNL     1      13.060  14.539  35.614  0.00  0.00    +0.074 C 
ATOM     15  C3  UNL     1      14.251  15.231  36.278  0.00  0.00    +0.027 C 
ATOM     16  C4  UNL     1      14.790  13.869  36.722  0.00  0.00    +0.006 C 
ATOM     17  C10 UNL     1      13.596  13.181  36.060  0.00  0.00    +0.027 C 
BRANCH  16  18
ATOM     18  C5  UNL     1      16.141  13.487  36.077  0.00  0.00    +0.085 C 
BRANCH  18  19
ATOM     19  N2  UNL     1      17.152  13.108  37.079  0.00  0.00    -0.310 NA
ATOM     20  H8  UNL     1      16.682  12.688  37.915  0.00  0.00    +0.122 HD
BRANCH  19  21
ATOM     21  C6  UNL     1      18.133  12.146  36.556  0.00  0.00    +0.140 C 
BRANCH  21  22
ATOM     22  C7  UNL     1      17.931  10.802  37.184  0.00  0.00    +0.097 A 
ATOM     23  C8  UNL     1      16.717  10.212  37.462  0.00  0.00    +0.068 A 
ATOM     24  C9  UNL     1      17.063   9.019  38.058  0.00  0.00    +0.230 A 
ATOM     25  O2  UNL     1      18.373   8.947  38.116  0.00  0.00    -0.363 OA
ATOM     26  N3  UNL     1      18.931  10.004  37.601  0.00  0.00    -0.082 NA
ENDBRANCH  21  22
ENDBRANCH  19  21
ENDBRANCH  18  19
ENDBRANCH  16  18
ENDBRANCH   3  14
TORSDOF 6
ENDMDL
MODEL 4
REMARK VINA RESULT:    -5.839     13.994     15.196
REMARK INTER + INTRA:          -8.628
REMARK INTER:                  -8.046
REMARK INTRA:                  -0.583
REMARK UNBOUND:                -0.741
REMARK  Name = /home/qwerty/github/datacon2025hack/step_04_hit_selection/docking/ligands/lig_199.pdb
REMARK  6 active torsions:
REMARK  status: ('A' for Active; 'I' for Inactive)
REMARK    1  A    between atoms: C1_2  and  C11_16
REMARK    2  A    between atoms: N1_3  and  C2_4
REMARK    3  A    between atoms: C4_6  and  C5_7
REMARK    4  A    between atoms: C5_7  and  N2_8
REMARK    5  A    between atoms: N2_8  and  C6_9
REMARK    6  A    between atoms: C6_9  and  C7_10
REMARK                            x       y       z     vdW  Elec       q    Type
REMARK                         _______ _______ _______ _____ _____    ______ ____
ROOT
ATOM      1  O1  UNL     1      19.930  14.843  19.430  0.00  0.00    -0.270 OA
ATOM      2  C1  UNL     1      20.726  13.866  19.499  0.00  0.00    +0.244 C 
ATOM      3  N1  UNL     1      22.121  14.107  19.737  0.00  0.00    -0.308 N 
ATOM      4  H1  UNL     1      22.806  13.338  19.564  0.00  0.00    +0.149 HD
ENDROOT
BRANCH   2   5
ATOM      5  C11 UNL     1      20.206  12.490  19.319  0.00  0.00    +0.037 A 
ATOM      6  C12 UNL     1      21.071  11.418  18.982  0.00  0.00    +0.013 A 
ATOM      7  C13 UNL     1      20.565  10.118  18.824  0.00  0.00    +0.007 A 
ATOM      8  C14 UNL     1      19.200   9.911  19.012  0.00  0.00    -0.017 A 
ATOM      9  C15 UNL     1      18.370  10.919  19.344  0.00  0.00    -0.016 A 
ATOM     10  C16 UNL     1      18.831  12.225  19.512  0.00  0.00    +0.019 A 
ATOM     11  C17 UNL     1      17.004  10.387  19.480  0.00  0.00    +0.195 C 
ATOM     12  O3  UNL     1      17.070   8.992  19.208  0.00  0.00    -0.371 OA
ATOM     13  C18 UNL     1      18.423   8.664  18.917  0.00  0.00    +0.195 C 
ENDBRANCH   2   5
BRANCH   3  14
ATOM     14  C2  UNL     1      22.611  15.437  20.112  0.00  0.00    +0.074 C 
ATOM     15  C3  UNL     1      24.124  15.482  20.331  0.00  0.00    +0.027 C 
ATOM     16  C4  UNL     1      23.897  15.777  21.815  0.00  0.00    +0.006 C 
ATOM     17  C10 UNL     1      22.385  15.735  21.593  0.00  0.00    +0.027 C 
BRANCH  16  18
ATOM     18  C5  UNL     1      24.399  14.664  22.762  0.00  0.00    +0.085 C 
BRANCH  18  19
ATOM     19  N2  UNL     1      25.027  15.206  23.980  0.00  0.00    -0.310 NA
ATOM     20  H8  UNL     1      25.928  15.680  23.732  0.00  0.00    +0.122 HD
BRANCH  19  21
ATOM     21  C6  UNL     1      24.165  16.168  24.681  0.00  0.00    +0.140 C 
BRANCH  21  22
ATOM     22  C7  UNL     1      23.493  15.511  25.847  0.00  0.00    +0.097 A 
ATOM     23  C8  UNL     1      23.699  14.218  26.277  0.00  0.00    +0.068 A 
ATOM     24  C9  UNL     1      22.835  14.088  27.342  0.00  0.00    +0.230 A 
ATOM     25  O2  UNL     1      22.188  15.221  27.496  0.00  0.00    -0.363 OA
ATOM     26  N3  UNL     1      22.557  16.102  26.611  0.00  0.00    -0.082 NA
ENDBRANCH  21  22
ENDBRANCH  19  21
ENDBRANCH  18  19
ENDBRANCH  16  18
ENDBRANCH   3  14
TORSDOF 6
ENDMDL
MODEL 5
REMARK VINA RESULT:    -5.627      5.888     10.687
REMARK INTER + INTRA:          -8.342
REMARK INTER:                  -7.721
REMARK INTRA:                  -0.621
REMARK UNBOUND:                -0.741
REMARK  Name = /home/qwerty/github/datacon2025hack/step_04_hit_selection/docking/ligands/lig_199.pdb
REMARK  6 active torsions:
REMARK  status: ('A' for Active; 'I' for Inactive)
REMARK    1  A    between atoms: C1_2  and  C11_16
REMARK    2  A    between atoms: N1_3  and  C2_4
REMARK    3  A    between atoms: C4_6  and  C5_7
REMARK    4  A    between atoms: C5_7  and  N2_8
REMARK    5  A    between atoms: N2_8  and  C6_9
REMARK    6  A    between atoms: C6_9  and  C7_10
REMARK                            x       y       z     vdW  Elec       q    Type
REMARK                         _______ _______ _______ _____ _____    ______ ____
ROOT
ATOM      1  O1  UNL     1      12.896   8.247  35.501  0.00  0.00    -0.270 OA
ATOM      2  C1  UNL     1      13.336   9.317  36.007  0.00  0.00    +0.244 C 
ATOM      3  N1  UNL     1      14.680   9.358  36.512  0.00  0.00    -0.308 N 
ATOM      4  H1  UNL     1      14.966  10.149  37.131  0.00  0.00    +0.149 HD
ENDROOT
BRANCH   2   5
ATOM      5  C11 UNL     1      12.453  10.504  36.082  0.00  0.00    +0.037 A 
ATOM      6  C12 UNL     1      11.684  10.773  37.243  0.00  0.00    +0.013 A 
ATOM      7  C13 UNL     1      10.858  11.907  37.302  0.00  0.00    +0.007 A 
ATOM      8  C14 UNL     1      10.821  12.758  36.199  0.00  0.00    -0.017 A 
ATOM      9  C15 UNL     1      11.555  12.519  35.095  0.00  0.00    -0.016 A 
ATOM     10  C16 UNL     1      12.390  11.405  34.995  0.00  0.00    +0.019 A 
ATOM     11  C17 UNL     1      11.310  13.591  34.117  0.00  0.00    +0.195 C 
ATOM     12  O3  UNL     1      10.378  14.489  34.708  0.00  0.00    -0.371 OA
ATOM     13  C18 UNL     1      10.057  14.001  36.004  0.00  0.00    +0.195 C 
ENDBRANCH   2   5
BRANCH   3  14
ATOM     14  C2  UNL     1      15.621   8.261  36.264  0.00  0.00    +0.074 C 
ATOM     15  C3  UNL     1      16.455   7.894  37.493  0.00  0.00    +0.027 C 
ATOM     16  C4  UNL     1      17.718   8.375  36.774  0.00  0.00    +0.006 C 
ATOM     17  C10 UNL     1      16.882   8.737  35.546  0.00  0.00    +0.027 C 
BRANCH  16  18
ATOM     18  C5  UNL     1      18.388   9.602  37.431  0.00  0.00    +0.085 C 
BRANCH  18  19
ATOM     19  N2  UNL     1      19.806   9.361  37.751  0.00  0.00    -0.310 NA
ATOM     20  H8  UNL     1      20.009   9.683  38.727  0.00  0.00    +0.122 HD
BRANCH  19  21
ATOM     21  C6  UNL     1      20.178   7.944  37.635  0.00  0.00    +0.140 C 
BRANCH  21  22
ATOM     22  C7  UNL     1      21.409   7.796  36.794  0.00  0.00    +0.097 A 
ATOM     23  C8  UNL     1      22.359   6.807  36.917  0.00  0.00    +0.068 A 
ATOM     24  C9  UNL     1      23.291   7.128  35.954  0.00  0.00    +0.230 A 
ATOM     25  O2  UNL     1      22.896   8.220  35.340  0.00  0.00    -0.363 OA
ATOM     26  N3  UNL     1      21.767   8.654  35.821  0.00  0.00    -0.082 NA
ENDBRANCH  21  22
ENDBRANCH  19  21
ENDBRANCH  18  19
ENDBRANCH  16  18
ENDBRANCH   3  14
TORSDOF 6
ENDMDL
MODEL 6
REMARK VINA RESULT:    -5.508      8.982     12.106
REMARK INTER + INTRA:          -8.181
REMARK INTER:                  -7.447
REMARK INTRA:                  -0.735
REMARK UNBOUND:                -0.741
REMARK  Name = /home/qwerty/github/datacon2025hack/step_04_hit_selection/docking/ligands/lig_199.pdb
REMARK  6 active torsions:
REMARK  status: ('A' for Active; 'I' for Inactive)
REMARK    1  A    between atoms: C1_2  and  C11_16
REMARK    2  A    between atoms: N1_3  and  C2_4
REMARK    3  A    between atoms: C4_6  and  C5_7
REMARK    4  A    between atoms: C5_7  and  N2_8
REMARK    5  A    between atoms: N2_8  and  C6_9
REMARK    6  A    between atoms: C6_9  and  C7_10
REMARK                            x       y       z     vdW  Elec       q    Type
REMARK                         _______ _______ _______ _____ _____    ______ ____
ROOT
ATOM      1  O1  UNL     1      12.196   9.636  31.954  0.00  0.00    -0.270 OA
ATOM      2  C1  UNL     1      11.448  10.596  32.290  0.00  0.00    +0.244 C 
ATOM      3  N1  UNL     1      11.227  10.864  33.684  0.00  0.00    -0.308 N 
ATOM      4  H1  UNL     1      10.441  11.493  33.961  0.00  0.00    +0.149 HD
ENDROOT
BRANCH   2   5
ATOM      5  C11 UNL     1      10.802  11.417  31.240  0.00  0.00    +0.037 A 
ATOM      6  C12 UNL     1      11.110  12.794  31.094  0.00  0.00    +0.013 A 
ATOM      7  C13 UNL     1      10.496  13.558  30.088  0.00  0.00    +0.007 A 
ATOM      8  C14 UNL     1       9.588  12.928  29.239  0.00  0.00    -0.017 A 
ATOM      9  C15 UNL     1       9.296  11.618  29.361  0.00  0.00    -0.016 A 
ATOM     10  C16 UNL     1       9.883  10.823  30.345  0.00  0.00    +0.019 A 
ATOM     11  C17 UNL     1       8.319  11.249  28.324  0.00  0.00    +0.195 C 
ATOM     12  O3  UNL     1       8.044  12.425  27.572  0.00  0.00    -0.371 OA
ATOM     13  C18 UNL     1       8.820  13.486  28.114  0.00  0.00    +0.195 C 
ENDBRANCH   2   5
BRANCH   3  14
ATOM     14  C2  UNL     1      12.012  10.191  34.723  0.00  0.00    +0.074 C 
ATOM     15  C3  UNL     1      11.590  10.577  36.141  0.00  0.00    +0.027 C 
ATOM     16  C4  UNL     1      12.948  11.249  36.359  0.00  0.00    +0.006 C 
ATOM     17  C10 UNL     1      13.368  10.858  34.941  0.00  0.00    +0.027 C 
BRANCH  16  18
ATOM     18  C5  UNL     1      12.867  12.778  36.564  0.00  0.00    +0.085 C 
BRANCH  18  19
ATOM     19  N2  UNL     1      14.037  13.308  37.287  0.00  0.00    -0.310 NA
ATOM     20  H8  UNL     1      14.666  12.520  37.570  0.00  0.00    +0.122 HD
BRANCH  19  21
ATOM     21  C6  UNL     1      14.811  14.265  36.484  0.00  0.00    +0.140 C 
BRANCH  21  22
ATOM     22  C7  UNL     1      16.126  13.669  36.089  0.00  0.00    +0.097 A 
ATOM     23  C8  UNL     1      16.797  12.670  36.760  0.00  0.00    +0.068 A 
ATOM     24  C9  UNL     1      17.953  12.504  36.028  0.00  0.00    +0.230 A 
ATOM     25  O2  UNL     1      17.935  13.352  35.024  0.00  0.00    -0.363 OA
ATOM     26  N3  UNL     1      16.851  14.073  35.029  0.00  0.00    -0.082 NA
ENDBRANCH  21  22
ENDBRANCH  19  21
ENDBRANCH  18  19
ENDBRANCH  16  18
ENDBRANCH   3  14
TORSDOF 6
ENDMDL
MODEL 7
REMARK VINA RESULT:    -5.501      3.994      6.481
REMARK INTER + INTRA:          -8.173
REMARK INTER:                  -7.511
REMARK INTRA:                  -0.662
REMARK UNBOUND:                -0.741
REMARK  Name = /home/qwerty/github/datacon2025hack/step_04_hit_selection/docking/ligands/lig_199.pdb
REMARK  6 active torsions:
REMARK  status: ('A' for Active; 'I' for Inactive)
REMARK    1  A    between atoms: C1_2  and  C11_16
REMARK    2  A    between atoms: N1_3  and  C2_4
REMARK    3  A    between atoms: C4_6  and  C5_7
REMARK    4  A    between atoms: C5_7  and  N2_8
REMARK    5  A    between atoms: N2_8  and  C6_9
REMARK    6  A    between atoms: C6_9  and  C7_10
REMARK                            x       y       z     vdW  Elec       q    Type
REMARK                         _______ _______ _______ _____ _____    ______ ____
ROOT
ATOM      1  O1  UNL     1      18.530   6.490  37.899  0.00  0.00    -0.270 OA
ATOM      2  C1  UNL     1      19.075   7.328  37.127  0.00  0.00    +0.244 C 
ATOM      3  N1  UNL     1      18.349   8.504  36.737  0.00  0.00    -0.308 N 
ATOM      4  H1  UNL     1      18.695   9.070  35.930  0.00  0.00    +0.149 HD
ENDROOT
BRANCH   2   5
ATOM      5  C11 UNL     1      20.447   7.074  36.628  0.00  0.00    +0.037 A 
ATOM      6  C12 UNL     1      21.560   7.089  37.507  0.00  0.00    +0.013 A 
ATOM      7  C13 UNL     1      22.853   6.838  37.022  0.00  0.00    +0.007 A 
ATOM      8  C14 UNL     1      23.010   6.569  35.663  0.00  0.00    -0.017 A 
ATOM      9  C15 UNL     1      21.959   6.540  34.821  0.00  0.00    -0.016 A 
ATOM     10  C16 UNL     1      20.657   6.783  35.261  0.00  0.00    +0.019 A 
ATOM     11  C17 UNL     1      22.441   6.223  33.467  0.00  0.00    +0.195 C 
ATOM     12  O3  UNL     1      23.852   6.063  33.553  0.00  0.00    -0.371 OA
ATOM     13  C18 UNL     1      24.237   6.268  34.906  0.00  0.00    +0.195 C 
ENDBRANCH   2   5
BRANCH   3  14
ATOM     14  C2  UNL     1      17.079   8.863  37.376  0.00  0.00    +0.074 C 
ATOM     15  C3  UNL     1      16.193   9.750  36.501  0.00  0.00    +0.027 C 
ATOM     16  C4  UNL     1      16.360  10.897  37.500  0.00  0.00    +0.006 C 
ATOM     17  C10 UNL     1      17.242  10.006  38.375  0.00  0.00    +0.027 C 
BRANCH  16  18
ATOM     18  C5  UNL     1      17.113  12.121  36.934  0.00  0.00    +0.085 C 
BRANCH  18  19
ATOM     19  N2  UNL     1      16.522  13.396  37.377  0.00  0.00    -0.310 NA
ATOM     20  H8  UNL     1      17.231  13.948  37.915  0.00  0.00    +0.122 HD
BRANCH  19  21
ATOM     21  C6  UNL     1      16.038  14.214  36.255  0.00  0.00    +0.140 C 
BRANCH  21  22
ATOM     22  C7  UNL     1      14.647  13.812  35.879  0.00  0.00    +0.097 A 
ATOM     23  C8  UNL     1      14.190  13.573  34.601  0.00  0.00    +0.068 A 
ATOM     24  C9  UNL     1      12.857  13.274  34.780  0.00  0.00    +0.230 A 
ATOM     25  O2  UNL     1      12.584  13.345  36.064  0.00  0.00    -0.363 OA
ATOM     26  N3  UNL     1      13.637  13.670  36.757  0.00  0.00    -0.082 NA
ENDBRANCH  21  22
ENDBRANCH  19  21
ENDBRANCH  18  19
ENDBRANCH  16  18
ENDBRANCH   3  14
TORSDOF 6
ENDMDL
MODEL 8
REMARK VINA RESULT:    -5.483      2.637      3.588
REMARK INTER + INTRA:          -8.148
REMARK INTER:                  -7.385
REMARK INTRA:                  -0.763
REMARK UNBOUND:                -0.741
REMARK  Name = /home/qwerty/github/datacon2025hack/step_04_hit_selection/docking/ligands/lig_199.pdb
REMARK  6 active torsions:
REMARK  status: ('A' for Active; 'I' for Inactive)
REMARK    1  A    between atoms: C1_2  and  C11_16
REMARK    2  A    between atoms: N1_3  and  C2_4
REMARK    3  A    between atoms: C4_6  and  C5_7
REMARK    4  A    between atoms: C5_7  and  N2_8
REMARK    5  A    between atoms: N2_8  and  C6_9
REMARK    6  A    between atoms: C6_9  and  C7_10
REMARK                            x       y       z     vdW  Elec       q    Type
REMARK                         _______ _______ _______ _____ _____    ______ ____
ROOT
ATOM      1  O1  UNL     1      20.604   6.526  30.117  0.00  0.00    -0.270 OA
ATOM      2  C1  UNL     1      21.559   5.807  30.522  0.00  0.00    +0.244 C 
ATOM      3  N1  UNL     1      22.574   6.386  31.356  0.00  0.00    -0.308 N 
ATOM      4  H1  UNL     1      23.471   5.869  31.497  0.00  0.00    +0.149 HD
ENDROOT
BRANCH   2   5
ATOM      5  C11 UNL     1      21.620   4.383  30.117  0.00  0.00    +0.037 A 
ATOM      6  C12 UNL     1      21.858   3.360  31.070  0.00  0.00    +0.013 A 
ATOM      7  C13 UNL     1      21.904   2.014  30.672  0.00  0.00    +0.007 A 
ATOM      8  C14 UNL     1      21.705   1.714  29.325  0.00  0.00    -0.017 A 
ATOM      9  C15 UNL     1      21.466   2.676  28.413  0.00  0.00    -0.016 A 
ATOM     10  C16 UNL     1      21.411   4.025  28.765  0.00  0.00    +0.019 A 
ATOM     11  C17 UNL     1      21.291   2.049  27.093  0.00  0.00    +0.195 C 
ATOM     12  O3  UNL     1      21.439   0.646  27.275  0.00  0.00    -0.371 OA
ATOM     13  C18 UNL     1      21.695   0.404  28.653  0.00  0.00    +0.195 C 
ENDBRANCH   2   5
BRANCH   3  14
ATOM     14  C2  UNL     1      22.420   7.729  31.923  0.00  0.00    +0.074 C 
ATOM     15  C3  UNL     1      23.661   8.211  32.676  0.00  0.00    +0.027 C 
ATOM     16  C4  UNL     1      22.869   8.192  33.986  0.00  0.00    +0.006 C 
ATOM     17  C10 UNL     1      21.629   7.714  33.229  0.00  0.00    +0.027 C 
BRANCH  16  18
ATOM     18  C5  UNL     1      23.382   7.161  35.017  0.00  0.00    +0.085 C 
BRANCH  18  19
ATOM     19  N2  UNL     1      23.353   7.685  36.394  0.00  0.00    -0.310 NA
ATOM     20  H8  UNL     1      22.965   8.658  36.395  0.00  0.00    +0.122 HD
BRANCH  19  21
ATOM     21  C6  UNL     1      22.547   6.854  37.298  0.00  0.00    +0.140 C 
BRANCH  21  22
ATOM     22  C7  UNL     1      21.135   7.350  37.342  0.00  0.00    +0.097 A 
ATOM     23  C8  UNL     1      20.009   6.575  37.513  0.00  0.00    +0.068 A 
ATOM     24  C9  UNL     1      18.974   7.483  37.447  0.00  0.00    +0.230 A 
ATOM     25  O2  UNL     1      19.482   8.679  37.248  0.00  0.00    -0.363 OA
ATOM     26  N3  UNL     1      20.781   8.638  37.177  0.00  0.00    -0.082 NA
ENDBRANCH  21  22
ENDBRANCH  19  21
ENDBRANCH  18  19
ENDBRANCH  16  18
ENDBRANCH   3  14
TORSDOF 6
ENDMDL
MODEL 9
REMARK VINA RESULT:    -5.407      6.467      8.476
REMARK INTER + INTRA:          -8.045
REMARK INTER:                  -7.474
REMARK INTRA:                  -0.571
REMARK UNBOUND:                -0.741
REMARK  Name = /home/qwerty/github/datacon2025hack/step_04_hit_selection/docking/ligands/lig_199.pdb
REMARK  6 active torsions:
REMARK  status: ('A' for Active; 'I' for Inactive)
REMARK    1  A    between atoms: C1_2  and  C11_16
REMARK    2  A    between atoms: N1_3  and  C2_4
REMARK    3  A    between atoms: C4_6  and  C5_7
REMARK    4  A    between atoms: C5_7  and  N2_8
REMARK    5  A    between atoms: N2_8  and  C6_9
REMARK    6  A    between atoms: C6_9  and  C7_10
REMARK                            x       y       z     vdW  Elec       q    Type
REMARK                         _______ _______ _______ _____ _____    ______ ____
ROOT
ATOM      1  O1  UNL     1      23.331   1.421  28.413  0.00  0.00    -0.270 OA
ATOM      2  C1  UNL     1      22.108   1.610  28.161  0.00  0.00    +0.244 C 
ATOM      3  N1  UNL     1      21.122   1.252  29.141  0.00  0.00    -0.308 N 
ATOM      4  H1  UNL     1      20.120   1.187  28.854  0.00  0.00    +0.149 HD
ENDROOT
BRANCH   2   5
ATOM      5  C11 UNL     1      21.715   2.186  26.854  0.00  0.00    +0.037 A 
ATOM      6  C12 UNL     1      20.751   1.548  26.033  0.00  0.00    +0.013 A 
ATOM      7  C13 UNL     1      20.381   2.111  24.800  0.00  0.00    +0.007 A 
ATOM      8  C14 UNL     1      20.981   3.309  24.413  0.00  0.00    -0.017 A 
ATOM      9  C15 UNL     1      21.889   3.929  25.190  0.00  0.00    -0.016 A 
ATOM     10  C16 UNL     1      22.284   3.406  26.421  0.00  0.00    +0.019 A 
ATOM     11  C17 UNL     1      22.327   5.164  24.518  0.00  0.00    +0.195 C 
ATOM     12  O3  UNL     1      21.621   5.242  23.286  0.00  0.00    -0.371 OA
ATOM     13  C18 UNL     1      20.772   4.105  23.192  0.00  0.00    +0.195 C 
ENDBRANCH   2   5
BRANCH   3  14
ATOM     14  C2  UNL     1      21.506   0.871  30.504  0.00  0.00    +0.074 C 
ATOM     15  C3  UNL     1      20.342   0.309  31.323  0.00  0.00    +0.027 C 
ATOM     16  C4  UNL     1      20.418   1.521  32.255  0.00  0.00    +0.006 C 
ATOM     17  C10 UNL     1      21.584   2.077  31.437  0.00  0.00    +0.027 C 
BRANCH  16  18
ATOM     18  C5  UNL     1      19.167   2.425  32.216  0.00  0.00    +0.085 C 
BRANCH  18  19
ATOM     19  N2  UNL     1      18.476   2.482  33.516  0.00  0.00    -0.310 NA
ATOM     20  H8  UNL     1      17.965   3.392  33.606  0.00  0.00    +0.122 HD
BRANCH  19  21
ATOM     21  C6  UNL     1      17.519   1.382  33.697  0.00  0.00    +0.140 C 
BRANCH  21  22
ATOM     22  C7  UNL     1      17.470   0.966  35.134  0.00  0.00    +0.097 A 
ATOM     23  C8  UNL     1      16.748  -0.090  35.647  0.00  0.00    +0.068 A 
ATOM     24  C9  UNL     1      17.004  -0.034  37.000  0.00  0.00    +0.230 A 
ATOM     25  O2  UNL     1      17.806   0.982  37.230  0.00  0.00    -0.363 OA
ATOM     26  N3  UNL     1      18.106   1.609  36.130  0.00  0.00    -0.082 NA
ENDBRANCH  21  22
ENDBRANCH  19  21
ENDBRANCH  18  19
ENDBRANCH  16  18
ENDBRANCH   3  14
TORSDOF 6
ENDMDL
