MODEL 1
REMARK VINA RESULT:    -7.688      0.000      0.000
REMARK INTER + INTRA:         -11.419
REMARK INTER:                 -10.384
REMARK INTRA:                  -1.035
REMARK UNBOUND:                -1.035
REMARK  Name = /home/qwerty/github/datacon2025hack/step_04_hit_selection/docking/ligands/lig_135.pdb
REMARK  9 active torsions:
REMARK  status: ('A' for Active; 'I' for Inactive)
REMARK    1  A    between atoms: C1_1  and  C2_2
REMARK    2  A    between atoms: C2_2  and  C3_3
REMARK    3  A    between atoms: C2_2  and  C4_4
REMARK    4  A    between atoms: C2_2  and  O1_5
REMARK    5  A    between atoms: O1_5  and  C5_6
REMARK    6  A    between atoms: N1_8  and  C6_9
REMARK    7  A    between atoms: C6_9  and  C7_10
REMARK    8  A    between atoms: N2_12  and  C8_13
REMARK    9  A    between atoms: C12_19  and  C13_20
REMARK                            x       y       z     vdW  Elec       q    Type
REMARK                         _______ _______ _______ _____ _____    ______ ____
ROOT
ATOM      1  C8  UNL     1      21.177   1.952  28.497  0.00  0.00    +0.034 A 
ATOM      2  C9  UNL     1      22.170   2.802  27.938  0.00  0.00    +0.025 A 
ATOM      3  C10 UNL     1      22.279   2.962  26.545  0.00  0.00    +0.029 A 
ATOM      4  C11 UNL     1      21.364   2.286  25.745  0.00  0.00    +0.067 A 
ATOM      5  N3  UNL     1      21.301   2.258  24.404  0.00  0.00    -0.276 N 
ATOM      6  N4  UNL     1      20.295   1.470  24.045  0.00  0.00    -0.170 NA
ATOM      7  C12 UNL     1      19.701   0.997  25.169  0.00  0.00    +0.135 A 
ATOM      8  C19 UNL     1      20.378   1.500  26.270  0.00  0.00    +0.032 A 
ATOM      9  C20 UNL     1      20.261   1.296  27.647  0.00  0.00    +0.035 A 
ATOM     10  H14 UNL     1      21.933   2.754  23.736  0.00  0.00    +0.189 HD
ENDROOT
BRANCH   7  11
ATOM     11  C13 UNL     1      18.538   0.097  25.143  0.00  0.00    +0.162 A 
ATOM     12  N5  UNL     1      17.326   0.466  25.642  0.00  0.00    -0.207 NA
ATOM     13  C14 UNL     1      16.591  -0.643  25.460  0.00  0.00    +0.178 A 
ATOM     14  N6  UNL     1      15.291  -0.817  25.804  0.00  0.00    -0.234 NA
ATOM     15  C15 UNL     1      14.703  -2.029  25.566  0.00  0.00    +0.113 A 
ATOM     16  C16 UNL     1      15.443  -3.085  24.980  0.00  0.00    +0.022 A 
ATOM     17  C17 UNL     1      16.792  -2.886  24.637  0.00  0.00    +0.031 A 
ATOM     18  C18 UNL     1      17.330  -1.629  24.894  0.00  0.00    +0.086 A 
ATOM     19  N7  UNL     1      18.574  -1.184  24.687  0.00  0.00    -0.335 N 
ATOM     20  H18 UNL     1      19.387  -1.728  24.324  0.00  0.00    +0.167 HD
ENDBRANCH   7  11
BRANCH   1  23
ATOM     21  C7  UNL     1      20.105   2.489  30.734  0.00  0.00    +0.241 C 
ATOM     22  O3  UNL     1      19.602   3.562  30.301  0.00  0.00    -0.273 OA
ATOM     23  N2  UNL     1      21.056   1.781  29.919  0.00  0.00    -0.284 N 
ATOM     24  H11 UNL     1      21.754   1.165  30.394  0.00  0.00    +0.155 HD
BRANCH  21  25
ATOM     25  C6  UNL     1      19.821   2.043  32.172  0.00  0.00    +0.114 C 
ATOM     26  C21 UNL     1      20.359   0.608  32.357  0.00  0.00    +0.035 C 
ATOM     27  C22 UNL     1      19.149  -0.315  32.369  0.00  0.00    +0.003 C 
ATOM     28  C23 UNL     1      17.971   0.532  32.818  0.00  0.00    +0.003 C 
ATOM     29  C24 UNL     1      18.296   1.973  32.437  0.00  0.00    +0.035 C 
BRANCH  25  32
ATOM     30  C5  UNL     1      21.822   3.426  33.063  0.00  0.00    +0.402 C 
ATOM     31  O2  UNL     1      22.577   3.036  32.132  0.00  0.00    -0.226 OA
ATOM     32  N1  UNL     1      20.459   2.972  33.135  0.00  0.00    -0.267 N 
ATOM     33  H10 UNL     1      19.931   3.296  33.976  0.00  0.00    +0.153 HD
BRANCH  30  34
ATOM     34  O1  UNL     1      22.293   4.302  34.051  0.00  0.00    -0.445 OA
BRANCH  34  36
ATOM     35  C1  UNL     1      24.041   5.855  33.323  0.00  0.00    +0.055 C 
ATOM     36  C2  UNL     1      22.611   5.691  33.874  0.00  0.00    +0.107 C 
ATOM     37  C3  UNL     1      22.534   6.354  35.258  0.00  0.00    +0.055 C 
ATOM     38  C4  UNL     1      21.588   6.367  32.941  0.00  0.00    +0.055 C 
ENDBRANCH  34  36
ENDBRANCH  30  34
ENDBRANCH  25  32
ENDBRANCH  21  25
ENDBRANCH   1  23
TORSDOF 6
ENDMDL
MODEL 2
REMARK VINA RESULT:    -7.683      2.603      9.911
REMARK INTER + INTRA:         -11.413
REMARK INTER:                 -10.413
REMARK INTRA:                  -1.000
REMARK UNBOUND:                -1.035
REMARK  Name = /home/qwerty/github/datacon2025hack/step_04_hit_selection/docking/ligands/lig_135.pdb
REMARK  9 active torsions:
REMARK  status: ('A' for Active; 'I' for Inactive)
REMARK    1  A    between atoms: C1_1  and  C2_2
REMARK    2  A    between atoms: C2_2  and  C3_3
REMARK    3  A    between atoms: C2_2  and  C4_4
REMARK    4  A    between atoms: C2_2  and  O1_5
REMARK    5  A    between atoms: O1_5  and  C5_6
REMARK    6  A    between atoms: N1_8  and  C6_9
REMARK    7  A    between atoms: C6_9  and  C7_10
REMARK    8  A    between atoms: N2_12  and  C8_13
REMARK    9  A    between atoms: C12_19  and  C13_20
REMARK                            x       y       z     vdW  Elec       q    Type
REMARK                         _______ _______ _______ _____ _____    ______ ____
ROOT
ATOM      1  C8  UNL     1      21.167   1.870  29.443  0.00  0.00    +0.034 A 
ATOM      2  C9  UNL     1      20.560   0.723  30.022  0.00  0.00    +0.025 A 
ATOM      3  C10 UNL     1      20.456   0.592  31.418  0.00  0.00    +0.029 A 
ATOM      4  C11 UNL     1      20.939   1.634  32.202  0.00  0.00    +0.067 A 
ATOM      5  N3  UNL     1      20.981   1.710  33.541  0.00  0.00    -0.276 N 
ATOM      6  N4  UNL     1      21.544   2.864  33.881  0.00  0.00    -0.170 NA
ATOM      7  C12 UNL     1      21.855   3.537  32.747  0.00  0.00    +0.135 A 
ATOM      8  C19 UNL     1      21.486   2.762  31.658  0.00  0.00    +0.032 A 
ATOM      9  C20 UNL     1      21.631   2.911  30.277  0.00  0.00    +0.035 A 
ATOM     10  H14 UNL     1      20.645   0.992  34.221  0.00  0.00    +0.189 HD
ENDROOT
BRANCH   7  11
ATOM     11  C13 UNL     1      22.488   4.866  32.750  0.00  0.00    +0.162 A 
ATOM     12  N5  UNL     1      21.864   5.966  32.246  0.00  0.00    -0.207 NA
ATOM     13  C14 UNL     1      22.793   6.922  32.407  0.00  0.00    +0.178 A 
ATOM     14  N6  UNL     1      22.682   8.225  32.050  0.00  0.00    -0.234 NA
ATOM     15  C15 UNL     1      23.744   9.060  32.266  0.00  0.00    +0.113 A 
ATOM     16  C16 UNL     1      24.940   8.568  32.844  0.00  0.00    +0.022 A 
ATOM     17  C17 UNL     1      25.037   7.211  33.200  0.00  0.00    +0.031 A 
ATOM     18  C18 UNL     1      23.921   6.416  32.965  0.00  0.00    +0.086 A 
ATOM     19  N7  UNL     1      23.753   5.108  33.189  0.00  0.00    -0.335 N 
ATOM     20  H18 UNL     1      24.461   4.433  33.551  0.00  0.00    +0.167 HD
ENDBRANCH   7  11
BRANCH   1  23
ATOM     21  C7  UNL     1      20.440   2.882  27.231  0.00  0.00    +0.241 C 
ATOM     22  O3  UNL     1      19.330   3.255  27.700  0.00  0.00    -0.273 OA
ATOM     23  N2  UNL     1      21.279   2.015  28.017  0.00  0.00    -0.284 N 
ATOM     24  H11 UNL     1      21.956   1.395  27.519  0.00  0.00    +0.155 HD
BRANCH  21  25
ATOM     25  C6  UNL     1      20.805   3.220  25.783  0.00  0.00    +0.114 C 
ATOM     26  C21 UNL     1      22.309   2.940  25.575  0.00  0.00    +0.035 C 
ATOM     27  C22 UNL     1      23.004   4.293  25.534  0.00  0.00    +0.003 C 
ATOM     28  C23 UNL     1      21.956   5.298  25.090  0.00  0.00    +0.003 C 
ATOM     29  C24 UNL     1      20.601   4.731  25.501  0.00  0.00    +0.035 C 
BRANCH  25  32
ATOM     30  C5  UNL     1      19.748   1.003  24.961  0.00  0.00    +0.402 C 
ATOM     31  O2  UNL     1      20.247   0.347  25.914  0.00  0.00    -0.226 OA
ATOM     32  N1  UNL     1      19.986   2.417  24.843  0.00  0.00    -0.267 N 
ATOM     33  H10 UNL     1      19.587   2.862  23.987  0.00  0.00    +0.153 HD
BRANCH  30  34
ATOM     34  O1  UNL     1      18.956   0.372  23.991  0.00  0.00    -0.445 OA
BRANCH  34  36
ATOM     35  C1  UNL     1      17.653  -1.577  24.700  0.00  0.00    +0.055 C 
ATOM     36  C2  UNL     1      17.622  -0.129  24.176  0.00  0.00    +0.107 C 
ATOM     37  C3  UNL     1      16.937  -0.113  22.801  0.00  0.00    +0.055 C 
ATOM     38  C4  UNL     1      16.831   0.780  25.137  0.00  0.00    +0.055 C 
ENDBRANCH  34  36
ENDBRANCH  30  34
ENDBRANCH  25  32
ENDBRANCH  21  25
ENDBRANCH   1  23
TORSDOF 6
ENDMDL
MODEL 3
REMARK VINA RESULT:    -7.514     13.123     14.641
REMARK INTER + INTRA:         -11.185
REMARK INTER:                 -10.235
REMARK INTRA:                  -0.950
REMARK UNBOUND:                -1.035
REMARK  Name = /home/qwerty/github/datacon2025hack/step_04_hit_selection/docking/ligands/lig_135.pdb
REMARK  9 active torsions:
REMARK  status: ('A' for Active; 'I' for Inactive)
REMARK    1  A    between atoms: C1_1  and  C2_2
REMARK    2  A    between atoms: C2_2  and  C3_3
REMARK    3  A    between atoms: C2_2  and  C4_4
REMARK    4  A    between atoms: C2_2  and  O1_5
REMARK    5  A    between atoms: O1_5  and  C5_6
REMARK    6  A    between atoms: N1_8  and  C6_9
REMARK    7  A    between atoms: C6_9  and  C7_10
REMARK    8  A    between atoms: N2_12  and  C8_13
REMARK    9  A    between atoms: C12_19  and  C13_20
REMARK                            x       y       z     vdW  Elec       q    Type
REMARK                         _______ _______ _______ _____ _____    ______ ____
ROOT
ATOM      1  C8  UNL     1       9.252  11.725  28.696  0.00  0.00    +0.034 A 
ATOM      2  C9  UNL     1       8.495  11.116  29.734  0.00  0.00    +0.025 A 
ATOM      3  C10 UNL     1       7.600  10.068  29.452  0.00  0.00    +0.029 A 
ATOM      4  C11 UNL     1       7.510   9.634  28.133  0.00  0.00    +0.067 A 
ATOM      5  N3  UNL     1       6.705   8.686  27.629  0.00  0.00    -0.276 N 
ATOM      6  N4  UNL     1       6.917   8.604  26.321  0.00  0.00    -0.170 NA
ATOM      7  C12 UNL     1       7.876   9.502  25.987  0.00  0.00    +0.135 A 
ATOM      8  C19 UNL     1       8.263  10.181  27.133  0.00  0.00    +0.032 A 
ATOM      9  C20 UNL     1       9.139  11.242  27.373  0.00  0.00    +0.035 A 
ATOM     10  H14 UNL     1       6.012   8.107  28.154  0.00  0.00    +0.189 HD
ENDROOT
BRANCH   7  11
ATOM     11  C13 UNL     1       8.370   9.675  24.612  0.00  0.00    +0.162 A 
ATOM     12  N5  UNL     1       9.652   9.381  24.260  0.00  0.00    -0.207 NA
ATOM     13  C14 UNL     1       9.679   9.722  22.962  0.00  0.00    +0.178 A 
ATOM     14  N6  UNL     1      10.743   9.639  22.126  0.00  0.00    -0.234 NA
ATOM     15  C15 UNL     1      10.599  10.056  20.831  0.00  0.00    +0.113 A 
ATOM     16  C16 UNL     1       9.361  10.574  20.377  0.00  0.00    +0.022 A 
ATOM     17  C17 UNL     1       8.271  10.658  21.262  0.00  0.00    +0.031 A 
ATOM     18  C18 UNL     1       8.478  10.208  22.561  0.00  0.00    +0.086 A 
ATOM     19  N7  UNL     1       7.629  10.193  23.595  0.00  0.00    -0.335 N 
ATOM     20  H18 UNL     1       6.654  10.561  23.616  0.00  0.00    +0.167 HD
ENDBRANCH   7  11
BRANCH   1  23
ATOM     21  C7  UNL     1      11.577  12.606  29.207  0.00  0.00    +0.241 C 
ATOM     22  O3  UNL     1      11.994  11.469  29.560  0.00  0.00    -0.273 OA
ATOM     23  N2  UNL     1      10.170  12.796  28.972  0.00  0.00    -0.284 N 
ATOM     24  H11 UNL     1       9.774  13.756  29.085  0.00  0.00    +0.155 HD
BRANCH  21  25
ATOM     25  C6  UNL     1      12.541  13.796  29.190  0.00  0.00    +0.114 C 
ATOM     26  C21 UNL     1      11.877  14.956  28.415  0.00  0.00    +0.035 C 
ATOM     27  C22 UNL     1      12.567  15.027  27.060  0.00  0.00    +0.003 C 
ATOM     28  C23 UNL     1      13.945  14.418  27.251  0.00  0.00    +0.003 C 
ATOM     29  C24 UNL     1      13.838  13.445  28.420  0.00  0.00    +0.035 C 
BRANCH  25  32
ATOM     30  C5  UNL     1      11.922  14.328  31.649  0.00  0.00    +0.402 C 
ATOM     31  O2  UNL     1      10.704  14.070  31.456  0.00  0.00    -0.226 OA
ATOM     32  N1  UNL     1      12.872  14.211  30.575  0.00  0.00    -0.267 N 
ATOM     33  H10 UNL     1      13.845  14.508  30.812  0.00  0.00    +0.153 HD
BRANCH  30  34
ATOM     34  O1  UNL     1      12.379  14.740  32.909  0.00  0.00    -0.445 OA
BRANCH  34  36
ATOM     35  C1  UNL     1      11.115  13.865  34.815  0.00  0.00    +0.055 C 
ATOM     36  C2  UNL     1      12.472  13.924  34.088  0.00  0.00    +0.107 C 
ATOM     37  C3  UNL     1      13.504  14.584  35.015  0.00  0.00    +0.055 C 
ATOM     38  C4  UNL     1      12.960  12.507  33.729  0.00  0.00    +0.055 C 
ENDBRANCH  34  36
ENDBRANCH  30  34
ENDBRANCH  25  32
ENDBRANCH  21  25
ENDBRANCH   1  23
TORSDOF 6
ENDMDL
MODEL 4
REMARK VINA RESULT:    -7.480     13.186     16.552
REMARK INTER + INTRA:         -11.139
REMARK INTER:                 -10.102
REMARK INTRA:                  -1.037
REMARK UNBOUND:                -1.035
REMARK  Name = /home/qwerty/github/datacon2025hack/step_04_hit_selection/docking/ligands/lig_135.pdb
REMARK  9 active torsions:
REMARK  status: ('A' for Active; 'I' for Inactive)
REMARK    1  A    between atoms: C1_1  and  C2_2
REMARK    2  A    between atoms: C2_2  and  C3_3
REMARK    3  A    between atoms: C2_2  and  C4_4
REMARK    4  A    between atoms: C2_2  and  O1_5
REMARK    5  A    between atoms: O1_5  and  C5_6
REMARK    6  A    between atoms: N1_8  and  C6_9
REMARK    7  A    between atoms: C6_9  and  C7_10
REMARK    8  A    between atoms: N2_12  and  C8_13
REMARK    9  A    between atoms: C12_19  and  C13_20
REMARK                            x       y       z     vdW  Elec       q    Type
REMARK                         _______ _______ _______ _____ _____    ______ ____
ROOT
ATOM      1  C8  UNL     1      10.242  12.687  28.568  0.00  0.00    +0.034 A 
ATOM      2  C9  UNL     1      10.874  13.476  27.568  0.00  0.00    +0.025 A 
ATOM      3  C10 UNL     1      11.777  14.495  27.920  0.00  0.00    +0.029 A 
ATOM      4  C11 UNL     1      12.049  14.678  29.272  0.00  0.00    +0.067 A 
ATOM      5  N3  UNL     1      12.838  15.604  29.838  0.00  0.00    -0.276 N 
ATOM      6  N4  UNL     1      12.797  15.445  31.155  0.00  0.00    -0.170 NA
ATOM      7  C12 UNL     1      11.981  14.399  31.434  0.00  0.00    +0.135 A 
ATOM      8  C19 UNL     1      11.482  13.899  30.241  0.00  0.00    +0.032 A 
ATOM      9  C20 UNL     1      10.559  12.899  29.928  0.00  0.00    +0.035 A 
ATOM     10  H14 UNL     1      13.392  16.341  29.347  0.00  0.00    +0.189 HD
ENDROOT
BRANCH   7  11
ATOM     11  C13 UNL     1      11.712  13.934  32.804  0.00  0.00    +0.162 A 
ATOM     12  N5  UNL     1      12.209  12.759  33.280  0.00  0.00    -0.207 NA
ATOM     13  C14 UNL     1      11.692  12.710  34.519  0.00  0.00    +0.178 A 
ATOM     14  N6  UNL     1      11.868  11.722  35.430  0.00  0.00    -0.234 NA
ATOM     15  C15 UNL     1      11.243  11.824  36.642  0.00  0.00    +0.113 A 
ATOM     16  C16 UNL     1      10.420  12.939  36.935  0.00  0.00    +0.022 A 
ATOM     17  C17 UNL     1      10.245  13.950  35.974  0.00  0.00    +0.031 A 
ATOM     18  C18 UNL     1      10.915  13.794  34.765  0.00  0.00    +0.086 A 
ATOM     19  N7  UNL     1      10.908  14.586  33.687  0.00  0.00    -0.335 N 
ATOM     20  H18 UNL     1      10.354  15.458  33.548  0.00  0.00    +0.167 HD
ENDBRANCH   7  11
BRANCH   1  23
ATOM     21  C7  UNL     1       9.661  10.245  28.189  0.00  0.00    +0.241 C 
ATOM     22  O3  UNL     1      10.874   9.912  28.091  0.00  0.00    -0.273 OA
ATOM     23  N2  UNL     1       9.318  11.643  28.221  0.00  0.00    -0.284 N 
ATOM     24  H11 UNL     1       8.366  11.927  27.897  0.00  0.00    +0.155 HD
BRANCH  21  25
ATOM     25  C6  UNL     1       8.570   9.173  28.113  0.00  0.00    +0.114 C 
ATOM     26  C21 UNL     1       7.254   9.771  28.657  0.00  0.00    +0.035 C 
ATOM     27  C22 UNL     1       7.040   9.171  30.039  0.00  0.00    +0.003 C 
ATOM     28  C23 UNL     1       7.787   7.849  30.051  0.00  0.00    +0.003 C 
ATOM     29  C24 UNL     1       8.913   7.971  29.029  0.00  0.00    +0.035 C 
BRANCH  25  32
ATOM     30  C5  UNL     1       8.087   9.561  25.598  0.00  0.00    +0.402 C 
ATOM     31  O2  UNL     1       7.937  10.802  25.762  0.00  0.00    -0.226 OA
ATOM     32  N1  UNL     1       8.399   8.710  26.715  0.00  0.00    -0.267 N 
ATOM     33  H10 UNL     1       8.439   7.690  26.494  0.00  0.00    +0.153 HD
BRANCH  30  34
ATOM     34  O1  UNL     1       7.947   8.982  24.329  0.00  0.00    -0.445 OA
BRANCH  34  36
ATOM     35  C1  UNL     1      10.253   9.541  23.723  0.00  0.00    +0.055 C 
ATOM     36  C2  UNL     1       8.856   9.121  23.226  0.00  0.00    +0.107 C 
ATOM     37  C3  UNL     1       8.300  10.229  22.317  0.00  0.00    +0.055 C 
ATOM     38  C4  UNL     1       8.936   7.811  22.420  0.00  0.00    +0.055 C 
ENDBRANCH  34  36
ENDBRANCH  30  34
ENDBRANCH  25  32
ENDBRANCH  21  25
ENDBRANCH   1  23
TORSDOF 6
ENDMDL
MODEL 5
REMARK VINA RESULT:    -7.442      8.996     12.292
REMARK INTER + INTRA:         -11.087
REMARK INTER:                 -10.424
REMARK INTRA:                  -0.663
REMARK UNBOUND:                -1.035
REMARK  Name = /home/qwerty/github/datacon2025hack/step_04_hit_selection/docking/ligands/lig_135.pdb
REMARK  9 active torsions:
REMARK  status: ('A' for Active; 'I' for Inactive)
REMARK    1  A    between atoms: C1_1  and  C2_2
REMARK    2  A    between atoms: C2_2  and  C3_3
REMARK    3  A    between atoms: C2_2  and  C4_4
REMARK    4  A    between atoms: C2_2  and  O1_5
REMARK    5  A    between atoms: O1_5  and  C5_6
REMARK    6  A    between atoms: N1_8  and  C6_9
REMARK    7  A    between atoms: C6_9  and  C7_10
REMARK    8  A    between atoms: N2_12  and  C8_13
REMARK    9  A    between atoms: C12_19  and  C13_20
REMARK                            x       y       z     vdW  Elec       q    Type
REMARK                         _______ _______ _______ _____ _____    ______ ____
ROOT
ATOM      1  C8  UNL     1      12.019   3.722  20.906  0.00  0.00    +0.034 A 
ATOM      2  C9  UNL     1      12.490   4.455  19.783  0.00  0.00    +0.025 A 
ATOM      3  C10 UNL     1      13.756   4.190  19.231  0.00  0.00    +0.029 A 
ATOM      4  C11 UNL     1      14.510   3.170  19.804  0.00  0.00    +0.067 A 
ATOM      5  N3  UNL     1      15.747   2.771  19.473  0.00  0.00    -0.276 N 
ATOM      6  N4  UNL     1      16.105   1.787  20.289  0.00  0.00    -0.170 NA
ATOM      7  C12 UNL     1      15.081   1.546  21.143  0.00  0.00    +0.135 A 
ATOM      8  C19 UNL     1      14.051   2.429  20.857  0.00  0.00    +0.032 A 
ATOM      9  C20 UNL     1      12.812   2.686  21.447  0.00  0.00    +0.035 A 
ATOM     10  H14 UNL     1      16.351   3.162  18.716  0.00  0.00    +0.189 HD
ENDROOT
BRANCH   7  11
ATOM     11  C13 UNL     1      15.130   0.505  22.182  0.00  0.00    +0.162 A 
ATOM     12  N5  UNL     1      16.068  -0.482  22.174  0.00  0.00    -0.207 NA
ATOM     13  C14 UNL     1      15.723  -1.215  23.245  0.00  0.00    +0.178 A 
ATOM     14  N6  UNL     1      16.335  -2.341  23.685  0.00  0.00    -0.234 NA
ATOM     15  C15 UNL     1      15.831  -2.978  24.786  0.00  0.00    +0.113 A 
ATOM     16  C16 UNL     1      14.684  -2.474  25.446  0.00  0.00    +0.022 A 
ATOM     17  C17 UNL     1      14.060  -1.307  24.969  0.00  0.00    +0.031 A 
ATOM     18  C18 UNL     1      14.625  -0.700  23.854  0.00  0.00    +0.086 A 
ATOM     19  N7  UNL     1      14.227   0.392  23.193  0.00  0.00    -0.335 N 
ATOM     20  H18 UNL     1      13.378   0.969  23.381  0.00  0.00    +0.167 HD
ENDBRANCH   7  11
BRANCH   1  23
ATOM     21  C7  UNL     1      10.466   5.037  22.424  0.00  0.00    +0.241 C 
ATOM     22  O3  UNL     1      11.426   5.527  23.079  0.00  0.00    -0.273 OA
ATOM     23  N2  UNL     1      10.726   3.984  21.478  0.00  0.00    -0.284 N 
ATOM     24  H11 UNL     1       9.953   3.319  21.252  0.00  0.00    +0.155 HD
BRANCH  21  25
ATOM     25  C6  UNL     1       9.029   5.453  22.755  0.00  0.00    +0.114 C 
ATOM     26  C21 UNL     1       8.836   5.377  24.286  0.00  0.00    +0.035 C 
ATOM     27  C22 UNL     1       8.002   4.134  24.560  0.00  0.00    +0.003 C 
ATOM     28  C23 UNL     1       7.212   3.862  23.291  0.00  0.00    +0.003 C 
ATOM     29  C24 UNL     1       8.012   4.460  22.139  0.00  0.00    +0.035 C 
BRANCH  25  32
ATOM     30  C5  UNL     1       9.165   7.328  20.973  0.00  0.00    +0.402 C 
ATOM     31  O2  UNL     1       9.796   6.592  20.167  0.00  0.00    -0.226 OA
ATOM     32  N1  UNL     1       8.762   6.824  22.259  0.00  0.00    -0.267 N 
ATOM     33  H10 UNL     1       8.303   7.525  22.883  0.00  0.00    +0.153 HD
BRANCH  30  34
ATOM     34  O1  UNL     1       8.849   8.653  20.640  0.00  0.00    -0.445 OA
BRANCH  34  36
ATOM     35  C1  UNL     1      10.642   9.479  22.088  0.00  0.00    +0.055 C 
ATOM     36  C2  UNL     1       9.589   9.824  21.018  0.00  0.00    +0.107 C 
ATOM     37  C3  UNL     1       8.584  10.822  21.614  0.00  0.00    +0.055 C 
ATOM     38  C4  UNL     1      10.255  10.465  19.785  0.00  0.00    +0.055 C 
ENDBRANCH  34  36
ENDBRANCH  30  34
ENDBRANCH  25  32
ENDBRANCH  21  25
ENDBRANCH   1  23
TORSDOF 6
ENDMDL
MODEL 6
REMARK VINA RESULT:    -7.183      8.646     12.316
REMARK INTER + INTRA:         -10.738
REMARK INTER:                  -9.463
REMARK INTRA:                  -1.274
REMARK UNBOUND:                -1.035
REMARK  Name = /home/qwerty/github/datacon2025hack/step_04_hit_selection/docking/ligands/lig_135.pdb
REMARK  9 active torsions:
REMARK  status: ('A' for Active; 'I' for Inactive)
REMARK    1  A    between atoms: C1_1  and  C2_2
REMARK    2  A    between atoms: C2_2  and  C3_3
REMARK    3  A    between atoms: C2_2  and  C4_4
REMARK    4  A    between atoms: C2_2  and  O1_5
REMARK    5  A    between atoms: O1_5  and  C5_6
REMARK    6  A    between atoms: N1_8  and  C6_9
REMARK    7  A    between atoms: C6_9  and  C7_10
REMARK    8  A    between atoms: N2_12  and  C8_13
REMARK    9  A    between atoms: C12_19  and  C13_20
REMARK                            x       y       z     vdW  Elec       q    Type
REMARK                         _______ _______ _______ _____ _____    ______ ____
ROOT
ATOM      1  C8  UNL     1      12.385   1.968  22.391  0.00  0.00    +0.034 A 
ATOM      2  C9  UNL     1      11.347   1.020  22.605  0.00  0.00    +0.025 A 
ATOM      3  C10 UNL     1       9.996   1.401  22.522  0.00  0.00    +0.029 A 
ATOM      4  C11 UNL     1       9.718   2.724  22.196  0.00  0.00    +0.067 A 
ATOM      5  N3  UNL     1       8.517   3.316  22.099  0.00  0.00    -0.276 N 
ATOM      6  N4  UNL     1       8.701   4.595  21.792  0.00  0.00    -0.170 NA
ATOM      7  C12 UNL     1      10.033   4.820  21.680  0.00  0.00    +0.135 A 
ATOM      8  C19 UNL     1      10.705   3.636  21.945  0.00  0.00    +0.032 A 
ATOM      9  C20 UNL     1      12.055   3.298  22.047  0.00  0.00    +0.035 A 
ATOM     10  H14 UNL     1       7.585   2.871  22.248  0.00  0.00    +0.189 HD
ENDROOT
BRANCH   7  11
ATOM     11  C13 UNL     1      10.599   6.134  21.336  0.00  0.00    +0.162 A 
ATOM     12  N5  UNL     1      11.598   6.705  22.064  0.00  0.00    -0.207 NA
ATOM     13  C14 UNL     1      11.768   7.884  21.444  0.00  0.00    +0.178 A 
ATOM     14  N6  UNL     1      12.649   8.857  21.784  0.00  0.00    -0.234 NA
ATOM     15  C15 UNL     1      12.670  10.012  21.051  0.00  0.00    +0.113 A 
ATOM     16  C16 UNL     1      11.780  10.189  19.963  0.00  0.00    +0.022 A 
ATOM     17  C17 UNL     1      10.870   9.170  19.631  0.00  0.00    +0.031 A 
ATOM     18  C18 UNL     1      10.904   8.016  20.406  0.00  0.00    +0.086 A 
ATOM     19  N7  UNL     1      10.146   6.918  20.321  0.00  0.00    -0.335 N 
ATOM     20  H18 UNL     1       9.352   6.749  19.666  0.00  0.00    +0.167 HD
ENDBRANCH   7  11
BRANCH   1  23
ATOM     21  C7  UNL     1      14.565   1.209  21.335  0.00  0.00    +0.241 C 
ATOM     22  O3  UNL     1      13.987   0.822  20.283  0.00  0.00    -0.273 OA
ATOM     23  N2  UNL     1      13.769   1.590  22.472  0.00  0.00    -0.284 N 
ATOM     24  H11 UNL     1      14.195   1.513  23.423  0.00  0.00    +0.155 HD
BRANCH  21  25
ATOM     25  C6  UNL     1      16.090   1.117  21.443  0.00  0.00    +0.114 C 
ATOM     26  C21 UNL     1      16.565  -0.125  20.657  0.00  0.00    +0.035 C 
ATOM     27  C22 UNL     1      16.934  -1.180  21.689  0.00  0.00    +0.003 C 
ATOM     28  C23 UNL     1      17.283  -0.429  22.962  0.00  0.00    +0.003 C 
ATOM     29  C24 UNL     1      16.526   0.894  22.913  0.00  0.00    +0.035 C 
BRANCH  25  32
ATOM     30  C5  UNL     1      16.552   3.665  21.464  0.00  0.00    +0.402 C 
ATOM     31  O2  UNL     1      15.827   3.844  22.479  0.00  0.00    -0.226 OA
ATOM     32  N1  UNL     1      16.720   2.349  20.910  0.00  0.00    -0.267 N 
ATOM     33  H10 UNL     1      17.284   2.308  20.032  0.00  0.00    +0.153 HD
BRANCH  30  34
ATOM     34  O1  UNL     1      17.205   4.743  20.849  0.00  0.00    -0.445 OA
BRANCH  34  36
ATOM     35  C1  UNL     1      16.238   6.991  20.919  0.00  0.00    +0.055 C 
ATOM     36  C2  UNL     1      16.590   5.767  20.052  0.00  0.00    +0.107 C 
ATOM     37  C3  UNL     1      15.293   5.177  19.478  0.00  0.00    +0.055 C 
ATOM     38  C4  UNL     1      17.511   6.173  18.886  0.00  0.00    +0.055 C 
ENDBRANCH  34  36
ENDBRANCH  30  34
ENDBRANCH  25  32
ENDBRANCH  21  25
ENDBRANCH   1  23
TORSDOF 6
ENDMDL
MODEL 7
REMARK VINA RESULT:    -6.970      2.619      3.976
REMARK INTER + INTRA:         -10.450
REMARK INTER:                 -10.309
REMARK INTRA:                  -0.141
REMARK UNBOUND:                -1.035
REMARK  Name = /home/qwerty/github/datacon2025hack/step_04_hit_selection/docking/ligands/lig_135.pdb
REMARK  9 active torsions:
REMARK  status: ('A' for Active; 'I' for Inactive)
REMARK    1  A    between atoms: C1_1  and  C2_2
REMARK    2  A    between atoms: C2_2  and  C3_3
REMARK    3  A    between atoms: C2_2  and  C4_4
REMARK    4  A    between atoms: C2_2  and  O1_5
REMARK    5  A    between atoms: O1_5  and  C5_6
REMARK    6  A    between atoms: N1_8  and  C6_9
REMARK    7  A    between atoms: C6_9  and  C7_10
REMARK    8  A    between atoms: N2_12  and  C8_13
REMARK    9  A    between atoms: C12_19  and  C13_20
REMARK                            x       y       z     vdW  Elec       q    Type
REMARK                         _______ _______ _______ _____ _____    ______ ____
ROOT
ATOM      1  C8  UNL     1      22.107   2.954  26.473  0.00  0.00    +0.034 A 
ATOM      2  C9  UNL     1      22.749   4.150  26.051  0.00  0.00    +0.025 A 
ATOM      3  C10 UNL     1      22.355   4.798  24.866  0.00  0.00    +0.029 A 
ATOM      4  C11 UNL     1      21.301   4.244  24.147  0.00  0.00    +0.067 A 
ATOM      5  N3  UNL     1      20.786   4.663  22.981  0.00  0.00    -0.276 N 
ATOM      6  N4  UNL     1      19.810   3.835  22.629  0.00  0.00    -0.170 NA
ATOM      7  C12 UNL     1      19.693   2.882  23.586  0.00  0.00    +0.135 A 
ATOM      8  C19 UNL     1      20.647   3.119  24.564  0.00  0.00    +0.032 A 
ATOM      9  C20 UNL     1      21.031   2.435  25.719  0.00  0.00    +0.035 A 
ATOM     10  H14 UNL     1      21.092   5.490  22.421  0.00  0.00    +0.189 HD
ENDROOT
BRANCH   7  11
ATOM     11  C13 UNL     1      18.696   1.801  23.524  0.00  0.00    +0.162 A 
ATOM     12  N5  UNL     1      17.417   2.019  23.112  0.00  0.00    -0.207 NA
ATOM     13  C14 UNL     1      16.860   0.805  23.253  0.00  0.00    +0.178 A 
ATOM     14  N6  UNL     1      15.573   0.471  22.988  0.00  0.00    -0.234 NA
ATOM     15  C15 UNL     1      15.166  -0.816  23.214  0.00  0.00    +0.113 A 
ATOM     16  C16 UNL     1      16.073  -1.777  23.724  0.00  0.00    +0.022 A 
ATOM     17  C17 UNL     1      17.402  -1.408  23.998  0.00  0.00    +0.031 A 
ATOM     18  C18 UNL     1      17.757  -0.089  23.738  0.00  0.00    +0.086 A 
ATOM     19  N7  UNL     1      18.932   0.522  23.923  0.00  0.00    -0.335 N 
ATOM     20  H18 UNL     1      19.796   0.115  24.343  0.00  0.00    +0.167 HD
ENDBRANCH   7  11
BRANCH   1  23
ATOM     21  C7  UNL     1      21.823   1.131  28.217  0.00  0.00    +0.241 C 
ATOM     22  O3  UNL     1      20.637   0.894  27.861  0.00  0.00    -0.273 OA
ATOM     23  N2  UNL     1      22.500   2.283  27.682  0.00  0.00    -0.284 N 
ATOM     24  H11 UNL     1      23.273   2.708  28.242  0.00  0.00    +0.155 HD
BRANCH  21  25
ATOM     25  C6  UNL     1      22.467   0.289  29.323  0.00  0.00    +0.114 C 
ATOM     26  C21 UNL     1      23.885   0.836  29.596  0.00  0.00    +0.035 C 
ATOM     27  C22 UNL     1      24.861  -0.152  28.974  0.00  0.00    +0.003 C 
ATOM     28  C23 UNL     1      24.141  -1.488  28.920  0.00  0.00    +0.003 C 
ATOM     29  C24 UNL     1      22.648  -1.180  28.864  0.00  0.00    +0.035 C 
BRANCH  25  32
ATOM     30  C5  UNL     1      21.298   1.534  31.270  0.00  0.00    +0.402 C 
ATOM     31  O2  UNL     1      21.704   2.658  30.869  0.00  0.00    -0.226 OA
ATOM     32  N1  UNL     1      21.640   0.336  30.553  0.00  0.00    -0.267 N 
ATOM     33  H10 UNL     1      21.314  -0.552  30.996  0.00  0.00    +0.153 HD
BRANCH  30  34
ATOM     34  O1  UNL     1      20.511   1.425  32.426  0.00  0.00    -0.445 OA
BRANCH  34  36
ATOM     35  C1  UNL     1      18.526   2.132  33.673  0.00  0.00    +0.055 C 
ATOM     36  C2  UNL     1      19.079   1.337  32.474  0.00  0.00    +0.107 C 
ATOM     37  C3  UNL     1      18.721  -0.146  32.656  0.00  0.00    +0.055 C 
ATOM     38  C4  UNL     1      18.461   1.841  31.155  0.00  0.00    +0.055 C 
ENDBRANCH  34  36
ENDBRANCH  30  34
ENDBRANCH  25  32
ENDBRANCH  21  25
ENDBRANCH   1  23
TORSDOF 6
ENDMDL
MODEL 8
REMARK VINA RESULT:    -6.849     11.841     13.502
REMARK INTER + INTRA:         -10.286
REMARK INTER:                  -9.720
REMARK INTRA:                  -0.567
REMARK UNBOUND:                -1.035
REMARK  Name = /home/qwerty/github/datacon2025hack/step_04_hit_selection/docking/ligands/lig_135.pdb
REMARK  9 active torsions:
REMARK  status: ('A' for Active; 'I' for Inactive)
REMARK    1  A    between atoms: C1_1  and  C2_2
REMARK    2  A    between atoms: C2_2  and  C3_3
REMARK    3  A    between atoms: C2_2  and  C4_4
REMARK    4  A    between atoms: C2_2  and  O1_5
REMARK    5  A    between atoms: O1_5  and  C5_6
REMARK    6  A    between atoms: N1_8  and  C6_9
REMARK    7  A    between atoms: C6_9  and  C7_10
REMARK    8  A    between atoms: N2_12  and  C8_13
REMARK    9  A    between atoms: C12_19  and  C13_20
REMARK                            x       y       z     vdW  Elec       q    Type
REMARK                         _______ _______ _______ _____ _____    ______ ____
ROOT
ATOM      1  C8  UNL     1      11.924  12.938  33.171  0.00  0.00    +0.034 A 
ATOM      2  C9  UNL     1      12.624  14.175  33.164  0.00  0.00    +0.025 A 
ATOM      3  C10 UNL     1      12.723  14.938  31.987  0.00  0.00    +0.029 A 
ATOM      4  C11 UNL     1      12.087  14.455  30.848  0.00  0.00    +0.067 A 
ATOM      5  N3  UNL     1      12.078  14.988  29.617  0.00  0.00    -0.276 N 
ATOM      6  N4  UNL     1      11.375  14.195  28.818  0.00  0.00    -0.170 NA
ATOM      7  C12 UNL     1      10.919  13.148  29.549  0.00  0.00    +0.135 A 
ATOM      8  C19 UNL     1      11.373  13.289  30.852  0.00  0.00    +0.032 A 
ATOM      9  C20 UNL     1      11.280  12.493  31.995  0.00  0.00    +0.035 A 
ATOM     10  H14 UNL     1      12.547  15.870  29.312  0.00  0.00    +0.189 HD
ENDROOT
BRANCH   7  11
ATOM     11  C13 UNL     1      10.090  12.073  28.982  0.00  0.00    +0.162 A 
ATOM     12  N5  UNL     1      10.305  11.576  27.733  0.00  0.00    -0.207 NA
ATOM     13  C14 UNL     1       9.319  10.672  27.610  0.00  0.00    +0.178 A 
ATOM     14  N6  UNL     1       9.068   9.891  26.530  0.00  0.00    -0.234 NA
ATOM     15  C15 UNL     1       7.999   9.038  26.568  0.00  0.00    +0.113 A 
ATOM     16  C16 UNL     1       7.166   8.981  27.712  0.00  0.00    +0.022 A 
ATOM     17  C17 UNL     1       7.439   9.804  28.818  0.00  0.00    +0.031 A 
ATOM     18  C18 UNL     1       8.545  10.642  28.723  0.00  0.00    +0.086 A 
ATOM     19  N7  UNL     1       9.013  11.528  29.609  0.00  0.00    -0.335 N 
ATOM     20  H18 UNL     1       8.595  11.779  30.531  0.00  0.00    +0.167 HD
ENDBRANCH   7  11
BRANCH   1  23
ATOM     21  C7  UNL     1      12.844  11.258  34.837  0.00  0.00    +0.241 C 
ATOM     22  O3  UNL     1      13.716  10.843  34.025  0.00  0.00    -0.273 OA
ATOM     23  N2  UNL     1      11.816  12.149  34.368  0.00  0.00    -0.284 N 
ATOM     24  H11 UNL     1      10.905  12.168  34.879  0.00  0.00    +0.155 HD
BRANCH  21  25
ATOM     25  C6  UNL     1      12.798  10.689  36.258  0.00  0.00    +0.114 C 
ATOM     26  C21 UNL     1      12.085   9.319  36.217  0.00  0.00    +0.035 C 
ATOM     27  C22 UNL     1      10.695   9.532  36.799  0.00  0.00    +0.003 C 
ATOM     28  C23 UNL     1      10.795  10.743  37.710  0.00  0.00    +0.003 C 
ATOM     29  C24 UNL     1      11.948  11.593  37.187  0.00  0.00    +0.035 C 
BRANCH  25  32
ATOM     30  C5  UNL     1      15.073  11.644  37.045  0.00  0.00    +0.402 C 
ATOM     31  O2  UNL     1      14.726  12.829  36.793  0.00  0.00    -0.226 OA
ATOM     32  N1  UNL     1      14.169  10.551  36.804  0.00  0.00    -0.267 N 
ATOM     33  H10 UNL     1      14.568   9.602  36.981  0.00  0.00    +0.153 HD
BRANCH  30  34
ATOM     34  O1  UNL     1      16.347  11.363  37.559  0.00  0.00    -0.445 OA
BRANCH  34  36
ATOM     35  C1  UNL     1      18.443  10.100  37.649  0.00  0.00    +0.055 C 
ATOM     36  C2  UNL     1      17.504  10.979  36.800  0.00  0.00    +0.107 C 
ATOM     37  C3  UNL     1      18.245  12.270  36.418  0.00  0.00    +0.055 C 
ATOM     38  C4  UNL     1      17.088  10.244  35.512  0.00  0.00    +0.055 C 
ENDBRANCH  34  36
ENDBRANCH  30  34
ENDBRANCH  25  32
ENDBRANCH  21  25
ENDBRANCH   1  23
TORSDOF 6
ENDMDL
MODEL 9
REMARK VINA RESULT:    -6.828      3.382      6.632
REMARK INTER + INTRA:         -10.258
REMARK INTER:                  -9.632
REMARK INTRA:                  -0.626
REMARK UNBOUND:                -1.035
REMARK  Name = /home/qwerty/github/datacon2025hack/step_04_hit_selection/docking/ligands/lig_135.pdb
REMARK  9 active torsions:
REMARK  status: ('A' for Active; 'I' for Inactive)
REMARK    1  A    between atoms: C1_1  and  C2_2
REMARK    2  A    between atoms: C2_2  and  C3_3
REMARK    3  A    between atoms: C2_2  and  C4_4
REMARK    4  A    between atoms: C2_2  and  O1_5
REMARK    5  A    between atoms: O1_5  and  C5_6
REMARK    6  A    between atoms: N1_8  and  C6_9
REMARK    7  A    between atoms: C6_9  and  C7_10
REMARK    8  A    between atoms: N2_12  and  C8_13
REMARK    9  A    between atoms: C12_19  and  C13_20
REMARK                            x       y       z     vdW  Elec       q    Type
REMARK                         _______ _______ _______ _____ _____    ______ ____
ROOT
ATOM      1  C8  UNL     1      21.090   4.326  32.983  0.00  0.00    +0.034 A 
ATOM      2  C9  UNL     1      20.888   3.431  34.070  0.00  0.00    +0.025 A 
ATOM      3  C10 UNL     1      20.674   2.060  33.842  0.00  0.00    +0.029 A 
ATOM      4  C11 UNL     1      20.698   1.612  32.525  0.00  0.00    +0.067 A 
ATOM      5  N3  UNL     1      20.483   0.368  32.071  0.00  0.00    -0.276 N 
ATOM      6  N4  UNL     1      20.572   0.381  30.747  0.00  0.00    -0.170 NA
ATOM      7  C12 UNL     1      20.859   1.645  30.350  0.00  0.00    +0.135 A 
ATOM      8  C19 UNL     1      20.934   2.454  31.474  0.00  0.00    +0.032 A 
ATOM      9  C20 UNL     1      21.120   3.825  31.663  0.00  0.00    +0.035 A 
ATOM     10  H14 UNL     1      20.268  -0.479  32.642  0.00  0.00    +0.189 HD
ENDROOT
BRANCH   7  11
ATOM     11  C13 UNL     1      21.040   2.022  28.939  0.00  0.00    +0.162 A 
ATOM     12  N5  UNL     1      20.187   1.605  27.963  0.00  0.00    -0.207 NA
ATOM     13  C14 UNL     1      20.739   2.128  26.857  0.00  0.00    +0.178 A 
ATOM     14  N6  UNL     1      20.283   1.998  25.586  0.00  0.00    -0.234 NA
ATOM     15  C15 UNL     1      20.990   2.580  24.570  0.00  0.00    +0.113 A 
ATOM     16  C16 UNL     1      22.180   3.297  24.840  0.00  0.00    +0.022 A 
ATOM     17  C17 UNL     1      22.640   3.415  26.164  0.00  0.00    +0.031 A 
ATOM     18  C18 UNL     1      21.873   2.811  27.154  0.00  0.00    +0.086 A 
ATOM     19  N7  UNL     1      22.088   2.754  28.473  0.00  0.00    -0.335 N 
ATOM     20  H18 UNL     1      22.910   3.128  28.995  0.00  0.00    +0.167 HD
ENDBRANCH   7  11
BRANCH   1  23
ATOM     21  C7  UNL     1      22.597   6.365  33.098  0.00  0.00    +0.241 C 
ATOM     22  O3  UNL     1      23.640   5.661  33.186  0.00  0.00    -0.273 OA
ATOM     23  N2  UNL     1      21.310   5.729  33.203  0.00  0.00    -0.284 N 
ATOM     24  H11 UNL     1      20.500   6.299  33.535  0.00  0.00    +0.155 HD
BRANCH  21  25
ATOM     25  C6  UNL     1      22.712   7.891  33.042  0.00  0.00    +0.114 C 
ATOM     26  C21 UNL     1      22.306   8.364  31.629  0.00  0.00    +0.035 C 
ATOM     27  C22 UNL     1      23.592   8.746  30.910  0.00  0.00    +0.003 C 
ATOM     28  C23 UNL     1      24.596   9.103  31.992  0.00  0.00    +0.003 C 
ATOM     29  C24 UNL     1      24.181   8.341  33.246  0.00  0.00    +0.035 C 
BRANCH  25  32
ATOM     30  C5  UNL     1      22.021   8.363  35.493  0.00  0.00    +0.402 C 
ATOM     31  O2  UNL     1      22.964   7.665  35.952  0.00  0.00    -0.226 OA
ATOM     32  N1  UNL     1      21.846   8.512  34.073  0.00  0.00    -0.267 N 
ATOM     33  H10 UNL     1      21.001   9.054  33.787  0.00  0.00    +0.153 HD
BRANCH  30  34
ATOM     34  O1  UNL     1      21.118   9.005  36.353  0.00  0.00    -0.445 OA
BRANCH  34  36
ATOM     35  C1  UNL     1      19.077   9.574  37.580  0.00  0.00    +0.055 C 
ATOM     36  C2  UNL     1      19.826   8.517  36.746  0.00  0.00    +0.107 C 
ATOM     37  C3  UNL     1      20.058   7.272  37.617  0.00  0.00    +0.055 C 
ATOM     38  C4  UNL     1      19.000   8.112  35.510  0.00  0.00    +0.055 C 
ENDBRANCH  34  36
ENDBRANCH  30  34
ENDBRANCH  25  32
ENDBRANCH  21  25
ENDBRANCH   1  23
TORSDOF 6
ENDMDL
