REMARK  Name = /home/qwerty/github/datacon2025hack/step_04_hit_selection/docking/ligands/lig_539.pdb
REMARK  6 active torsions:
REMARK  status: ('A' for Active; 'I' for Inactive)
REMARK    1  A    between atoms: C1_1  and  C2_2
REMARK    2  A    between atoms: C2_2  and  C3_3
REMARK    3  A    between atoms: C2_2  and  O1_4
REMARK    4  A    between atoms: O1_4  and  C4_5
REMARK    5  A    between atoms: C7_8  and  N1_9
REMARK    6  A    between atoms: N1_9  and  C8_10
REMARK                            x       y       z     vdW  Elec       q    Type
REMARK                         _______ _______ _______ _____ _____    ______ ____
ROOT
ATOM      1  N1  UNL     1      -1.941   1.071  -0.374  0.00  0.00    -0.297 N 
ATOM      2  H10 UNL     1      -2.072   2.096  -0.529  0.00  0.00    +0.154 HD
ENDROOT
BRANCH   1   3
ATOM      3  C8  UNL     1      -3.116   0.246  -0.372  0.00  0.00    +0.143 A 
ATOM      4  C9  UNL     1      -3.082  -1.092  -0.792  0.00  0.00    +0.155 A 
ATOM      5  N2  UNL     1      -4.228  -1.818  -0.805  0.00  0.00    -0.241 NA
ATOM      6  C10 UNL     1      -5.418  -1.280  -0.430  0.00  0.00    +0.146 A 
ATOM      7 BR1  UNL     1      -6.976  -2.391  -0.481  0.00  0.00    -0.025 Br
ATOM      8  C11 UNL     1      -5.464   0.068  -0.032  0.00  0.00    +0.151 A 
ATOM      9  N3  UNL     1      -6.686   0.698   0.360  0.00  0.00    -0.341 N 
ATOM     10  N4  UNL     1      -4.311   0.791  -0.022  0.00  0.00    -0.213 NA
ATOM     11  H12 UNL     1      -6.684   1.702   0.649  0.00  0.00    +0.144 HD
ATOM     12  H13 UNL     1      -7.596   0.188   0.368  0.00  0.00    +0.144 HD
ENDBRANCH   1   3
BRANCH   1  16
ATOM     13  C4  UNL     1       2.025  -0.245   0.248  0.00  0.00    +0.215 A 
ATOM     14  C5  UNL     1       0.981  -0.919   0.886  0.00  0.00    +0.069 A 
ATOM     15  C6  UNL     1      -0.334  -0.497   0.685  0.00  0.00    +0.030 A 
ATOM     16  C7  UNL     1      -0.603   0.587  -0.168  0.00  0.00    +0.051 A 
ATOM     17  C12 UNL     1       0.476   1.247  -0.771  0.00  0.00    +0.138 A 
ATOM     18  N5  UNL     1       1.748   0.817  -0.559  0.00  0.00    -0.219 NA
BRANCH  13  19
ATOM     19  O1  UNL     1       3.342  -0.674   0.449  0.00  0.00    -0.474 OA
BRANCH  19  21
ATOM     20  C1  UNL     1       4.788   1.263   0.673  0.00  0.00    +0.051 C 
ATOM     21  C2  UNL     1       4.483  -0.020  -0.106  0.00  0.00    +0.169 C 
ATOM     22  C3  UNL     1       5.675  -0.973  -0.052  0.00  0.00    +0.051 C 
ENDBRANCH  19  21
ENDBRANCH  13  19
ENDBRANCH   1  16
TORSDOF 4
