MODEL 1
REMARK VINA RESULT:    -6.489      0.000      0.000
REMARK INTER + INTRA:          -8.860
REMARK INTER:                  -8.196
REMARK INTRA:                  -0.665
REMARK UNBOUND:                -0.665
REMARK  Name = /home/qwerty/github/datacon2025hack/step_04_hit_selection/docking/ligands/lig_26.pdb
REMARK  7 active torsions:
REMARK  status: ('A' for Active; 'I' for Inactive)
REMARK    1  A    between atoms: C1_1  and  C2_2
REMARK    2  A    between atoms: C4_4  and  C5_5
REMARK    3  A    between atoms: C8_10  and  C9_11
REMARK    4  A    between atoms: C9_11  and  N2_12
REMARK    5  A    between atoms: N2_12  and  C10_13
REMARK    6  A    between atoms: C11_14  and  C12_16
REMARK    7  A    between atoms: C15_19  and  O3_20
REMARK                            x       y       z     vdW  Elec       q    Type
REMARK                         _______ _______ _______ _____ _____    ______ ____
ROOT
ATOM      1  C5  UNL     1      13.126  13.738  33.504  0.00  0.00    +0.247 C 
ATOM      2  O1  UNL     1      12.760  14.778  32.893  0.00  0.00    -0.270 OA
ATOM      3  N1  UNL     1      12.431  12.512  33.262  0.00  0.00    -0.293 N 
ATOM      4  C6  UNL     1      12.297  11.172  33.870  0.00  0.00    +0.110 C 
ATOM      5  C7  UNL     1      11.163  10.716  33.014  0.00  0.00    +0.043 C 
ATOM      6  C8  UNL     1      11.308  12.080  32.405  0.00  0.00    +0.095 C 
ENDROOT
BRANCH   1  10
ATOM      7  C1  UNL     1      17.966  13.182  34.727  0.00  0.00    +0.065 C 
ATOM      8  C2  UNL     1      16.562  13.546  35.089  0.00  0.00    +0.039 A 
ATOM      9  C3  UNL     1      15.539  13.458  34.135  0.00  0.00    +0.036 A 
ATOM     10  C4  UNL     1      14.229  13.821  34.484  0.00  0.00    +0.040 A 
ATOM     11  C17 UNL     1      13.980  14.299  35.780  0.00  0.00    +0.033 A 
ATOM     12  C18 UNL     1      15.028  14.380  36.700  0.00  0.00    +0.112 A 
ATOM     13  N4  UNL     1      16.283  14.007  36.338  0.00  0.00    -0.260 NA
ENDBRANCH   1  10
BRANCH   6  14
ATOM     14  C9  UNL     1      11.719  12.075  30.920  0.00  0.00    +0.130 C 
BRANCH  14  15
ATOM     15  N2  UNL     1      10.814  12.909  30.115  0.00  0.00    -0.299 N 
ATOM     16  C10 UNL     1      11.260  14.234  29.664  0.00  0.00    +0.132 C 
ATOM     17  C11 UNL     1       9.516  12.400  29.729  0.00  0.00    +0.248 C 
ATOM     18  O2  UNL     1       9.250  11.177  29.879  0.00  0.00    -0.270 OA
BRANCH  17  19
ATOM     19  C12 UNL     1       8.479  13.270  29.141  0.00  0.00    +0.055 A 
ATOM     20  C13 UNL     1       7.533  13.894  29.966  0.00  0.00    +0.020 A 
ATOM     21  C14 UNL     1       6.567  14.735  29.409  0.00  0.00    +0.068 A 
ATOM     22  C15 UNL     1       6.566  14.958  28.027  0.00  0.00    +0.212 A 
ATOM     23  N3  UNL     1       7.507  14.365  27.246  0.00  0.00    -0.221 NA
ATOM     24  C16 UNL     1       8.455  13.539  27.764  0.00  0.00    +0.127 A 
BRANCH  22  25
ATOM     25  O3  UNL     1       5.615  15.790  27.443  0.00  0.00    -0.492 OA
ATOM     26  H17 UNL     1       5.820  16.321  26.604  0.00  0.00    +0.294 HD
ENDBRANCH  22  25
ENDBRANCH  17  19
ENDBRANCH  14  15
ENDBRANCH   6  14
TORSDOF 5
ENDMDL
MODEL 2
REMARK VINA RESULT:    -6.185     12.915     14.598
REMARK INTER + INTRA:          -8.476
REMARK INTER:                  -7.869
REMARK INTRA:                  -0.607
REMARK UNBOUND:                -0.665
REMARK  Name = /home/qwerty/github/datacon2025hack/step_04_hit_selection/docking/ligands/lig_26.pdb
REMARK  7 active torsions:
REMARK  status: ('A' for Active; 'I' for Inactive)
REMARK    1  A    between atoms: C1_1  and  C2_2
REMARK    2  A    between atoms: C4_4  and  C5_5
REMARK    3  A    between atoms: C8_10  and  C9_11
REMARK    4  A    between atoms: C9_11  and  N2_12
REMARK    5  A    between atoms: N2_12  and  C10_13
REMARK    6  A    between atoms: C11_14  and  C12_16
REMARK    7  A    between atoms: C15_19  and  O3_20
REMARK                            x       y       z     vdW  Elec       q    Type
REMARK                         _______ _______ _______ _____ _____    ______ ____
ROOT
ATOM      1  C5  UNL     1      21.478   5.144  33.380  0.00  0.00    +0.247 C 
ATOM      2  O1  UNL     1      21.564   5.818  32.319  0.00  0.00    -0.270 OA
ATOM      3  N1  UNL     1      21.080   3.772  33.299  0.00  0.00    -0.293 N 
ATOM      4  C6  UNL     1      20.602   2.700  34.196  0.00  0.00    +0.110 C 
ATOM      5  C7  UNL     1      20.235   1.736  33.116  0.00  0.00    +0.043 C 
ATOM      6  C8  UNL     1      20.722   2.834  32.217  0.00  0.00    +0.095 C 
ENDROOT
BRANCH   1  10
ATOM      7  C1  UNL     1      19.879   7.437  37.554  0.00  0.00    +0.065 C 
ATOM      8  C2  UNL     1      20.985   6.913  36.695  0.00  0.00    +0.039 A 
ATOM      9  C3  UNL     1      20.698   6.299  35.467  0.00  0.00    +0.036 A 
ATOM     10  C4  UNL     1      21.745   5.795  34.680  0.00  0.00    +0.040 A 
ATOM     11  C17 UNL     1      23.060   5.888  35.161  0.00  0.00    +0.033 A 
ATOM     12  C18 UNL     1      23.305   6.500  36.392  0.00  0.00    +0.112 A 
ATOM     13  N4  UNL     1      22.273   6.992  37.126  0.00  0.00    -0.260 NA
ENDBRANCH   1  10
BRANCH   6  14
ATOM     14  C9  UNL     1      21.959   2.467  31.375  0.00  0.00    +0.130 C 
BRANCH  14  15
ATOM     15  N2  UNL     1      21.771   2.833  29.963  0.00  0.00    -0.299 N 
ATOM     16  C10 UNL     1      21.011   4.043  29.624  0.00  0.00    +0.132 C 
ATOM     17  C11 UNL     1      22.376   2.030  28.923  0.00  0.00    +0.248 C 
ATOM     18  O2  UNL     1      23.244   1.165  29.221  0.00  0.00    -0.270 OA
BRANCH  17  19
ATOM     19  C12 UNL     1      22.022   2.199  27.500  0.00  0.00    +0.055 A 
ATOM     20  C13 UNL     1      22.761   3.070  26.689  0.00  0.00    +0.020 A 
ATOM     21  C14 UNL     1      22.438   3.210  25.338  0.00  0.00    +0.068 A 
ATOM     22  C15 UNL     1      21.384   2.461  24.803  0.00  0.00    +0.212 A 
ATOM     23  N3  UNL     1      20.695   1.601  25.599  0.00  0.00    -0.221 NA
ATOM     24  C16 UNL     1      20.988   1.451  26.918  0.00  0.00    +0.127 A 
BRANCH  22  25
ATOM     25  O3  UNL     1      21.038   2.579  23.460  0.00  0.00    -0.492 OA
ATOM     26  H17 UNL     1      21.595   3.130  22.816  0.00  0.00    +0.294 HD
ENDBRANCH  22  25
ENDBRANCH  17  19
ENDBRANCH  14  15
ENDBRANCH   6  14
TORSDOF 5
ENDMDL
MODEL 3
REMARK VINA RESULT:    -5.987     14.732     17.743
REMARK INTER + INTRA:          -8.227
REMARK INTER:                  -7.741
REMARK INTRA:                  -0.486
REMARK UNBOUND:                -0.665
REMARK  Name = /home/qwerty/github/datacon2025hack/step_04_hit_selection/docking/ligands/lig_26.pdb
REMARK  7 active torsions:
REMARK  status: ('A' for Active; 'I' for Inactive)
REMARK    1  A    between atoms: C1_1  and  C2_2
REMARK    2  A    between atoms: C4_4  and  C5_5
REMARK    3  A    between atoms: C8_10  and  C9_11
REMARK    4  A    between atoms: C9_11  and  N2_12
REMARK    5  A    between atoms: N2_12  and  C10_13
REMARK    6  A    between atoms: C11_14  and  C12_16
REMARK    7  A    between atoms: C15_19  and  O3_20
REMARK                            x       y       z     vdW  Elec       q    Type
REMARK                         _______ _______ _______ _____ _____    ______ ____
ROOT
ATOM      1  C5  UNL     1      18.638   0.793  25.490  0.00  0.00    +0.247 C 
ATOM      2  O1  UNL     1      18.251   0.864  26.687  0.00  0.00    -0.270 OA
ATOM      3  N1  UNL     1      19.695   1.652  25.052  0.00  0.00    -0.293 N 
ATOM      4  C6  UNL     1      20.292   2.120  23.784  0.00  0.00    +0.110 C 
ATOM      5  C7  UNL     1      21.163   3.169  24.392  0.00  0.00    +0.043 C 
ATOM      6  C8  UNL     1      20.548   2.686  25.672  0.00  0.00    +0.095 C 
ENDROOT
BRANCH   1  10
ATOM      7  C1  UNL     1      16.232  -0.138  21.180  0.00  0.00    +0.065 C 
ATOM      8  C2  UNL     1      16.793  -0.598  22.488  0.00  0.00    +0.039 A 
ATOM      9  C3  UNL     1      17.427   0.311  23.346  0.00  0.00    +0.036 A 
ATOM     10  C4  UNL     1      17.964  -0.139  24.561  0.00  0.00    +0.040 A 
ATOM     11  C17 UNL     1      17.883  -1.505  24.875  0.00  0.00    +0.033 A 
ATOM     12  C18 UNL     1      17.251  -2.381  23.990  0.00  0.00    +0.112 A 
ATOM     13  N4  UNL     1      16.726  -1.914  22.827  0.00  0.00    -0.260 NA
ENDBRANCH   1  10
BRANCH   6  14
ATOM     14  C9  UNL     1      21.546   2.054  26.661  0.00  0.00    +0.130 C 
BRANCH  14  15
ATOM     15  N2  UNL     1      21.039   2.112  28.040  0.00  0.00    -0.299 N 
ATOM     16  C10 UNL     1      20.080   3.159  28.416  0.00  0.00    +0.132 C 
ATOM     17  C11 UNL     1      21.446   1.110  29.001  0.00  0.00    +0.248 C 
ATOM     18  O2  UNL     1      22.041   0.069  28.610  0.00  0.00    -0.270 OA
BRANCH  17  19
ATOM     19  C12 UNL     1      21.173   1.254  30.444  0.00  0.00    +0.055 A 
ATOM     20  C13 UNL     1      20.284   0.380  31.083  0.00  0.00    +0.020 A 
ATOM     21  C14 UNL     1      20.045   0.504  32.453  0.00  0.00    +0.068 A 
ATOM     22  C15 UNL     1      20.714   1.496  33.179  0.00  0.00    +0.212 A 
ATOM     23  N3  UNL     1      21.592   2.320  32.547  0.00  0.00    -0.221 NA
ATOM     24  C16 UNL     1      21.838   2.220  31.213  0.00  0.00    +0.127 A 
BRANCH  22  25
ATOM     25  O3  UNL     1      20.495   1.646  34.545  0.00  0.00    -0.492 OA
ATOM     26  H17 UNL     1      21.190   2.071  35.149  0.00  0.00    +0.294 HD
ENDBRANCH  22  25
ENDBRANCH  17  19
ENDBRANCH  14  15
ENDBRANCH   6  14
TORSDOF 5
ENDMDL
MODEL 4
REMARK VINA RESULT:    -5.839      3.232      4.191
REMARK INTER + INTRA:          -8.040
REMARK INTER:                  -7.922
REMARK INTRA:                  -0.118
REMARK UNBOUND:                -0.665
REMARK  Name = /home/qwerty/github/datacon2025hack/step_04_hit_selection/docking/ligands/lig_26.pdb
REMARK  7 active torsions:
REMARK  status: ('A' for Active; 'I' for Inactive)
REMARK    1  A    between atoms: C1_1  and  C2_2
REMARK    2  A    between atoms: C4_4  and  C5_5
REMARK    3  A    between atoms: C8_10  and  C9_11
REMARK    4  A    between atoms: C9_11  and  N2_12
REMARK    5  A    between atoms: N2_12  and  C10_13
REMARK    6  A    between atoms: C11_14  and  C12_16
REMARK    7  A    between atoms: C15_19  and  O3_20
REMARK                            x       y       z     vdW  Elec       q    Type
REMARK                         _______ _______ _______ _____ _____    ______ ____
ROOT
ATOM      1  C5  UNL     1      11.477  12.725  32.360  0.00  0.00    +0.247 C 
ATOM      2  O1  UNL     1      11.153  11.659  31.773  0.00  0.00    -0.270 OA
ATOM      3  N1  UNL     1      12.113  13.764  31.609  0.00  0.00    -0.293 N 
ATOM      4  C6  UNL     1      12.877  15.005  31.855  0.00  0.00    +0.110 C 
ATOM      5  C7  UNL     1      13.299  15.220  30.439  0.00  0.00    +0.043 C 
ATOM      6  C8  UNL     1      12.521  13.959  30.203  0.00  0.00    +0.095 C 
ENDROOT
BRANCH   1  10
ATOM      7  C1  UNL     1      11.661  10.888  37.031  0.00  0.00    +0.065 C 
ATOM      8  C2  UNL     1      11.310  11.979  36.071  0.00  0.00    +0.039 A 
ATOM      9  C3  UNL     1      11.553  11.820  34.699  0.00  0.00    +0.036 A 
ATOM     10  C4  UNL     1      11.235  12.860  33.812  0.00  0.00    +0.040 A 
ATOM     11  C17 UNL     1      10.709  14.054  34.328  0.00  0.00    +0.033 A 
ATOM     12  C18 UNL     1      10.488  14.177  35.701  0.00  0.00    +0.112 A 
ATOM     13  N4  UNL     1      10.792  13.148  36.534  0.00  0.00    -0.260 NA
ENDBRANCH   1  10
BRANCH   6  14
ATOM     14  C9  UNL     1      11.291  14.129  29.291  0.00  0.00    +0.130 C 
BRANCH  14  15
ATOM     15  N2  UNL     1      10.667  12.832  28.990  0.00  0.00    -0.299 N 
ATOM     16  C10 UNL     1      11.501  11.722  28.511  0.00  0.00    +0.132 C 
ATOM     17  C11 UNL     1       9.251  12.643  29.216  0.00  0.00    +0.248 C 
ATOM     18  O2  UNL     1       8.600  13.496  29.879  0.00  0.00    -0.270 OA
BRANCH  17  19
ATOM     19  C12 UNL     1       8.529  11.461  28.707  0.00  0.00    +0.055 A 
ATOM     20  C13 UNL     1       7.803  10.646  29.585  0.00  0.00    +0.020 A 
ATOM     21  C14 UNL     1       7.102   9.542  29.097  0.00  0.00    +0.068 A 
ATOM     22  C15 UNL     1       7.120   9.270  27.724  0.00  0.00    +0.212 A 
ATOM     23  N3  UNL     1       7.810  10.086  26.883  0.00  0.00    -0.221 NA
ATOM     24  C16 UNL     1       8.503  11.164  27.336  0.00  0.00    +0.127 A 
BRANCH  22  25
ATOM     25  O3  UNL     1       6.433   8.176  27.207  0.00  0.00    -0.492 OA
ATOM     26  H17 UNL     1       5.441   8.222  27.003  0.00  0.00    +0.294 HD
ENDBRANCH  22  25
ENDBRANCH  17  19
ENDBRANCH  14  15
ENDBRANCH   6  14
TORSDOF 5
ENDMDL
MODEL 5
REMARK VINA RESULT:    -5.803      6.512     11.788
REMARK INTER + INTRA:          -7.994
REMARK INTER:                  -7.267
REMARK INTRA:                  -0.727
REMARK UNBOUND:                -0.665
REMARK  Name = /home/qwerty/github/datacon2025hack/step_04_hit_selection/docking/ligands/lig_26.pdb
REMARK  7 active torsions:
REMARK  status: ('A' for Active; 'I' for Inactive)
REMARK    1  A    between atoms: C1_1  and  C2_2
REMARK    2  A    between atoms: C4_4  and  C5_5
REMARK    3  A    between atoms: C8_10  and  C9_11
REMARK    4  A    between atoms: C9_11  and  N2_12
REMARK    5  A    between atoms: N2_12  and  C10_13
REMARK    6  A    between atoms: C11_14  and  C12_16
REMARK    7  A    between atoms: C15_19  and  O3_20
REMARK                            x       y       z     vdW  Elec       q    Type
REMARK                         _______ _______ _______ _____ _____    ______ ____
ROOT
ATOM      1  C5  UNL     1      16.842  12.114  35.559  0.00  0.00    +0.247 C 
ATOM      2  O1  UNL     1      17.823  12.206  34.774  0.00  0.00    -0.270 OA
ATOM      3  N1  UNL     1      16.725  10.954  36.388  0.00  0.00    -0.293 N 
ATOM      4  C6  UNL     1      15.706  10.282  37.221  0.00  0.00    +0.110 C 
ATOM      5  C7  UNL     1      16.490   9.034  37.461  0.00  0.00    +0.043 C 
ATOM      6  C8  UNL     1      17.515   9.727  36.614  0.00  0.00    +0.095 C 
ENDROOT
BRANCH   1  10
ATOM      7  C1  UNL     1      15.193  16.610  37.074  0.00  0.00    +0.065 C 
ATOM      8  C2  UNL     1      15.005  15.343  36.303  0.00  0.00    +0.039 A 
ATOM      9  C3  UNL     1      15.998  14.354  36.313  0.00  0.00    +0.036 A 
ATOM     10  C4  UNL     1      15.816  13.177  35.570  0.00  0.00    +0.040 A 
ATOM     11  C17 UNL     1      14.649  13.034  34.802  0.00  0.00    +0.033 A 
ATOM     12  C18 UNL     1      13.686  14.046  34.812  0.00  0.00    +0.112 A 
ATOM     13  N4  UNL     1      13.883  15.167  35.553  0.00  0.00    -0.260 NA
ENDBRANCH   1  10
BRANCH   6  14
ATOM     14  C9  UNL     1      18.834  10.048  37.343  0.00  0.00    +0.130 C 
BRANCH  14  15
ATOM     15  N2  UNL     1      19.986   9.450  36.650  0.00  0.00    -0.299 N 
ATOM     16  C10 UNL     1      20.760  10.261  35.701  0.00  0.00    +0.132 C 
ATOM     17  C11 UNL     1      20.378   8.089  36.946  0.00  0.00    +0.248 C 
ATOM     18  O2  UNL     1      19.890   7.498  37.947  0.00  0.00    -0.270 OA
BRANCH  17  19
ATOM     19  C12 UNL     1      21.356   7.360  36.115  0.00  0.00    +0.055 A 
ATOM     20  C13 UNL     1      22.673   7.193  36.562  0.00  0.00    +0.020 A 
ATOM     21  C14 UNL     1      23.590   6.482  35.785  0.00  0.00    +0.068 A 
ATOM     22  C15 UNL     1      23.174   5.929  34.568  0.00  0.00    +0.212 A 
ATOM     23  N3  UNL     1      21.886   6.081  34.162  0.00  0.00    -0.221 NA
ATOM     24  C16 UNL     1      20.976   6.771  34.900  0.00  0.00    +0.127 A 
BRANCH  22  25
ATOM     25  O3  UNL     1      24.065   5.217  33.770  0.00  0.00    -0.492 OA
ATOM     26  H17 UNL     1      24.638   5.680  33.074  0.00  0.00    +0.294 HD
ENDBRANCH  22  25
ENDBRANCH  17  19
ENDBRANCH  14  15
ENDBRANCH   6  14
TORSDOF 5
ENDMDL
MODEL 6
REMARK VINA RESULT:    -5.783      6.157     10.570
REMARK INTER + INTRA:          -7.969
REMARK INTER:                  -7.410
REMARK INTRA:                  -0.560
REMARK UNBOUND:                -0.665
REMARK  Name = /home/qwerty/github/datacon2025hack/step_04_hit_selection/docking/ligands/lig_26.pdb
REMARK  7 active torsions:
REMARK  status: ('A' for Active; 'I' for Inactive)
REMARK    1  A    between atoms: C1_1  and  C2_2
REMARK    2  A    between atoms: C4_4  and  C5_5
REMARK    3  A    between atoms: C8_10  and  C9_11
REMARK    4  A    between atoms: C9_11  and  N2_12
REMARK    5  A    between atoms: N2_12  and  C10_13
REMARK    6  A    between atoms: C11_14  and  C12_16
REMARK    7  A    between atoms: C15_19  and  O3_20
REMARK                            x       y       z     vdW  Elec       q    Type
REMARK                         _______ _______ _______ _____ _____    ______ ____
ROOT
ATOM      1  C5  UNL     1       9.008   7.379  25.091  0.00  0.00    +0.247 C 
ATOM      2  O1  UNL     1      10.121   7.895  24.801  0.00  0.00    -0.270 OA
ATOM      3  N1  UNL     1       8.285   7.880  26.219  0.00  0.00    -0.293 N 
ATOM      4  C6  UNL     1       7.153   7.479  27.079  0.00  0.00    +0.110 C 
ATOM      5  C7  UNL     1       7.343   8.545  28.107  0.00  0.00    +0.043 C 
ATOM      6  C8  UNL     1       8.491   8.941  27.225  0.00  0.00    +0.095 C 
ENDROOT
BRANCH   1  10
ATOM      7  C1  UNL     1       7.423   5.438  20.738  0.00  0.00    +0.065 C 
ATOM      8  C2  UNL     1       7.724   5.299  22.195  0.00  0.00    +0.039 A 
ATOM      9  C3  UNL     1       8.205   6.394  22.926  0.00  0.00    +0.036 A 
ATOM     10  C4  UNL     1       8.501   6.245  24.290  0.00  0.00    +0.040 A 
ATOM     11  C17 UNL     1       8.340   4.983  24.884  0.00  0.00    +0.033 A 
ATOM     12  C18 UNL     1       7.866   3.915  24.121  0.00  0.00    +0.112 A 
ATOM     13  N4  UNL     1       7.573   4.093  22.806  0.00  0.00    -0.260 NA
ENDBRANCH   1  10
BRANCH   6  14
ATOM     14  C9  UNL     1       8.354  10.337  26.588  0.00  0.00    +0.130 C 
BRANCH  14  15
ATOM     15  N2  UNL     1       9.466  11.215  26.982  0.00  0.00    -0.299 N 
ATOM     16  C10 UNL     1      10.849  10.792  26.724  0.00  0.00    +0.132 C 
ATOM     17  C11 UNL     1       9.191  12.506  27.573  0.00  0.00    +0.248 C 
ATOM     18  O2  UNL     1       8.022  12.977  27.540  0.00  0.00    -0.270 OA
BRANCH  17  19
ATOM     19  C12 UNL     1      10.249  13.315  28.210  0.00  0.00    +0.055 A 
ATOM     20  C13 UNL     1      11.007  14.211  27.445  0.00  0.00    +0.020 A 
ATOM     21  C14 UNL     1      11.991  14.992  28.055  0.00  0.00    +0.068 A 
ATOM     22  C15 UNL     1      12.197  14.881  29.435  0.00  0.00    +0.212 A 
ATOM     23  N3  UNL     1      11.435  14.024  30.165  0.00  0.00    -0.221 NA
ATOM     24  C16 UNL     1      10.474  13.251  29.593  0.00  0.00    +0.127 A 
BRANCH  22  25
ATOM     25  O3  UNL     1      13.172  15.645  30.071  0.00  0.00    -0.492 OA
ATOM     26  H17 UNL     1      13.108  15.869  31.057  0.00  0.00    +0.294 HD
ENDBRANCH  22  25
ENDBRANCH  17  19
ENDBRANCH  14  15
ENDBRANCH   6  14
TORSDOF 5
ENDMDL
MODEL 7
REMARK VINA RESULT:    -5.738     14.377     15.618
REMARK INTER + INTRA:          -7.912
REMARK INTER:                  -7.434
REMARK INTRA:                  -0.478
REMARK UNBOUND:                -0.665
REMARK  Name = /home/qwerty/github/datacon2025hack/step_04_hit_selection/docking/ligands/lig_26.pdb
REMARK  7 active torsions:
REMARK  status: ('A' for Active; 'I' for Inactive)
REMARK    1  A    between atoms: C1_1  and  C2_2
REMARK    2  A    between atoms: C4_4  and  C5_5
REMARK    3  A    between atoms: C8_10  and  C9_11
REMARK    4  A    between atoms: C9_11  and  N2_12
REMARK    5  A    between atoms: N2_12  and  C10_13
REMARK    6  A    between atoms: C11_14  and  C12_16
REMARK    7  A    between atoms: C15_19  and  O3_20
REMARK                            x       y       z     vdW  Elec       q    Type
REMARK                         _______ _______ _______ _____ _____    ______ ____
ROOT
ATOM      1  C5  UNL     1      20.588   2.124  26.252  0.00  0.00    +0.247 C 
ATOM      2  O1  UNL     1      20.196   1.300  25.383  0.00  0.00    -0.270 OA
ATOM      3  N1  UNL     1      20.595   3.518  25.931  0.00  0.00    -0.293 N 
ATOM      4  C6  UNL     1      21.168   4.775  26.455  0.00  0.00    +0.110 C 
ATOM      5  C7  UNL     1      20.800   5.623  25.282  0.00  0.00    +0.043 C 
ATOM      6  C8  UNL     1      20.224   4.339  24.762  0.00  0.00    +0.095 C 
ENDROOT
BRANCH   1  10
ATOM      7  C1  UNL     1      24.317   0.721  29.311  0.00  0.00    +0.065 C 
ATOM      8  C2  UNL     1      22.863   0.940  29.041  0.00  0.00    +0.039 A 
ATOM      9  C3  UNL     1      22.438   1.411  27.791  0.00  0.00    +0.036 A 
ATOM     10  C4  UNL     1      21.071   1.629  27.558  0.00  0.00    +0.040 A 
ATOM     11  C17 UNL     1      20.161   1.401  28.602  0.00  0.00    +0.033 A 
ATOM     12  C18 UNL     1      20.624   0.939  29.835  0.00  0.00    +0.112 A 
ATOM     13  N4  UNL     1      21.952   0.722  30.027  0.00  0.00    -0.260 NA
ENDBRANCH   1  10
BRANCH   6  14
ATOM     14  C9  UNL     1      18.695   4.359  24.566  0.00  0.00    +0.130 C 
BRANCH  14  15
ATOM     15  N2  UNL     1      18.301   3.603  23.368  0.00  0.00    -0.299 N 
ATOM     16  C10 UNL     1      18.973   3.870  22.090  0.00  0.00    +0.132 C 
ATOM     17  C11 UNL     1      17.294   2.569  23.467  0.00  0.00    +0.248 C 
ATOM     18  O2  UNL     1      16.923   2.158  24.600  0.00  0.00    -0.270 OA
BRANCH  17  19
ATOM     19  C12 UNL     1      16.685   1.954  22.271  0.00  0.00    +0.055 A 
ATOM     20  C13 UNL     1      16.158   2.763  21.255  0.00  0.00    +0.020 A 
ATOM     21  C14 UNL     1      15.604   2.179  20.114  0.00  0.00    +0.068 A 
ATOM     22  C15 UNL     1      15.595   0.784  19.993  0.00  0.00    +0.212 A 
ATOM     23  N3  UNL     1      16.133   0.017  20.977  0.00  0.00    -0.221 NA
ATOM     24  C16 UNL     1      16.675   0.562  22.098  0.00  0.00    +0.127 A 
BRANCH  22  25
ATOM     25  O3  UNL     1      15.048   0.173  18.868  0.00  0.00    -0.492 OA
ATOM     26  H17 UNL     1      14.454  -0.645  18.947  0.00  0.00    +0.294 HD
ENDBRANCH  22  25
ENDBRANCH  17  19
ENDBRANCH  14  15
ENDBRANCH   6  14
TORSDOF 5
ENDMDL
MODEL 8
REMARK VINA RESULT:    -5.629     14.460     15.449
REMARK INTER + INTRA:          -7.775
REMARK INTER:                  -7.045
REMARK INTRA:                  -0.730
REMARK UNBOUND:                -0.665
REMARK  Name = /home/qwerty/github/datacon2025hack/step_04_hit_selection/docking/ligands/lig_26.pdb
REMARK  7 active torsions:
REMARK  status: ('A' for Active; 'I' for Inactive)
REMARK    1  A    between atoms: C1_1  and  C2_2
REMARK    2  A    between atoms: C4_4  and  C5_5
REMARK    3  A    between atoms: C8_10  and  C9_11
REMARK    4  A    between atoms: C9_11  and  N2_12
REMARK    5  A    between atoms: N2_12  and  C10_13
REMARK    6  A    between atoms: C11_14  and  C12_16
REMARK    7  A    between atoms: C15_19  and  O3_20
REMARK                            x       y       z     vdW  Elec       q    Type
REMARK                         _______ _______ _______ _____ _____    ______ ____
ROOT
ATOM      1  C5  UNL     1      20.837   2.072  26.419  0.00  0.00    +0.247 C 
ATOM      2  O1  UNL     1      20.206   1.482  25.502  0.00  0.00    -0.270 OA
ATOM      3  N1  UNL     1      21.523   3.291  26.114  0.00  0.00    -0.293 N 
ATOM      4  C6  UNL     1      22.551   4.166  26.714  0.00  0.00    +0.110 C 
ATOM      5  C7  UNL     1      22.747   5.033  25.514  0.00  0.00    +0.043 C 
ATOM      6  C8  UNL     1      21.703   4.136  24.917  0.00  0.00    +0.095 C 
ENDROOT
BRANCH   1  10
ATOM      7  C1  UNL     1      18.726   1.054  30.861  0.00  0.00    +0.065 C 
ATOM      8  C2  UNL     1      19.886   0.983  29.921  0.00  0.00    +0.039 A 
ATOM      9  C3  UNL     1      19.801   1.562  28.647  0.00  0.00    +0.036 A 
ATOM     10  C4  UNL     1      20.892   1.472  27.768  0.00  0.00    +0.040 A 
ATOM     11  C17 UNL     1      22.035   0.769  28.177  0.00  0.00    +0.033 A 
ATOM     12  C18 UNL     1      22.078   0.199  29.451  0.00  0.00    +0.112 A 
ATOM     13  N4  UNL     1      21.013   0.316  30.286  0.00  0.00    -0.260 NA
ENDBRANCH   1  10
BRANCH   6  14
ATOM     14  C9  UNL     1      20.388   4.847  24.543  0.00  0.00    +0.130 C 
BRANCH  14  15
ATOM     15  N2  UNL     1      19.713   4.168  23.427  0.00  0.00    -0.299 N 
ATOM     16  C10 UNL     1      20.459   3.886  22.194  0.00  0.00    +0.132 C 
ATOM     17  C11 UNL     1      18.339   3.737  23.570  0.00  0.00    +0.248 C 
ATOM     18  O2  UNL     1      17.797   3.732  24.709  0.00  0.00    -0.270 OA
BRANCH  17  19
ATOM     19  C12 UNL     1      17.540   3.280  22.417  0.00  0.00    +0.055 A 
ATOM     20  C13 UNL     1      17.055   1.966  22.373  0.00  0.00    +0.020 A 
ATOM     21  C14 UNL     1      16.279   1.544  21.292  0.00  0.00    +0.068 A 
ATOM     22  C15 UNL     1      15.980   2.449  20.267  0.00  0.00    +0.212 A 
ATOM     23  N3  UNL     1      16.439   3.726  20.338  0.00  0.00    -0.221 NA
ATOM     24  C16 UNL     1      17.199   4.160  21.379  0.00  0.00    +0.127 A 
BRANCH  22  25
ATOM     25  O3  UNL     1      15.210   2.056  19.175  0.00  0.00    -0.492 OA
ATOM     26  H17 UNL     1      14.850   2.732  18.511  0.00  0.00    +0.294 HD
ENDBRANCH  22  25
ENDBRANCH  17  19
ENDBRANCH  14  15
ENDBRANCH   6  14
TORSDOF 5
ENDMDL
MODEL 9
REMARK VINA RESULT:    -5.616     14.568     17.409
REMARK INTER + INTRA:          -7.758
REMARK INTER:                  -7.033
REMARK INTRA:                  -0.725
REMARK UNBOUND:                -0.665
REMARK  Name = /home/qwerty/github/datacon2025hack/step_04_hit_selection/docking/ligands/lig_26.pdb
REMARK  7 active torsions:
REMARK  status: ('A' for Active; 'I' for Inactive)
REMARK    1  A    between atoms: C1_1  and  C2_2
REMARK    2  A    between atoms: C4_4  and  C5_5
REMARK    3  A    between atoms: C8_10  and  C9_11
REMARK    4  A    between atoms: C9_11  and  N2_12
REMARK    5  A    between atoms: N2_12  and  C10_13
REMARK    6  A    between atoms: C11_14  and  C12_16
REMARK    7  A    between atoms: C15_19  and  O3_20
REMARK                            x       y       z     vdW  Elec       q    Type
REMARK                         _______ _______ _______ _____ _____    ______ ____
ROOT
ATOM      1  C5  UNL     1      17.760   3.005  23.097  0.00  0.00    +0.247 C 
ATOM      2  O1  UNL     1      17.451   2.649  24.265  0.00  0.00    -0.270 OA
ATOM      3  N1  UNL     1      19.010   3.666  22.881  0.00  0.00    -0.293 N 
ATOM      4  C6  UNL     1      19.677   4.465  21.833  0.00  0.00    +0.110 C 
ATOM      5  C7  UNL     1      20.842   4.888  22.666  0.00  0.00    +0.043 C 
ATOM      6  C8  UNL     1      20.153   4.075  23.722  0.00  0.00    +0.095 C 
ENDROOT
BRANCH   1  10
ATOM      7  C1  UNL     1      14.600   4.720  19.588  0.00  0.00    +0.065 C 
ATOM      8  C2  UNL     1      15.272   3.589  20.299  0.00  0.00    +0.039 A 
ATOM      9  C3  UNL     1      16.171   3.844  21.344  0.00  0.00    +0.036 A 
ATOM     10  C4  UNL     1      16.808   2.773  21.990  0.00  0.00    +0.040 A 
ATOM     11  C17 UNL     1      16.553   1.466  21.547  0.00  0.00    +0.033 A 
ATOM     12  C18 UNL     1      15.657   1.254  20.497  0.00  0.00    +0.112 A 
ATOM     13  N4  UNL     1      15.044   2.309  19.901  0.00  0.00    -0.260 NA
ENDBRANCH   1  10
BRANCH   6  14
ATOM     14  C9  UNL     1      20.949   2.846  24.202  0.00  0.00    +0.130 C 
BRANCH  14  15
ATOM     15  N2  UNL     1      20.815   2.657  25.655  0.00  0.00    -0.299 N 
ATOM     16  C10 UNL     1      21.060   3.790  26.557  0.00  0.00    +0.132 C 
ATOM     17  C11 UNL     1      20.395   1.376  26.180  0.00  0.00    +0.248 C 
ATOM     18  O2  UNL     1      19.926   0.501  25.403  0.00  0.00    -0.270 OA
BRANCH  17  19
ATOM     19  C12 UNL     1      20.482   1.055  27.618  0.00  0.00    +0.055 A 
ATOM     20  C13 UNL     1      21.661   0.518  28.150  0.00  0.00    +0.020 A 
ATOM     21  C14 UNL     1      21.748   0.237  29.515  0.00  0.00    +0.068 A 
ATOM     22  C15 UNL     1      20.654   0.513  30.343  0.00  0.00    +0.212 A 
ATOM     23  N3  UNL     1      19.527   1.057  29.813  0.00  0.00    -0.221 NA
ATOM     24  C16 UNL     1      19.417   1.336  28.488  0.00  0.00    +0.127 A 
BRANCH  22  25
ATOM     25  O3  UNL     1      20.710   0.242  31.707  0.00  0.00    -0.492 OA
ATOM     26  H17 UNL     1      20.231   0.827  32.383  0.00  0.00    +0.294 HD
ENDBRANCH  22  25
ENDBRANCH  17  19
ENDBRANCH  14  15
ENDBRANCH   6  14
TORSDOF 5
ENDMDL
