REMARK  Name = /home/qwerty/github/datacon2025hack/step_04_hit_selection/docking/ligands/lig_149.pdb
REMARK  5 active torsions:
REMARK  status: ('A' for Active; 'I' for Inactive)
REMARK    1  A    between atoms: C1_1  and  N1_2
REMARK    2  A    between atoms: N1_2  and  C2_3
REMARK    3  A    between atoms: N1_2  and  C3_4
REMARK    4  A    between atoms: C6_8  and  C7_9
REMARK    5  A    between atoms: C9_11  and  C10_12
REMARK                            x       y       z     vdW  Elec       q    Type
REMARK                         _______ _______ _______ _____ _____    ______ ____
ROOT
ATOM      1  C7  UNL     1      -0.459   0.634  -1.458  0.00  0.00    +0.073 A 
ATOM      2  C8  UNL     1      -1.362   0.004  -0.583  0.00  0.00    +0.040 A 
ATOM      3  C9  UNL     1      -2.747   0.183  -0.749  0.00  0.00    +0.021 A 
ATOM      4  C13 UNL     1      -3.199   0.996  -1.801  0.00  0.00    +0.031 A 
ATOM      5  C14 UNL     1      -2.276   1.595  -2.659  0.00  0.00    +0.112 A 
ATOM      6  N5  UNL     1      -0.945   1.401  -2.472  0.00  0.00    -0.255 NA
ENDROOT
BRANCH   1  11
ATOM      7  C3  UNL     1       3.009   0.111   0.054  0.00  0.00    +0.048 A 
ATOM      8  C4  UNL     1       3.776   0.176  -1.124  0.00  0.00    +0.133 A 
ATOM      9  N2  UNL     1       3.179   0.383  -2.326  0.00  0.00    -0.261 NA
ATOM     10  C5  UNL     1       1.836   0.531  -2.448  0.00  0.00    +0.120 A 
ATOM     11  C6  UNL     1       1.010   0.464  -1.317  0.00  0.00    +0.020 A 
ATOM     12  C15 UNL     1       1.613   0.264  -0.062  0.00  0.00    +0.036 A 
BRANCH   7  14
ATOM     13  C1  UNL     1       5.061   0.192   1.541  0.00  0.00    +0.129 C 
ATOM     14  N1  UNL     1       3.635  -0.101   1.346  0.00  0.00    -0.335 N 
ATOM     15  C2  UNL     1       2.856  -0.615   2.479  0.00  0.00    +0.129 C 
ENDBRANCH   7  14
ENDBRANCH   1  11
BRANCH   3  16
ATOM     16  C10 UNL     1      -3.697  -0.482   0.180  0.00  0.00    +0.138 A 
ATOM     17  N3  UNL     1      -3.294  -1.186   1.262  0.00  0.00    -0.236 NA
ATOM     18  C11 UNL     1      -4.439  -1.620   1.825  0.00  0.00    +0.130 A 
ATOM     19  C12 UNL     1      -5.509  -1.179   1.084  0.00  0.00    +0.104 A 
ATOM     20  N4  UNL     1      -5.041  -0.464   0.050  0.00  0.00    -0.344 N 
ATOM     21  H12 UNL     1      -5.620  -0.010  -0.690  0.00  0.00    +0.167 HD
ENDBRANCH   3  16
TORSDOF 3
