REMARK  Name = /home/qwerty/github/datacon2025hack/step_04_hit_selection/docking/ligands/lig_170.pdb
REMARK  5 active torsions:
REMARK  status: ('A' for Active; 'I' for Inactive)
REMARK    1  A    between atoms: C1_1  and  O1_2
REMARK    2  A    between atoms: O1_2  and  C2_3
REMARK    3  A    between atoms: C2_3  and  C3_5
REMARK    4  A    between atoms: C7_9  and  N1_10
REMARK    5  A    between atoms: N3_18  and  C13_19
REMARK                            x       y       z     vdW  Elec       q    Type
REMARK                         _______ _______ _______ _____ _____    ______ ____
ROOT
ATOM      1  N1  UNL     1       2.348   0.985  -0.938  0.00  0.00    -0.269 N 
ATOM      2  C8  UNL     1       1.421  -0.092  -0.737  0.00  0.00    +0.306 C 
ATOM      3  O3  UNL     1       1.829  -1.275  -0.585  0.00  0.00    -0.252 OA
ATOM      4  N2  UNL     1       0.019   0.168  -0.749  0.00  0.00    -0.284 N 
ATOM      5  C9  UNL     1      -0.871   1.343  -0.905  0.00  0.00    +0.120 C 
ATOM      6  C10 UNL     1      -2.124   0.561  -0.760  0.00  0.00    +0.028 C 
ATOM      7  C11 UNL     1      -1.231  -0.615  -0.604  0.00  0.00    +0.120 C 
ATOM      8  C12 UNL     1      -3.219   0.609  -1.800  0.00  0.00    +0.096 C 
ATOM      9  N3  UNL     1      -4.222   0.967  -0.774  0.00  0.00    -0.298 NA
ATOM     10  C18 UNL     1      -3.172   0.917   0.269  0.00  0.00    +0.096 C 
ATOM     11  H7  UNL     1       1.971   1.879  -1.327  0.00  0.00    +0.156 HD
ENDROOT
BRANCH   1  16
ATOM     12  C3  UNL     1       5.712  -0.011   0.441  0.00  0.00    +0.061 A 
ATOM     13  C4  UNL     1       6.552   0.731  -0.406  0.00  0.00    +0.015 A 
ATOM     14  C5  UNL     1       6.010   1.546  -1.402  0.00  0.00    +0.003 A 
ATOM     15  C6  UNL     1       4.627   1.622  -1.572  0.00  0.00    +0.023 A 
ATOM     16  C7  UNL     1       3.769   0.872  -0.756  0.00  0.00    +0.036 A 
ATOM     17  C19 UNL     1       4.317   0.071   0.264  0.00  0.00    +0.038 A 
BRANCH  12  18
ATOM     18  C2  UNL     1       6.289  -0.858   1.509  0.00  0.00    +0.339 C 
ATOM     19  O2  UNL     1       5.533  -1.526   2.267  0.00  0.00    -0.245 OA
BRANCH  18  21
ATOM     20  C1  UNL     1       8.296  -1.712   2.681  0.00  0.00    +0.280 C 
ATOM     21  O1  UNL     1       7.677  -0.918   1.676  0.00  0.00    -0.464 OA
ENDBRANCH  18  21
ENDBRANCH  12  18
ENDBRANCH   1  16
BRANCH   9  22
ATOM     22  C13 UNL     1      -5.318  -0.029  -0.636  0.00  0.00    +0.057 C 
ATOM     23  C14 UNL     1      -4.903  -1.497  -0.369  0.00  0.00    +0.019 C 
ATOM     24  C15 UNL     1      -5.598  -1.914   0.920  0.00  0.00    +0.002 C 
ATOM     25  C16 UNL     1      -6.747  -0.941   1.106  0.00  0.00    +0.002 C 
ATOM     26  C17 UNL     1      -6.269   0.364   0.497  0.00  0.00    +0.019 C 
ENDBRANCH   9  22
TORSDOF 4
