REMARK  Name = /home/qwerty/github/datacon2025hack/step_04_hit_selection/docking/ligands/lig_302.pdb
REMARK  7 active torsions:
REMARK  status: ('A' for Active; 'I' for Inactive)
REMARK    1  A    between atoms: C2_2  and  C3_3
REMARK    2  A    between atoms: C2_2  and  C4_4
REMARK    3  A    between atoms: C4_4  and  N1_5
REMARK    4  A    between atoms: C5_6  and  C6_7
REMARK    5  A    between atoms: C8_9  and  O1_10
REMARK    6  A    between atoms: C12_19  and  C13_20
REMARK    7  A    between atoms: C13_20  and  O2_21
REMARK                            x       y       z     vdW  Elec       q    Type
REMARK                         _______ _______ _______ _____ _____    ______ ____
ROOT
ATOM      1  N1  UNL     1      -0.964   0.404   0.475  0.00  0.00    -0.290 N 
ATOM      2  C5  UNL     1      -1.908   1.371   0.371  0.00  0.00    +0.184 A 
ATOM      3  N4  UNL     1      -1.520   2.351  -0.469  0.00  0.00    -0.126 NA
ATOM      4  N5  UNL     1      -0.312   2.037  -0.908  0.00  0.00    -0.113 NA
ATOM      5  C9  UNL     1       0.018   0.867  -0.332  0.00  0.00    +0.220 A 
ATOM      6  N6  UNL     1       1.264   0.198  -0.582  0.00  0.00    -0.300 N 
ATOM      7  C10 UNL     1       1.746   0.089  -1.965  0.00  0.00    +0.108 C 
ATOM      8  C11 UNL     1       3.150  -0.523  -2.022  0.00  0.00    +0.025 C 
ATOM      9  C12 UNL     1       4.104   0.218  -1.062  0.00  0.00    +0.017 C 
ATOM     10  C14 UNL     1       3.529   0.342   0.382  0.00  0.00    +0.025 C 
ATOM     11  C15 UNL     1       2.115  -0.236   0.533  0.00  0.00    +0.108 C 
ENDROOT
BRANCH   2  12
ATOM     12  C6  UNL     1      -3.236   1.358   1.010  0.00  0.00    +0.106 A 
ATOM     13  C7  UNL     1      -4.390   1.882   0.462  0.00  0.00    +0.099 A 
ATOM     14  C8  UNL     1      -5.335   1.679   1.446  0.00  0.00    +0.232 A 
ATOM     15  N2  UNL     1      -4.784   1.091   2.523  0.00  0.00    -0.136 NA
ATOM     16  N3  UNL     1      -3.503   0.902   2.250  0.00  0.00    -0.270 N 
ATOM     17  H10 UNL     1      -2.821   0.507   2.932  0.00  0.00    +0.189 HD
BRANCH  14  18
ATOM     18  O1  UNL     1      -6.678   2.032   1.365  0.00  0.00    -0.491 OA
ATOM     19  H9  UNL     1      -7.048   2.476   0.533  0.00  0.00    +0.294 HD
ENDBRANCH  14  18
ENDBRANCH   2  12
BRANCH   1  20
ATOM     20  C4  UNL     1      -1.098  -0.943   1.048  0.00  0.00    +0.156 C 
BRANCH  20  22
ATOM     21  C1  UNL     1      -3.247  -2.181   1.087  0.00  0.00    +0.009 C 
ATOM     22  C2  UNL     1      -2.216  -1.704   0.374  0.00  0.00    -0.060 C 
ATOM     23  C3  UNL     1      -2.163  -1.954  -1.109  0.00  0.00    +0.040 C 
ENDBRANCH  20  22
ENDBRANCH   1  20
BRANCH   9  24
ATOM     24  C13 UNL     1       5.488  -0.457  -1.065  0.00  0.00    +0.159 C 
BRANCH  24  25
ATOM     25  O2  UNL     1       6.404   0.282  -0.303  0.00  0.00    -0.395 OA
ATOM     26  H18 UNL     1       6.647   1.078  -0.845  0.00  0.00    +0.209 HD
ENDBRANCH  24  25
ENDBRANCH   9  24
TORSDOF 6
