REMARK  Name = /home/qwerty/github/datacon2025hack/step_04_hit_selection/docking/ligands/lig_290.pdb
REMARK  3 active torsions:
REMARK  status: ('A' for Active; 'I' for Inactive)
REMARK    1  A    between atoms: C1_2  and  C14_20
REMARK    2  A    between atoms: N1_3  and  C2_4
REMARK    3  A    between atoms: C5_8  and  C6_10
REMARK                            x       y       z     vdW  Elec       q    Type
REMARK                         _______ _______ _______ _____ _____    ______ ____
ROOT
ATOM      1  C2  UNL     1      -0.703   0.194  -1.486  0.00  0.00    +0.076 C 
ATOM      2  C3  UNL     1       0.121  -0.461  -0.363  0.00  0.00    +0.041 C 
ATOM      3  C4  UNL     1       1.523  -0.824  -0.860  0.00  0.00    +0.110 C 
ATOM      4  N2  UNL     1       2.167   0.350  -1.462  0.00  0.00    -0.296 N 
ATOM      5  C5  UNL     1       3.587   0.533  -1.336  0.00  0.00    +0.267 C 
ATOM      6  O2  UNL     1       4.291   0.690  -2.370  0.00  0.00    -0.268 OA
ATOM      7  C12 UNL     1       1.439   1.064  -2.517  0.00  0.00    +0.110 C 
ATOM      8  C13 UNL     1       0.034   1.432  -2.031  0.00  0.00    +0.041 C 
ENDROOT
BRANCH   5   9
ATOM      9  C6  UNL     1       4.228   0.581  -0.011  0.00  0.00    +0.150 A 
ATOM     10  N3  UNL     1       3.559   0.601   1.166  0.00  0.00    -0.169 NA
ATOM     11  N4  UNL     1       4.454   0.491   2.141  0.00  0.00    -0.281 N 
ATOM     12  C7  UNL     1       5.676   0.438   1.589  0.00  0.00    +0.040 A 
ATOM     13  C8  UNL     1       5.581   0.497   0.255  0.00  0.00    +0.005 A 
ATOM     14  C9  UNL     1       6.700  -0.176  -0.435  0.00  0.00    +0.039 C 
ATOM     15  C10 UNL     1       7.645  -0.543   0.739  0.00  0.00    +0.011 C 
ATOM     16  C11 UNL     1       6.878  -0.277   2.059  0.00  0.00    +0.055 C 
ATOM     17  H7  UNL     1       4.215   0.343   3.147  0.00  0.00    +0.189 HD
ENDBRANCH   5   9
BRANCH   1  20
ATOM     18  O1  UNL     1      -2.869  -1.609  -1.028  0.00  0.00    -0.276 OA
ATOM     19  C1  UNL     1      -3.060  -0.395  -0.742  0.00  0.00    +0.216 C 
ATOM     20  N1  UNL     1      -2.027   0.573  -0.980  0.00  0.00    -0.312 N 
ATOM     21  H1  UNL     1      -2.241   1.582  -0.811  0.00  0.00    +0.149 HD
BRANCH  19  22
ATOM     22  C14 UNL     1      -4.387   0.035  -0.170  0.00  0.00    +0.075 C 
ATOM     23  C15 UNL     1      -4.700  -0.744   1.122  0.00  0.00    +0.013 C 
ATOM     24  C16 UNL     1      -6.062  -0.330   1.694  0.00  0.00    +0.001 C 
ATOM     25  C17 UNL     1      -7.176  -0.521   0.657  0.00  0.00    +0.000 C 
ATOM     26  C18 UNL     1      -6.868   0.252  -0.631  0.00  0.00    +0.001 C 
ATOM     27  C19 UNL     1      -5.507  -0.159  -1.209  0.00  0.00    +0.013 C 
ENDBRANCH  19  22
ENDBRANCH   1  20
TORSDOF 3
