REMARK  Name = /home/qwerty/github/datacon2025hack/step_04_hit_selection/docking/ligands/lig_27.pdb
REMARK  5 active torsions:
REMARK  status: ('A' for Active; 'I' for Inactive)
REMARK    1  A    between atoms: C1_2  and  C8_10
REMARK    2  A    between atoms: N1_3  and  C2_4
REMARK    3  A    between atoms: C11_13  and  N2_14
REMARK    4  A    between atoms: C14_17  and  O2_18
REMARK    5  A    between atoms: C19_25  and  C20_26
REMARK                            x       y       z     vdW  Elec       q    Type
REMARK                         _______ _______ _______ _____ _____    ______ ____
ROOT
ATOM      1  N2  UNL     1      -1.072  -1.289  -1.648  0.00  0.00    -0.298 N 
ATOM      2  C12 UNL     1      -0.089  -0.997  -0.645  0.00  0.00    +0.149 A 
ATOM      3  C13 UNL     1      -0.281  -1.024   0.728  0.00  0.00    +0.112 A 
ATOM      4  C14 UNL     1       0.974  -0.754   1.228  0.00  0.00    +0.219 A 
ATOM      5  N3  UNL     1       1.843  -0.590   0.211  0.00  0.00    -0.174 N 
ATOM      6  C15 UNL     1       3.243  -0.301   0.307  0.00  0.00    +0.198 A 
ATOM      7  N4  UNL     1       3.904  -0.189   1.486  0.00  0.00    -0.221 NA
ATOM      8  C16 UNL     1       5.215   0.094   1.277  0.00  0.00    +0.081 A 
ATOM      9  C17 UNL     1       6.153   0.271   2.292  0.00  0.00    +0.029 A 
ATOM     10  C18 UNL     1       7.481   0.567   1.942  0.00  0.00    +0.010 A 
ATOM     11  C19 UNL     1       7.868   0.685   0.583  0.00  0.00    -0.017 A 
ATOM     12  C25 UNL     1       6.899   0.497  -0.428  0.00  0.00    +0.025 A 
ATOM     13  C26 UNL     1       5.592   0.205  -0.051  0.00  0.00    +0.042 A 
ATOM     14  S1  UNL     1       4.255  -0.056  -1.031  0.00  0.00    -0.048 S 
ATOM     15  N6  UNL     1       1.204  -0.749  -0.937  0.00  0.00    -0.146 NA
ATOM     16  H9  UNL     1      -0.727  -1.611  -2.580  0.00  0.00    +0.154 HD
ENDROOT
BRANCH   1  20
ATOM     17  C8  UNL     1      -5.293  -1.033  -1.145  0.00  0.00    +0.037 A 
ATOM     18  C9  UNL     1      -4.722  -2.015  -1.973  0.00  0.00    +0.015 A 
ATOM     19  C10 UNL     1      -3.336  -2.096  -2.126  0.00  0.00    +0.024 A 
ATOM     20  C11 UNL     1      -2.491  -1.215  -1.437  0.00  0.00    +0.032 A 
ATOM     21  C27 UNL     1      -3.057  -0.229  -0.612  0.00  0.00    +0.024 A 
ATOM     22  C28 UNL     1      -4.444  -0.145  -0.459  0.00  0.00    +0.015 A 
BRANCH  17  24
ATOM     23  O1  UNL     1      -7.478  -1.943  -1.292  0.00  0.00    -0.270 OA
ATOM     24  C1  UNL     1      -6.766  -0.943  -1.002  0.00  0.00    +0.248 C 
ATOM     25  N1  UNL     1      -7.392   0.287  -0.596  0.00  0.00    -0.282 N 
ATOM     26  H1  UNL     1      -6.873   1.179  -0.762  0.00  0.00    +0.155 HD
BRANCH  25  27
ATOM     27  C2  UNL     1      -8.751   0.382  -0.135  0.00  0.00    +0.034 A 
ATOM     28  C3  UNL     1      -9.477   1.561  -0.369  0.00  0.00    +0.023 A 
ATOM     29  C4  UNL     1     -10.793   1.686   0.088  0.00  0.00    +0.002 A 
ATOM     30  C5  UNL     1     -11.391   0.639   0.795  0.00  0.00    +0.000 A 
ATOM     31  C6  UNL     1     -10.671  -0.530   1.053  0.00  0.00    +0.002 A 
ATOM     32  C7  UNL     1      -9.354  -0.659   0.598  0.00  0.00    +0.023 A 
ENDBRANCH  25  27
ENDBRANCH  17  24
ENDBRANCH   1  20
BRANCH  11  33
ATOM     33  C20 UNL     1       9.273   1.008   0.225  0.00  0.00    -0.015 A 
ATOM     34  C21 UNL     1       9.898   0.382  -0.867  0.00  0.00    +0.028 A 
ATOM     35  C22 UNL     1      11.218   0.705  -1.187  0.00  0.00    +0.111 A 
ATOM     36  N5  UNL     1      11.896   1.621  -0.447  0.00  0.00    -0.263 NA
ATOM     37  C23 UNL     1      11.320   2.245   0.614  0.00  0.00    +0.111 A 
ATOM     38  C24 UNL     1      10.002   1.951   0.970  0.00  0.00    +0.028 A 
ENDBRANCH  11  33
BRANCH   4  39
ATOM     39  O2  UNL     1       1.309  -0.671   2.577  0.00  0.00    -0.492 OA
ATOM     40  H11 UNL     1       0.610  -0.820   3.295  0.00  0.00    +0.294 HD
ENDBRANCH   4  39
TORSDOF 5
