MODEL 1
REMARK VINA RESULT:    -7.377      0.000      0.000
REMARK INTER + INTRA:         -11.903
REMARK INTER:                 -10.828
REMARK INTRA:                  -1.076
REMARK UNBOUND:                -1.076
REMARK  Name = /home/qwerty/github/datacon2025hack/step_04_hit_selection/docking/ligands/lig_748.pdb
REMARK  10 active torsions:
REMARK  status: ('A' for Active; 'I' for Inactive)
REMARK    1  A    between atoms: C1_1  and  C2_2
REMARK    2  A    between atoms: C2_2  and  C3_3
REMARK    3  A    between atoms: C2_2  and  C4_4
REMARK    4  A    between atoms: C4_4  and  C5_5
REMARK    5  A    between atoms: N1_7  and  C6_8
REMARK    6  A    between atoms: C9_11  and  C10_12
REMARK    7  A    between atoms: N2_14  and  C11_15
REMARK    8  A    between atoms: C14_18  and  N3_19
REMARK    9  A    between atoms: N4_22  and  C16_23
REMARK   10  A    between atoms: C18_25  and  C19_26
REMARK                            x       y       z     vdW  Elec       q    Type
REMARK                         _______ _______ _______ _____ _____    ______ ____
ROOT
ATOM      1  C11 UNL     1      15.759   6.407  37.907  0.00  0.00    +0.034 A 
ATOM      2  C12 UNL     1      15.932   7.653  37.287  0.00  0.00    +0.025 A 
ATOM      3  C13 UNL     1      17.216   8.169  37.078  0.00  0.00    +0.025 A 
ATOM      4  C14 UNL     1      18.347   7.458  37.510  0.00  0.00    +0.035 A 
ATOM      5  C23 UNL     1      18.171   6.217  38.137  0.00  0.00    +0.025 A 
ATOM      6  C24 UNL     1      16.890   5.701  38.349  0.00  0.00    +0.025 A 
ENDROOT
BRANCH   4   7
ATOM      7  N3  UNL     1      19.678   7.946  37.271  0.00  0.00    -0.269 N 
ATOM      8  C15 UNL     1      20.507   7.532  36.175  0.00  0.00    +0.308 C 
ATOM      9  O3  UNL     1      20.005   6.913  35.197  0.00  0.00    -0.252 OA
ATOM     10  N4  UNL     1      21.911   7.827  36.204  0.00  0.00    -0.267 N 
ATOM     11  H16 UNL     1      20.048   8.695  37.900  0.00  0.00    +0.156 HD
ATOM     12  H17 UNL     1      22.326   8.101  37.123  0.00  0.00    +0.156 HD
BRANCH  10  13
ATOM     13  C16 UNL     1      22.796   7.649  35.083  0.00  0.00    +0.071 A 
ATOM     14  C17 UNL     1      22.866   8.604  34.051  0.00  0.00    +0.038 A 
ATOM     15  C18 UNL     1      23.755   8.434  32.976  0.00  0.00    +0.057 A 
ATOM     16  C20 UNL     1      24.592   7.304  32.950  0.00  0.00    +0.015 A 
ATOM     17  C21 UNL     1      24.539   6.364  33.981  0.00  0.00    +0.041 A 
ATOM     18  C22 UNL     1      23.652   6.536  35.046  0.00  0.00    +0.145 A 
ATOM     19  F4  UNL     1      23.617   5.609  36.037  0.00  0.00    -0.204 F 
BRANCH  15  20
ATOM     20  C19 UNL     1      23.804   9.477  31.889  0.00  0.00    +0.417 C 
ATOM     21  F1  UNL     1      24.856  10.357  32.072  0.00  0.00    -0.166 F 
ATOM     22  F2  UNL     1      23.955   8.860  30.662  0.00  0.00    -0.166 F 
ATOM     23  F3  UNL     1      22.621  10.196  31.888  0.00  0.00    -0.166 F 
ENDBRANCH  15  20
ENDBRANCH  10  13
ENDBRANCH   4   7
BRANCH   1  26
ATOM     24  C10 UNL     1      13.704   5.130  37.138  0.00  0.00    +0.248 C 
ATOM     25  O2  UNL     1      14.058   5.166  35.927  0.00  0.00    -0.270 OA
ATOM     26  N2  UNL     1      14.426   5.901  38.114  0.00  0.00    -0.282 N 
ATOM     27  H13 UNL     1      13.909   6.232  38.959  0.00  0.00    +0.155 HD
BRANCH  24  31
ATOM     28  C6  UNL     1      10.233   2.846  38.291  0.00  0.00    +0.033 A 
ATOM     29  C7  UNL     1      11.338   2.211  37.707  0.00  0.00    +0.024 A 
ATOM     30  C8  UNL     1      12.465   2.947  37.328  0.00  0.00    +0.015 A 
ATOM     31  C9  UNL     1      12.509   4.338  37.523  0.00  0.00    +0.037 A 
ATOM     32  C25 UNL     1      11.383   4.979  38.072  0.00  0.00    +0.015 A 
ATOM     33  C26 UNL     1      10.255   4.243  38.448  0.00  0.00    +0.024 A 
BRANCH  28  36
ATOM     34  C5  UNL     1       8.031   1.695  37.752  0.00  0.00    +0.217 C 
ATOM     35  O1  UNL     1       7.966   2.204  36.600  0.00  0.00    -0.275 OA
ATOM     36  N1  UNL     1       9.084   2.064  38.659  0.00  0.00    -0.285 N 
ATOM     37  H10 UNL     1       8.954   1.834  39.671  0.00  0.00    +0.155 HD
BRANCH  34  38
ATOM     38  C4  UNL     1       6.947   0.757  38.200  0.00  0.00    +0.099 C 
BRANCH  38  40
ATOM     39  C1  UNL     1       6.122  -1.652  38.121  0.00  0.00    +0.008 C 
ATOM     40  C2  UNL     1       7.002  -0.586  37.446  0.00  0.00    -0.008 C 
ATOM     41  C3  UNL     1       8.450  -1.083  37.355  0.00  0.00    +0.008 C 
ENDBRANCH  38  40
ENDBRANCH  34  38
ENDBRANCH  28  36
ENDBRANCH  24  31
ENDBRANCH   1  26
TORSDOF 8
ENDMDL
MODEL 2
REMARK VINA RESULT:    -7.217     14.707     19.769
REMARK INTER + INTRA:         -11.668
REMARK INTER:                 -10.545
REMARK INTRA:                  -1.123
REMARK UNBOUND:                -1.076
REMARK  Name = /home/qwerty/github/datacon2025hack/step_04_hit_selection/docking/ligands/lig_748.pdb
REMARK  10 active torsions:
REMARK  status: ('A' for Active; 'I' for Inactive)
REMARK    1  A    between atoms: C1_1  and  C2_2
REMARK    2  A    between atoms: C2_2  and  C3_3
REMARK    3  A    between atoms: C2_2  and  C4_4
REMARK    4  A    between atoms: C4_4  and  C5_5
REMARK    5  A    between atoms: N1_7  and  C6_8
REMARK    6  A    between atoms: C9_11  and  C10_12
REMARK    7  A    between atoms: N2_14  and  C11_15
REMARK    8  A    between atoms: C14_18  and  N3_19
REMARK    9  A    between atoms: N4_22  and  C16_23
REMARK   10  A    between atoms: C18_25  and  C19_26
REMARK                            x       y       z     vdW  Elec       q    Type
REMARK                         _______ _______ _______ _____ _____    ______ ____
ROOT
ATOM      1  C11 UNL     1      16.040   6.622  20.400  0.00  0.00    +0.034 A 
ATOM      2  C12 UNL     1      14.940   6.247  21.185  0.00  0.00    +0.025 A 
ATOM      3  C13 UNL     1      14.581   4.901  21.308  0.00  0.00    +0.025 A 
ATOM      4  C14 UNL     1      15.301   3.908  20.624  0.00  0.00    +0.035 A 
ATOM      5  C23 UNL     1      16.395   4.285  19.833  0.00  0.00    +0.025 A 
ATOM      6  C24 UNL     1      16.754   5.630  19.707  0.00  0.00    +0.025 A 
ENDROOT
BRANCH   4   7
ATOM      7  N3  UNL     1      14.979   2.515  20.766  0.00  0.00    -0.269 N 
ATOM      8  C15 UNL     1      15.498   1.665  21.799  0.00  0.00    +0.308 C 
ATOM      9  O3  UNL     1      16.058   2.165  22.812  0.00  0.00    -0.252 OA
ATOM     10  N4  UNL     1      15.374   0.241  21.668  0.00  0.00    -0.267 N 
ATOM     11  H16 UNL     1      14.276   2.102  20.110  0.00  0.00    +0.156 HD
ATOM     12  H17 UNL     1      15.145  -0.137  20.721  0.00  0.00    +0.156 HD
BRANCH  10  13
ATOM     13  C16 UNL     1      15.665  -0.695  22.722  0.00  0.00    +0.071 A 
ATOM     14  C17 UNL     1      14.769  -0.893  23.789  0.00  0.00    +0.038 A 
ATOM     15  C18 UNL     1      15.049  -1.830  24.798  0.00  0.00    +0.057 A 
ATOM     16  C20 UNL     1      16.233  -2.587  24.721  0.00  0.00    +0.015 A 
ATOM     17  C21 UNL     1      17.116  -2.407  23.654  0.00  0.00    +0.041 A 
ATOM     18  C22 UNL     1      16.833  -1.472  22.655  0.00  0.00    +0.145 A 
ATOM     19  F4  UNL     1      17.706  -1.314  21.628  0.00  0.00    -0.204 F 
BRANCH  15  20
ATOM     20  C19 UNL     1      14.066  -2.017  25.925  0.00  0.00    +0.417 C 
ATOM     21  F1  UNL     1      13.286  -0.890  26.114  0.00  0.00    -0.166 F 
ATOM     22  F2  UNL     1      13.236  -3.085  25.643  0.00  0.00    -0.166 F 
ATOM     23  F3  UNL     1      14.755  -2.279  27.097  0.00  0.00    -0.166 F 
ENDBRANCH  15  20
ENDBRANCH  10  13
ENDBRANCH   4   7
BRANCH   1  26
ATOM     24  C10 UNL     1      17.323   8.679  21.154  0.00  0.00    +0.248 C 
ATOM     25  O2  UNL     1      17.613   8.165  22.270  0.00  0.00    -0.270 OA
ATOM     26  N2  UNL     1      16.386   8.015  20.287  0.00  0.00    -0.282 N 
ATOM     27  H13 UNL     1      15.821   8.603  19.634  0.00  0.00    +0.155 HD
BRANCH  24  31
ATOM     28  C6  UNL     1      19.039  12.474  20.040  0.00  0.00    +0.033 A 
ATOM     29  C7  UNL     1      19.312  11.914  21.295  0.00  0.00    +0.024 A 
ATOM     30  C8  UNL     1      18.756  10.684  21.664  0.00  0.00    +0.015 A 
ATOM     31  C9  UNL     1      17.910   9.991  20.782  0.00  0.00    +0.037 A 
ATOM     32  C25 UNL     1      17.604  10.574  19.539  0.00  0.00    +0.015 A 
ATOM     33  C26 UNL     1      18.157  11.805  19.173  0.00  0.00    +0.024 A 
BRANCH  28  36
ATOM     34  C5  UNL     1      20.815  13.907  18.919  0.00  0.00    +0.217 C 
ATOM     35  O1  UNL     1      21.543  12.914  18.645  0.00  0.00    -0.275 OA
ATOM     36  N1  UNL     1      19.616  13.745  19.696  0.00  0.00    -0.285 N 
ATOM     37  H10 UNL     1      19.195  14.603  20.121  0.00  0.00    +0.155 HD
BRANCH  34  38
ATOM     38  C4  UNL     1      21.256  15.278  18.493  0.00  0.00    +0.099 C 
BRANCH  38  40
ATOM     39  C1  UNL     1      22.237  16.009  20.728  0.00  0.00    +0.008 C 
ATOM     40  C2  UNL     1      22.525  15.731  19.243  0.00  0.00    -0.008 C 
ATOM     41  C3  UNL     1      23.112  16.984  18.579  0.00  0.00    +0.008 C 
ENDBRANCH  38  40
ENDBRANCH  34  38
ENDBRANCH  28  36
ENDBRANCH  24  31
ENDBRANCH   1  26
TORSDOF 8
ENDMDL
MODEL 3
REMARK VINA RESULT:    -7.195      8.832     13.741
REMARK INTER + INTRA:         -11.636
REMARK INTER:                 -10.797
REMARK INTRA:                  -0.839
REMARK UNBOUND:                -1.076
REMARK  Name = /home/qwerty/github/datacon2025hack/step_04_hit_selection/docking/ligands/lig_748.pdb
REMARK  10 active torsions:
REMARK  status: ('A' for Active; 'I' for Inactive)
REMARK    1  A    between atoms: C1_1  and  C2_2
REMARK    2  A    between atoms: C2_2  and  C3_3
REMARK    3  A    between atoms: C2_2  and  C4_4
REMARK    4  A    between atoms: C4_4  and  C5_5
REMARK    5  A    between atoms: N1_7  and  C6_8
REMARK    6  A    between atoms: C9_11  and  C10_12
REMARK    7  A    between atoms: N2_14  and  C11_15
REMARK    8  A    between atoms: C14_18  and  N3_19
REMARK    9  A    between atoms: N4_22  and  C16_23
REMARK   10  A    between atoms: C18_25  and  C19_26
REMARK                            x       y       z     vdW  Elec       q    Type
REMARK                         _______ _______ _______ _____ _____    ______ ____
ROOT
ATOM      1  C11 UNL     1      22.018  14.532  29.529  0.00  0.00    +0.034 A 
ATOM      2  C12 UNL     1      22.951  13.523  29.251  0.00  0.00    +0.025 A 
ATOM      3  C13 UNL     1      23.656  13.521  28.043  0.00  0.00    +0.025 A 
ATOM      4  C14 UNL     1      23.419  14.516  27.080  0.00  0.00    +0.035 A 
ATOM      5  C23 UNL     1      22.479  15.520  27.356  0.00  0.00    +0.025 A 
ATOM      6  C24 UNL     1      21.772  15.521  28.562  0.00  0.00    +0.025 A 
ENDROOT
BRANCH   4   7
ATOM      7  N3  UNL     1      24.159  14.562  25.849  0.00  0.00    -0.269 N 
ATOM      8  C15 UNL     1      23.624  14.196  24.569  0.00  0.00    +0.308 C 
ATOM      9  O3  UNL     1      22.378  14.071  24.413  0.00  0.00    -0.252 OA
ATOM     10  N4  UNL     1      24.518  13.972  23.469  0.00  0.00    -0.267 N 
ATOM     11  H16 UNL     1      25.133  14.942  25.873  0.00  0.00    +0.156 HD
ATOM     12  H17 UNL     1      25.530  13.832  23.693  0.00  0.00    +0.156 HD
BRANCH  10  13
ATOM     13  C16 UNL     1      24.093  13.805  22.104  0.00  0.00    +0.071 A 
ATOM     14  C17 UNL     1      23.696  12.547  21.613  0.00  0.00    +0.038 A 
ATOM     15  C18 UNL     1      23.254  12.401  20.287  0.00  0.00    +0.057 A 
ATOM     16  C20 UNL     1      23.195  13.534  19.456  0.00  0.00    +0.015 A 
ATOM     17  C21 UNL     1      23.570  14.787  19.944  0.00  0.00    +0.041 A 
ATOM     18  C22 UNL     1      24.011  14.926  21.262  0.00  0.00    +0.145 A 
ATOM     19  F4  UNL     1      24.371  16.154  21.716  0.00  0.00    -0.204 F 
BRANCH  15  20
ATOM     20  C19 UNL     1      22.835  11.038  19.796  0.00  0.00    +0.417 C 
ATOM     21  F1  UNL     1      21.639  11.091  19.103  0.00  0.00    -0.166 F 
ATOM     22  F2  UNL     1      23.808  10.531  18.956  0.00  0.00    -0.166 F 
ATOM     23  F3  UNL     1      22.685  10.187  20.876  0.00  0.00    -0.166 F 
ENDBRANCH  15  20
ENDBRANCH  10  13
ENDBRANCH   4   7
BRANCH   1  26
ATOM     24  C10 UNL     1      19.966  13.996  30.925  0.00  0.00    +0.248 C 
ATOM     25  O2  UNL     1      19.228  13.877  29.908  0.00  0.00    -0.270 OA
ATOM     26  N2  UNL     1      21.303  14.508  30.779  0.00  0.00    -0.282 N 
ATOM     27  H13 UNL     1      21.725  15.017  31.588  0.00  0.00    +0.155 HD
BRANCH  24  31
ATOM     28  C6  UNL     1      18.383  13.060  34.825  0.00  0.00    +0.033 A 
ATOM     29  C7  UNL     1      19.402  12.276  34.266  0.00  0.00    +0.024 A 
ATOM     30  C8  UNL     1      19.918  12.573  33.001  0.00  0.00    +0.015 A 
ATOM     31  C9  UNL     1      19.420  13.662  32.264  0.00  0.00    +0.037 A 
ATOM     32  C25 UNL     1      18.369  14.422  32.809  0.00  0.00    +0.015 A 
ATOM     33  C26 UNL     1      17.852  14.123  34.073  0.00  0.00    +0.024 A 
BRANCH  28  36
ATOM     34  C5  UNL     1      16.915  11.671  36.367  0.00  0.00    +0.217 C 
ATOM     35  O1  UNL     1      16.332  11.094  35.409  0.00  0.00    -0.275 OA
ATOM     36  N1  UNL     1      17.865  12.722  36.123  0.00  0.00    -0.285 N 
ATOM     37  H10 UNL     1      18.117  13.344  36.925  0.00  0.00    +0.155 HD
BRANCH  34  38
ATOM     38  C4  UNL     1      16.545  11.304  37.776  0.00  0.00    +0.099 C 
BRANCH  38  40
ATOM     39  C1  UNL     1      18.747  10.024  37.743  0.00  0.00    +0.008 C 
ATOM     40  C2  UNL     1      17.299  10.050  38.261  0.00  0.00    -0.008 C 
ATOM     41  C3  UNL     1      16.560   8.783  37.813  0.00  0.00    +0.008 C 
ENDBRANCH  38  40
ENDBRANCH  34  38
ENDBRANCH  28  36
ENDBRANCH  24  31
ENDBRANCH   1  26
TORSDOF 8
ENDMDL
MODEL 4
REMARK VINA RESULT:    -7.034      9.801     11.902
REMARK INTER + INTRA:         -11.399
REMARK INTER:                 -10.237
REMARK INTRA:                  -1.162
REMARK UNBOUND:                -1.076
REMARK  Name = /home/qwerty/github/datacon2025hack/step_04_hit_selection/docking/ligands/lig_748.pdb
REMARK  10 active torsions:
REMARK  status: ('A' for Active; 'I' for Inactive)
REMARK    1  A    between atoms: C1_1  and  C2_2
REMARK    2  A    between atoms: C2_2  and  C3_3
REMARK    3  A    between atoms: C2_2  and  C4_4
REMARK    4  A    between atoms: C4_4  and  C5_5
REMARK    5  A    between atoms: N1_7  and  C6_8
REMARK    6  A    between atoms: C9_11  and  C10_12
REMARK    7  A    between atoms: N2_14  and  C11_15
REMARK    8  A    between atoms: C14_18  and  N3_19
REMARK    9  A    between atoms: N4_22  and  C16_23
REMARK   10  A    between atoms: C18_25  and  C19_26
REMARK                            x       y       z     vdW  Elec       q    Type
REMARK                         _______ _______ _______ _____ _____    ______ ____
ROOT
ATOM      1  C11 UNL     1      20.739   1.837  28.105  0.00  0.00    +0.034 A 
ATOM      2  C12 UNL     1      21.905   2.536  27.760  0.00  0.00    +0.025 A 
ATOM      3  C13 UNL     1      22.173   2.855  26.424  0.00  0.00    +0.025 A 
ATOM      4  C14 UNL     1      21.289   2.457  25.408  0.00  0.00    +0.035 A 
ATOM      5  C23 UNL     1      20.128   1.751  25.753  0.00  0.00    +0.025 A 
ATOM      6  C24 UNL     1      19.861   1.429  27.087  0.00  0.00    +0.025 A 
ENDROOT
BRANCH   4   7
ATOM      7  N3  UNL     1      21.518   2.807  24.033  0.00  0.00    -0.269 N 
ATOM      8  C15 UNL     1      20.941   3.948  23.381  0.00  0.00    +0.308 C 
ATOM      9  O3  UNL     1      20.411   4.868  24.062  0.00  0.00    -0.252 OA
ATOM     10  N4  UNL     1      20.972   4.031  21.949  0.00  0.00    -0.267 N 
ATOM     11  H16 UNL     1      22.196   2.230  23.484  0.00  0.00    +0.156 HD
ATOM     12  H17 UNL     1      21.179   3.154  21.420  0.00  0.00    +0.156 HD
BRANCH  10  13
ATOM     13  C16 UNL     1      20.615   5.208  21.201  0.00  0.00    +0.071 A 
ATOM     14  C17 UNL     1      19.296   5.416  20.755  0.00  0.00    +0.038 A 
ATOM     15  C18 UNL     1      18.952   6.583  20.051  0.00  0.00    +0.057 A 
ATOM     16  C20 UNL     1      19.940   7.555  19.812  0.00  0.00    +0.015 A 
ATOM     17  C21 UNL     1      21.245   7.362  20.270  0.00  0.00    +0.041 A 
ATOM     18  C22 UNL     1      21.582   6.199  20.966  0.00  0.00    +0.145 A 
ATOM     19  F4  UNL     1      22.857   6.032  21.402  0.00  0.00    -0.204 F 
BRANCH  15  20
ATOM     20  C19 UNL     1      17.530   6.772  19.589  0.00  0.00    +0.417 C 
ATOM     21  F1  UNL     1      17.399   7.889  18.782  0.00  0.00    -0.166 F 
ATOM     22  F2  UNL     1      17.125   5.662  18.872  0.00  0.00    -0.166 F 
ATOM     23  F3  UNL     1      16.705   6.922  20.690  0.00  0.00    -0.166 F 
ENDBRANCH  15  20
ENDBRANCH  10  13
ENDBRANCH   4   7
BRANCH   1  26
ATOM     24  C10 UNL     1      19.739   2.359  30.379  0.00  0.00    +0.248 C 
ATOM     25  O2  UNL     1      19.569   3.577  30.094  0.00  0.00    -0.270 OA
ATOM     26  N2  UNL     1      20.491   1.517  29.487  0.00  0.00    -0.282 N 
ATOM     27  H13 UNL     1      21.002   0.703  29.895  0.00  0.00    +0.155 HD
BRANCH  24  31
ATOM     28  C6  UNL     1      18.169   0.817  34.087  0.00  0.00    +0.033 A 
ATOM     29  C7  UNL     1      18.815   2.060  34.054  0.00  0.00    +0.024 A 
ATOM     30  C8  UNL     1      19.329   2.565  32.855  0.00  0.00    +0.015 A 
ATOM     31  C9  UNL     1      19.209   1.830  31.661  0.00  0.00    +0.037 A 
ATOM     32  C25 UNL     1      18.597   0.565  31.705  0.00  0.00    +0.015 A 
ATOM     33  C26 UNL     1      18.086   0.060  32.905  0.00  0.00    +0.024 A 
BRANCH  28  36
ATOM     34  C5  UNL     1      16.309   0.497  35.790  0.00  0.00    +0.217 C 
ATOM     35  O1  UNL     1      15.523   1.274  35.182  0.00  0.00    -0.275 OA
ATOM     36  N1  UNL     1      17.662   0.320  35.337  0.00  0.00    -0.285 N 
ATOM     37  H10 UNL     1      18.344  -0.108  36.005  0.00  0.00    +0.155 HD
BRANCH  34  38
ATOM     38  C4  UNL     1      15.840  -0.182  37.046  0.00  0.00    +0.099 C 
BRANCH  38  40
ATOM     39  C1  UNL     1      14.184  -2.113  37.179  0.00  0.00    +0.008 C 
ATOM     40  C2  UNL     1      15.623  -1.694  36.835  0.00  0.00    -0.008 C 
ATOM     41  C3  UNL     1      16.619  -2.494  37.683  0.00  0.00    +0.008 C 
ENDBRANCH  38  40
ENDBRANCH  34  38
ENDBRANCH  28  36
ENDBRANCH  24  31
ENDBRANCH   1  26
TORSDOF 8
ENDMDL
MODEL 5
REMARK VINA RESULT:    -7.021      8.288     14.941
REMARK INTER + INTRA:         -11.380
REMARK INTER:                 -10.263
REMARK INTRA:                  -1.117
REMARK UNBOUND:                -1.076
REMARK  Name = /home/qwerty/github/datacon2025hack/step_04_hit_selection/docking/ligands/lig_748.pdb
REMARK  10 active torsions:
REMARK  status: ('A' for Active; 'I' for Inactive)
REMARK    1  A    between atoms: C1_1  and  C2_2
REMARK    2  A    between atoms: C2_2  and  C3_3
REMARK    3  A    between atoms: C2_2  and  C4_4
REMARK    4  A    between atoms: C4_4  and  C5_5
REMARK    5  A    between atoms: N1_7  and  C6_8
REMARK    6  A    between atoms: C9_11  and  C10_12
REMARK    7  A    between atoms: N2_14  and  C11_15
REMARK    8  A    between atoms: C14_18  and  N3_19
REMARK    9  A    between atoms: N4_22  and  C16_23
REMARK   10  A    between atoms: C18_25  and  C19_26
REMARK                            x       y       z     vdW  Elec       q    Type
REMARK                         _______ _______ _______ _____ _____    ______ ____
ROOT
ATOM      1  C11 UNL     1      21.416   2.717  30.213  0.00  0.00    +0.034 A 
ATOM      2  C12 UNL     1      21.062   1.389  30.491  0.00  0.00    +0.025 A 
ATOM      3  C13 UNL     1      20.722   1.001  31.791  0.00  0.00    +0.025 A 
ATOM      4  C14 UNL     1      20.756   1.932  32.842  0.00  0.00    +0.035 A 
ATOM      5  C23 UNL     1      21.119   3.258  32.565  0.00  0.00    +0.025 A 
ATOM      6  C24 UNL     1      21.462   3.646  31.266  0.00  0.00    +0.025 A 
ENDROOT
BRANCH   4   7
ATOM      7  N3  UNL     1      20.372   1.571  34.179  0.00  0.00    -0.269 N 
ATOM      8  C15 UNL     1      19.029   1.635  34.680  0.00  0.00    +0.308 C 
ATOM      9  O3  UNL     1      18.058   1.756  33.884  0.00  0.00    -0.252 OA
ATOM     10  N4  UNL     1      18.801   1.563  36.095  0.00  0.00    -0.267 N 
ATOM     11  H16 UNL     1      21.105   1.179  34.813  0.00  0.00    +0.156 HD
ATOM     12  H17 UNL     1      19.621   1.722  36.723  0.00  0.00    +0.156 HD
BRANCH  10  13
ATOM     13  C16 UNL     1      17.503   1.410  36.697  0.00  0.00    +0.071 A 
ATOM     14  C17 UNL     1      16.923   0.138  36.866  0.00  0.00    +0.038 A 
ATOM     15  C18 UNL     1      15.668  -0.002  37.482  0.00  0.00    +0.057 A 
ATOM     16  C20 UNL     1      15.000   1.145  37.946  0.00  0.00    +0.015 A 
ATOM     17  C21 UNL     1      15.579   2.407  37.797  0.00  0.00    +0.041 A 
ATOM     18  C22 UNL     1      16.827   2.541  37.182  0.00  0.00    +0.145 A 
ATOM     19  F4  UNL     1      17.371   3.778  37.047  0.00  0.00    -0.204 F 
BRANCH  15  20
ATOM     20  C19 UNL     1      15.078  -1.380  37.647  0.00  0.00    +0.417 C 
ATOM     21  F1  UNL     1      15.705  -2.086  38.659  0.00  0.00    -0.166 F 
ATOM     22  F2  UNL     1      13.734  -1.274  37.952  0.00  0.00    -0.166 F 
ATOM     23  F3  UNL     1      15.217  -2.084  36.464  0.00  0.00    -0.166 F 
ENDBRANCH  15  20
ENDBRANCH  10  13
ENDBRANCH   4   7
BRANCH   1  26
ATOM     24  C10 UNL     1      20.828   3.621  27.915  0.00  0.00    +0.248 C 
ATOM     25  O2  UNL     1      19.591   3.453  28.097  0.00  0.00    -0.270 OA
ATOM     26  N2  UNL     1      21.766   3.088  28.867  0.00  0.00    -0.282 N 
ATOM     27  H13 UNL     1      22.718   2.824  28.523  0.00  0.00    +0.155 HD
BRANCH  24  31
ATOM     28  C6  UNL     1      22.158   5.624  24.336  0.00  0.00    +0.033 A 
ATOM     29  C7  UNL     1      23.030   4.786  25.044  0.00  0.00    +0.024 A 
ATOM     30  C8  UNL     1      22.605   4.135  26.207  0.00  0.00    +0.015 A 
ATOM     31  C9  UNL     1      21.297   4.314  26.689  0.00  0.00    +0.037 A 
ATOM     32  C25 UNL     1      20.436   5.188  25.999  0.00  0.00    +0.015 A 
ATOM     33  C26 UNL     1      20.863   5.841  24.838  0.00  0.00    +0.024 A 
BRANCH  28  36
ATOM     34  C5  UNL     1      22.140   6.019  21.824  0.00  0.00    +0.217 C 
ATOM     35  O1  UNL     1      21.385   5.034  21.604  0.00  0.00    -0.275 OA
ATOM     36  N1  UNL     1      22.628   6.288  23.150  0.00  0.00    -0.285 N 
ATOM     37  H10 UNL     1      23.446   6.933  23.244  0.00  0.00    +0.155 HD
BRANCH  34  38
ATOM     38  C4  UNL     1      22.594   6.867  20.670  0.00  0.00    +0.099 C 
BRANCH  38  40
ATOM     39  C1  UNL     1      23.750   9.137  20.653  0.00  0.00    +0.008 C 
ATOM     40  C2  UNL     1      23.884   7.645  21.000  0.00  0.00    -0.008 C 
ATOM     41  C3  UNL     1      25.075   7.037  20.249  0.00  0.00    +0.008 C 
ENDBRANCH  38  40
ENDBRANCH  34  38
ENDBRANCH  28  36
ENDBRANCH  24  31
ENDBRANCH   1  26
TORSDOF 8
ENDMDL
MODEL 6
REMARK VINA RESULT:    -7.016     14.485     16.618
REMARK INTER + INTRA:         -11.373
REMARK INTER:                 -10.733
REMARK INTRA:                  -0.640
REMARK UNBOUND:                -1.076
REMARK  Name = /home/qwerty/github/datacon2025hack/step_04_hit_selection/docking/ligands/lig_748.pdb
REMARK  10 active torsions:
REMARK  status: ('A' for Active; 'I' for Inactive)
REMARK    1  A    between atoms: C1_1  and  C2_2
REMARK    2  A    between atoms: C2_2  and  C3_3
REMARK    3  A    between atoms: C2_2  and  C4_4
REMARK    4  A    between atoms: C4_4  and  C5_5
REMARK    5  A    between atoms: N1_7  and  C6_8
REMARK    6  A    between atoms: C9_11  and  C10_12
REMARK    7  A    between atoms: N2_14  and  C11_15
REMARK    8  A    between atoms: C14_18  and  N3_19
REMARK    9  A    between atoms: N4_22  and  C16_23
REMARK   10  A    between atoms: C18_25  and  C19_26
REMARK                            x       y       z     vdW  Elec       q    Type
REMARK                         _______ _______ _______ _____ _____    ______ ____
ROOT
ATOM      1  C11 UNL     1      17.568   9.142  19.161  0.00  0.00    +0.034 A 
ATOM      2  C12 UNL     1      16.829  10.295  19.462  0.00  0.00    +0.025 A 
ATOM      3  C13 UNL     1      17.442  11.553  19.460  0.00  0.00    +0.025 A 
ATOM      4  C14 UNL     1      18.813  11.674  19.181  0.00  0.00    +0.035 A 
ATOM      5  C23 UNL     1      19.553  10.520  18.888  0.00  0.00    +0.025 A 
ATOM      6  C24 UNL     1      18.942   9.262  18.893  0.00  0.00    +0.025 A 
ENDROOT
BRANCH   4   7
ATOM      7  N3  UNL     1      19.459  12.957  19.132  0.00  0.00    -0.269 N 
ATOM      8  C15 UNL     1      20.588  13.327  19.936  0.00  0.00    +0.308 C 
ATOM      9  O3  UNL     1      21.253  12.443  20.543  0.00  0.00    -0.252 OA
ATOM     10  N4  UNL     1      20.953  14.711  20.045  0.00  0.00    -0.267 N 
ATOM     11  H16 UNL     1      19.124  13.650  18.423  0.00  0.00    +0.156 HD
ATOM     12  H17 UNL     1      20.244  15.420  19.749  0.00  0.00    +0.156 HD
BRANCH  10  13
ATOM     13  C16 UNL     1      22.174  15.178  20.646  0.00  0.00    +0.071 A 
ATOM     14  C17 UNL     1      22.365  15.129  22.040  0.00  0.00    +0.038 A 
ATOM     15  C18 UNL     1      23.573  15.561  22.615  0.00  0.00    +0.057 A 
ATOM     16  C20 UNL     1      24.602  16.028  21.777  0.00  0.00    +0.015 A 
ATOM     17  C21 UNL     1      24.423  16.061  20.393  0.00  0.00    +0.041 A 
ATOM     18  C22 UNL     1      23.220  15.633  19.827  0.00  0.00    +0.145 A 
ATOM     19  F4  UNL     1      23.068  15.675  18.478  0.00  0.00    -0.204 F 
BRANCH  15  20
ATOM     20  C19 UNL     1      23.743  15.493  24.111  0.00  0.00    +0.417 C 
ATOM     21  F1  UNL     1      22.573  15.819  24.774  0.00  0.00    -0.166 F 
ATOM     22  F2  UNL     1      24.113  14.212  24.476  0.00  0.00    -0.166 F 
ATOM     23  F3  UNL     1      24.734  16.376  24.501  0.00  0.00    -0.166 F 
ENDBRANCH  15  20
ENDBRANCH  10  13
ENDBRANCH   4   7
BRANCH   1  26
ATOM     24  C10 UNL     1      17.094   6.881  20.213  0.00  0.00    +0.248 C 
ATOM     25  O2  UNL     1      18.101   6.952  20.970  0.00  0.00    -0.270 OA
ATOM     26  N2  UNL     1      16.913   7.860  19.174  0.00  0.00    -0.282 N 
ATOM     27  H13 UNL     1      16.393   7.573  18.314  0.00  0.00    +0.155 HD
BRANCH  24  31
ATOM     28  C6  UNL     1      14.332   3.597  20.636  0.00  0.00    +0.033 A 
ATOM     29  C7  UNL     1      14.041   4.845  21.202  0.00  0.00    +0.024 A 
ATOM     30  C8  UNL     1      14.933   5.914  21.071  0.00  0.00    +0.015 A 
ATOM     31  C9  UNL     1      16.142   5.753  20.371  0.00  0.00    +0.037 A 
ATOM     32  C25 UNL     1      16.452   4.488  19.839  0.00  0.00    +0.015 A 
ATOM     33  C26 UNL     1      15.560   3.419  19.974  0.00  0.00    +0.024 A 
BRANCH  28  36
ATOM     34  C5  UNL     1      13.354   1.651  21.948  0.00  0.00    +0.217 C 
ATOM     35  O1  UNL     1      14.269   1.682  22.814  0.00  0.00    -0.275 OA
ATOM     36  N1  UNL     1      13.400   2.515  20.799  0.00  0.00    -0.285 N 
ATOM     37  H10 UNL     1      12.784   2.276  19.988  0.00  0.00    +0.155 HD
BRANCH  34  38
ATOM     38  C4  UNL     1      12.251   0.640  22.085  0.00  0.00    +0.099 C 
BRANCH  38  40
ATOM     39  C1  UNL     1      10.975   2.255  23.588  0.00  0.00    +0.008 C 
ATOM     40  C2  UNL     1      10.892   1.309  22.379  0.00  0.00    -0.008 C 
ATOM     41  C3  UNL     1       9.819   0.240  22.622  0.00  0.00    +0.008 C 
ENDBRANCH  38  40
ENDBRANCH  34  38
ENDBRANCH  28  36
ENDBRANCH  24  31
ENDBRANCH   1  26
TORSDOF 8
ENDMDL
MODEL 7
REMARK VINA RESULT:    -6.980      9.486     11.577
REMARK INTER + INTRA:         -11.321
REMARK INTER:                 -10.207
REMARK INTRA:                  -1.114
REMARK UNBOUND:                -1.076
REMARK  Name = /home/qwerty/github/datacon2025hack/step_04_hit_selection/docking/ligands/lig_748.pdb
REMARK  10 active torsions:
REMARK  status: ('A' for Active; 'I' for Inactive)
REMARK    1  A    between atoms: C1_1  and  C2_2
REMARK    2  A    between atoms: C2_2  and  C3_3
REMARK    3  A    between atoms: C2_2  and  C4_4
REMARK    4  A    between atoms: C4_4  and  C5_5
REMARK    5  A    between atoms: N1_7  and  C6_8
REMARK    6  A    between atoms: C9_11  and  C10_12
REMARK    7  A    between atoms: N2_14  and  C11_15
REMARK    8  A    between atoms: C14_18  and  N3_19
REMARK    9  A    between atoms: N4_22  and  C16_23
REMARK   10  A    between atoms: C18_25  and  C19_26
REMARK                            x       y       z     vdW  Elec       q    Type
REMARK                         _______ _______ _______ _____ _____    ______ ____
ROOT
ATOM      1  C11 UNL     1      20.559   1.622  28.110  0.00  0.00    +0.034 A 
ATOM      2  C12 UNL     1      21.783   2.197  27.739  0.00  0.00    +0.025 A 
ATOM      3  C13 UNL     1      22.050   2.495  26.399  0.00  0.00    +0.025 A 
ATOM      4  C14 UNL     1      21.106   2.198  25.403  0.00  0.00    +0.035 A 
ATOM      5  C23 UNL     1      19.887   1.614  25.773  0.00  0.00    +0.025 A 
ATOM      6  C24 UNL     1      19.619   1.314  27.112  0.00  0.00    +0.025 A 
ENDROOT
BRANCH   4   7
ATOM      7  N3  UNL     1      21.339   2.531  24.024  0.00  0.00    -0.269 N 
ATOM      8  C15 UNL     1      21.081   3.820  23.448  0.00  0.00    +0.308 C 
ATOM      9  O3  UNL     1      20.890   4.821  24.191  0.00  0.00    -0.252 OA
ATOM     10  N4  UNL     1      21.042   3.958  22.020  0.00  0.00    -0.267 N 
ATOM     11  H16 UNL     1      21.779   1.808  23.409  0.00  0.00    +0.156 HD
ATOM     12  H17 UNL     1      20.947   3.085  21.454  0.00  0.00    +0.156 HD
BRANCH  10  13
ATOM     13  C16 UNL     1      20.999   5.222  21.333  0.00  0.00    +0.071 A 
ATOM     14  C17 UNL     1      22.176   5.951  21.075  0.00  0.00    +0.038 A 
ATOM     15  C18 UNL     1      22.126   7.170  20.377  0.00  0.00    +0.057 A 
ATOM     16  C20 UNL     1      20.885   7.649  19.920  0.00  0.00    +0.015 A 
ATOM     17  C21 UNL     1      19.717   6.920  20.158  0.00  0.00    +0.041 A 
ATOM     18  C22 UNL     1      19.772   5.710  20.854  0.00  0.00    +0.145 A 
ATOM     19  F4  UNL     1      18.625   5.018  21.074  0.00  0.00    -0.204 F 
BRANCH  15  20
ATOM     20  C19 UNL     1      23.406   7.924  20.117  0.00  0.00    +0.417 C 
ATOM     21  F1  UNL     1      23.409   9.157  20.745  0.00  0.00    -0.166 F 
ATOM     22  F2  UNL     1      24.478   7.188  20.585  0.00  0.00    -0.166 F 
ATOM     23  F3  UNL     1      23.555   8.120  18.756  0.00  0.00    -0.166 F 
ENDBRANCH  15  20
ENDBRANCH  10  13
ENDBRANCH   4   7
BRANCH   1  26
ATOM     24  C10 UNL     1      19.604   2.199  30.390  0.00  0.00    +0.248 C 
ATOM     25  O2  UNL     1      19.482   3.421  30.099  0.00  0.00    -0.270 OA
ATOM     26  N2  UNL     1      20.310   1.321  29.496  0.00  0.00    -0.282 N 
ATOM     27  H13 UNL     1      20.792   0.488  29.904  0.00  0.00    +0.155 HD
BRANCH  24  31
ATOM     28  C6  UNL     1      18.009   0.741  34.121  0.00  0.00    +0.033 A 
ATOM     29  C7  UNL     1      18.540   2.035  34.035  0.00  0.00    +0.024 A 
ATOM     30  C8  UNL     1      19.061   2.513  32.828  0.00  0.00    +0.015 A 
ATOM     31  C9  UNL     1      19.065   1.701  31.681  0.00  0.00    +0.037 A 
ATOM     32  C25 UNL     1      18.569   0.388  31.780  0.00  0.00    +0.015 A 
ATOM     33  C26 UNL     1      18.052  -0.090  32.988  0.00  0.00    +0.024 A 
BRANCH  28  36
ATOM     34  C5  UNL     1      16.152   0.515  35.843  0.00  0.00    +0.217 C 
ATOM     35  O1  UNL     1      15.396   1.323  35.237  0.00  0.00    -0.275 OA
ATOM     36  N1  UNL     1      17.492   0.275  35.379  0.00  0.00    -0.285 N 
ATOM     37  H10 UNL     1      18.160  -0.180  36.043  0.00  0.00    +0.155 HD
BRANCH  34  38
ATOM     38  C4  UNL     1      15.665  -0.135  37.107  0.00  0.00    +0.099 C 
BRANCH  38  40
ATOM     39  C1  UNL     1      14.047  -2.074  37.446  0.00  0.00    +0.008 C 
ATOM     40  C2  UNL     1      15.428  -1.647  36.920  0.00  0.00    -0.008 C 
ATOM     41  C3  UNL     1      16.529  -2.446  37.630  0.00  0.00    +0.008 C 
ENDBRANCH  38  40
ENDBRANCH  34  38
ENDBRANCH  28  36
ENDBRANCH  24  31
ENDBRANCH   1  26
TORSDOF 8
ENDMDL
MODEL 8
REMARK VINA RESULT:    -6.731     11.446     15.999
REMARK INTER + INTRA:         -10.955
REMARK INTER:                 -10.265
REMARK INTRA:                  -0.690
REMARK UNBOUND:                -1.076
REMARK  Name = /home/qwerty/github/datacon2025hack/step_04_hit_selection/docking/ligands/lig_748.pdb
REMARK  10 active torsions:
REMARK  status: ('A' for Active; 'I' for Inactive)
REMARK    1  A    between atoms: C1_1  and  C2_2
REMARK    2  A    between atoms: C2_2  and  C3_3
REMARK    3  A    between atoms: C2_2  and  C4_4
REMARK    4  A    between atoms: C4_4  and  C5_5
REMARK    5  A    between atoms: N1_7  and  C6_8
REMARK    6  A    between atoms: C9_11  and  C10_12
REMARK    7  A    between atoms: N2_14  and  C11_15
REMARK    8  A    between atoms: C14_18  and  N3_19
REMARK    9  A    between atoms: N4_22  and  C16_23
REMARK   10  A    between atoms: C18_25  and  C19_26
REMARK                            x       y       z     vdW  Elec       q    Type
REMARK                         _______ _______ _______ _____ _____    ______ ____
ROOT
ATOM      1  C11 UNL     1       7.064   5.711  29.688  0.00  0.00    +0.034 A 
ATOM      2  C12 UNL     1       8.013   4.688  29.550  0.00  0.00    +0.025 A 
ATOM      3  C13 UNL     1       7.745   3.402  30.031  0.00  0.00    +0.025 A 
ATOM      4  C14 UNL     1       6.532   3.124  30.681  0.00  0.00    +0.035 A 
ATOM      5  C23 UNL     1       5.587   4.150  30.825  0.00  0.00    +0.025 A 
ATOM      6  C24 UNL     1       5.854   5.436  30.348  0.00  0.00    +0.025 A 
ENDROOT
BRANCH   4   7
ATOM      7  N3  UNL     1       6.214   1.802  31.147  0.00  0.00    -0.269 N 
ATOM      8  C15 UNL     1       7.027   1.047  32.056  0.00  0.00    +0.308 C 
ATOM      9  O3  UNL     1       7.939   1.617  32.717  0.00  0.00    -0.252 OA
ATOM     10  N4  UNL     1       6.794  -0.361  32.207  0.00  0.00    -0.267 N 
ATOM     11  H16 UNL     1       5.302   1.382  30.852  0.00  0.00    +0.156 HD
ATOM     12  H17 UNL     1       6.222  -0.835  31.472  0.00  0.00    +0.156 HD
BRANCH  10  13
ATOM     13  C16 UNL     1       7.400  -1.174  33.228  0.00  0.00    +0.071 A 
ATOM     14  C17 UNL     1       7.086  -0.989  34.588  0.00  0.00    +0.038 A 
ATOM     15  C18 UNL     1       7.660  -1.808  35.576  0.00  0.00    +0.057 A 
ATOM     16  C20 UNL     1       8.542  -2.832  35.188  0.00  0.00    +0.015 A 
ATOM     17  C21 UNL     1       8.842  -3.032  33.839  0.00  0.00    +0.041 A 
ATOM     18  C22 UNL     1       8.270  -2.213  32.862  0.00  0.00    +0.145 A 
ATOM     19  F4  UNL     1       8.576  -2.425  31.556  0.00  0.00    -0.204 F 
BRANCH  15  20
ATOM     20  C19 UNL     1       7.300  -1.581  37.022  0.00  0.00    +0.417 C 
ATOM     21  F1  UNL     1       8.427  -1.496  37.821  0.00  0.00    -0.166 F 
ATOM     22  F2  UNL     1       6.586  -0.404  37.142  0.00  0.00    -0.166 F 
ATOM     23  F3  UNL     1       6.518  -2.630  37.470  0.00  0.00    -0.166 F 
ENDBRANCH  15  20
ENDBRANCH  10  13
ENDBRANCH   4   7
BRANCH   1  26
ATOM     24  C10 UNL     1       7.508   8.187  30.026  0.00  0.00    +0.248 C 
ATOM     25  O2  UNL     1       7.024   8.178  31.192  0.00  0.00    -0.270 OA
ATOM     26  N2  UNL     1       7.366   7.027  29.188  0.00  0.00    -0.282 N 
ATOM     27  H13 UNL     1       7.341   7.169  28.153  0.00  0.00    +0.155 HD
BRANCH  24  31
ATOM     28  C6  UNL     1       9.447  11.754  28.573  0.00  0.00    +0.033 A 
ATOM     29  C7  UNL     1       8.204  11.834  29.215  0.00  0.00    +0.024 A 
ATOM     30  C8  UNL     1       7.569  10.681  29.687  0.00  0.00    +0.015 A 
ATOM     31  C9  UNL     1       8.165   9.419  29.520  0.00  0.00    +0.037 A 
ATOM     32  C25 UNL     1       9.393   9.336  28.839  0.00  0.00    +0.015 A 
ATOM     33  C26 UNL     1      10.025  10.489  28.365  0.00  0.00    +0.024 A 
BRANCH  28  36
ATOM     34  C5  UNL     1      11.022  13.732  28.835  0.00  0.00    +0.217 C 
ATOM     35  O1  UNL     1      11.232  13.493  30.056  0.00  0.00    -0.275 OA
ATOM     36  N1  UNL     1      10.069  12.956  28.089  0.00  0.00    -0.285 N 
ATOM     37  H10 UNL     1       9.732  13.348  27.180  0.00  0.00    +0.155 HD
BRANCH  34  38
ATOM     38  C4  UNL     1      11.720  14.893  28.186  0.00  0.00    +0.099 C 
BRANCH  38  40
ATOM     39  C1  UNL     1      14.244  14.870  28.535  0.00  0.00    +0.008 C 
ATOM     40  C2  UNL     1      13.086  14.486  27.598  0.00  0.00    -0.008 C 
ATOM     41  C3  UNL     1      13.286  15.139  26.224  0.00  0.00    +0.008 C 
ENDBRANCH  38  40
ENDBRANCH  34  38
ENDBRANCH  28  36
ENDBRANCH  24  31
ENDBRANCH   1  26
TORSDOF 8
ENDMDL
MODEL 9
REMARK VINA RESULT:    -6.704      9.343     13.301
REMARK INTER + INTRA:         -10.915
REMARK INTER:                  -9.897
REMARK INTRA:                  -1.017
REMARK UNBOUND:                -1.076
REMARK  Name = /home/qwerty/github/datacon2025hack/step_04_hit_selection/docking/ligands/lig_748.pdb
REMARK  10 active torsions:
REMARK  status: ('A' for Active; 'I' for Inactive)
REMARK    1  A    between atoms: C1_1  and  C2_2
REMARK    2  A    between atoms: C2_2  and  C3_3
REMARK    3  A    between atoms: C2_2  and  C4_4
REMARK    4  A    between atoms: C4_4  and  C5_5
REMARK    5  A    between atoms: N1_7  and  C6_8
REMARK    6  A    between atoms: C9_11  and  C10_12
REMARK    7  A    between atoms: N2_14  and  C11_15
REMARK    8  A    between atoms: C14_18  and  N3_19
REMARK    9  A    between atoms: N4_22  and  C16_23
REMARK   10  A    between atoms: C18_25  and  C19_26
REMARK                            x       y       z     vdW  Elec       q    Type
REMARK                         _______ _______ _______ _____ _____    ______ ____
ROOT
ATOM      1  C11 UNL     1      20.831  14.536  29.884  0.00  0.00    +0.034 A 
ATOM      2  C12 UNL     1      21.426  13.335  29.469  0.00  0.00    +0.025 A 
ATOM      3  C13 UNL     1      22.367  13.329  28.435  0.00  0.00    +0.025 A 
ATOM      4  C14 UNL     1      22.709  14.523  27.779  0.00  0.00    +0.035 A 
ATOM      5  C23 UNL     1      22.107  15.721  28.188  0.00  0.00    +0.025 A 
ATOM      6  C24 UNL     1      21.165  15.728  29.220  0.00  0.00    +0.025 A 
ENDROOT
BRANCH   4   7
ATOM      7  N3  UNL     1      23.703  14.552  26.741  0.00  0.00    -0.269 N 
ATOM      8  C15 UNL     1      23.409  14.660  25.341  0.00  0.00    +0.308 C 
ATOM      9  O3  UNL     1      22.260  15.014  24.959  0.00  0.00    -0.252 OA
ATOM     10  N4  UNL     1      24.433  14.361  24.381  0.00  0.00    -0.267 N 
ATOM     11  H16 UNL     1      24.710  14.553  27.023  0.00  0.00    +0.156 HD
ATOM     12  H17 UNL     1      25.270  13.834  24.718  0.00  0.00    +0.156 HD
BRANCH  10  13
ATOM     13  C16 UNL     1      24.321  14.631  22.971  0.00  0.00    +0.071 A 
ATOM     14  C17 UNL     1      23.615  13.762  22.117  0.00  0.00    +0.038 A 
ATOM     15  C18 UNL     1      23.486  14.050  20.748  0.00  0.00    +0.057 A 
ATOM     16  C20 UNL     1      24.056  15.231  20.239  0.00  0.00    +0.015 A 
ATOM     17  C21 UNL     1      24.741  16.105  21.086  0.00  0.00    +0.041 A 
ATOM     18  C22 UNL     1      24.869  15.812  22.446  0.00  0.00    +0.145 A 
ATOM     19  F4  UNL     1      25.539  16.676  23.251  0.00  0.00    -0.204 F 
BRANCH  15  20
ATOM     20  C19 UNL     1      22.723  13.098  19.863  0.00  0.00    +0.417 C 
ATOM     21  F1  UNL     1      22.284  13.716  18.705  0.00  0.00    -0.166 F 
ATOM     22  F2  UNL     1      23.537  12.037  19.514  0.00  0.00    -0.166 F 
ATOM     23  F3  UNL     1      21.623  12.614  20.550  0.00  0.00    -0.166 F 
ENDBRANCH  15  20
ENDBRANCH  10  13
ENDBRANCH   4   7
BRANCH   1  26
ATOM     24  C10 UNL     1      18.478  14.167  30.763  0.00  0.00    +0.248 C 
ATOM     25  O2  UNL     1      17.972  14.217  29.607  0.00  0.00    -0.270 OA
ATOM     26  N2  UNL     1      19.862  14.513  30.949  0.00  0.00    -0.282 N 
ATOM     27  H13 UNL     1      20.150  14.904  31.874  0.00  0.00    +0.155 HD
BRANCH  24  31
ATOM     28  C6  UNL     1      15.954  13.146  34.106  0.00  0.00    +0.033 A 
ATOM     29  C7  UNL     1      17.206  13.739  34.319  0.00  0.00    +0.024 A 
ATOM     30  C8  UNL     1      18.030  14.071  33.238  0.00  0.00    +0.015 A 
ATOM     31  C9  UNL     1      17.618  13.810  31.920  0.00  0.00    +0.037 A 
ATOM     32  C25 UNL     1      16.380  13.177  31.711  0.00  0.00    +0.015 A 
ATOM     33  C26 UNL     1      15.558  12.843  32.792  0.00  0.00    +0.024 A 
BRANCH  28  36
ATOM     34  C5  UNL     1      13.975  13.549  35.650  0.00  0.00    +0.217 C 
ATOM     35  O1  UNL     1      13.713  14.671  35.137  0.00  0.00    -0.275 OA
ATOM     36  N1  UNL     1      15.135  12.806  35.238  0.00  0.00    -0.285 N 
ATOM     37  H10 UNL     1      15.460  12.031  35.860  0.00  0.00    +0.155 HD
BRANCH  34  38
ATOM     38  C4  UNL     1      13.105  13.032  36.760  0.00  0.00    +0.099 C 
BRANCH  38  40
ATOM     39  C1  UNL     1      10.909  12.619  35.537  0.00  0.00    +0.008 C 
ATOM     40  C2  UNL     1      12.103  11.973  36.259  0.00  0.00    -0.008 C 
ATOM     41  C3  UNL     1      11.606  11.118  37.432  0.00  0.00    +0.008 C 
ENDBRANCH  38  40
ENDBRANCH  34  38
ENDBRANCH  28  36
ENDBRANCH  24  31
ENDBRANCH   1  26
TORSDOF 8
ENDMDL
