MODEL 1
REMARK VINA RESULT:    -7.852      0.000      0.000
REMARK INTER + INTRA:         -10.778
REMARK INTER:                  -9.688
REMARK INTRA:                  -1.090
REMARK UNBOUND:                -1.090
REMARK  Name = /home/qwerty/github/datacon2025hack/step_04_hit_selection/docking/ligands/lig_447.pdb
REMARK  5 active torsions:
REMARK  status: ('A' for Active; 'I' for Inactive)
REMARK    1  A    between atoms: C1_1  and  N1_2
REMARK    2  A    between atoms: C3_4  and  N2_5
REMARK    3  A    between atoms: C5_7  and  C6_8
REMARK    4  A    between atoms: N3_10  and  C7_11
REMARK    5  A    between atoms: C15_20  and  C16_22
REMARK                            x       y       z     vdW  Elec       q    Type
REMARK                         _______ _______ _______ _____ _____    ______ ____
ROOT
ATOM      1  C7  UNL     1      10.149   7.436  21.538  0.00  0.00    +0.037 A 
ATOM      2  C8  UNL     1      10.939   7.743  20.410  0.00  0.00    +0.023 A 
ATOM      3  C9  UNL     1      10.909   9.029  19.847  0.00  0.00    +0.002 A 
ATOM      4  C10 UNL     1      10.092  10.023  20.400  0.00  0.00    +0.004 A 
ATOM      5  C11 UNL     1       9.319   9.712  21.519  0.00  0.00    -0.042 A 
ATOM      6  C12 UNL     1       9.358   8.460  22.089  0.00  0.00    -0.018 A 
ATOM      7  C13 UNL     1       8.446   8.370  23.264  0.00  0.00    +0.043 C 
ATOM      8  C14 UNL     1       9.200   8.308  24.598  0.00  0.00    +0.116 C 
ATOM      9  N4  UNL     1       8.750   9.452  25.373  0.00  0.00    -0.297 N 
ATOM     10  C15 UNL     1       9.056   9.606  26.769  0.00  0.00    +0.248 C 
ATOM     11  O2  UNL     1       9.235   8.581  27.482  0.00  0.00    -0.270 OA
ATOM     12  C21 UNL     1       7.740  10.245  24.692  0.00  0.00    +0.112 C 
ATOM     13  C22 UNL     1       7.685   9.712  23.258  0.00  0.00    +0.020 C 
ATOM     14  C23 UNL     1       8.397  10.628  22.228  0.00  0.00    +0.041 C 
ENDROOT
BRANCH  10  15
ATOM     15  C16 UNL     1       9.168  10.943  27.388  0.00  0.00    +0.055 A 
ATOM     16  C17 UNL     1       8.168  11.412  28.254  0.00  0.00    +0.016 A 
ATOM     17  C18 UNL     1       8.283  12.677  28.835  0.00  0.00    +0.020 A 
ATOM     18  C19 UNL     1       9.410  13.454  28.563  0.00  0.00    +0.111 A 
ATOM     19  N5  UNL     1      10.381  12.983  27.735  0.00  0.00    -0.263 NA
ATOM     20  C20 UNL     1      10.289  11.757  27.153  0.00  0.00    +0.123 A 
ENDBRANCH  10  15
BRANCH   1  23
ATOM     21  C6  UNL     1       9.517   4.989  21.576  0.00  0.00    +0.222 C 
ATOM     22  O1  UNL     1       8.623   5.143  20.697  0.00  0.00    -0.275 OA
ATOM     23  N3  UNL     1      10.183   6.130  22.137  0.00  0.00    -0.285 N 
ATOM     24  H8  UNL     1      10.704   6.007  23.035  0.00  0.00    +0.155 HD
BRANCH  21  27
ATOM     25  N2  UNL     1      12.156   2.969  21.680  0.00  0.00    -0.268 N 
ATOM     26  C4  UNL     1      10.846   2.908  21.052  0.00  0.00    +0.127 C 
ATOM     27  C5  UNL     1       9.873   3.597  22.040  0.00  0.00    +0.102 C 
ATOM     28  C24 UNL     1      10.603   3.648  23.398  0.00  0.00    +0.110 C 
ATOM     29  C25 UNL     1      12.005   3.356  23.036  0.00  0.00    +0.221 C 
ATOM     30  O3  UNL     1      12.957   3.392  23.861  0.00  0.00    -0.275 OA
BRANCH  25  34
ATOM     31  C1  UNL     1      15.939   0.287  19.936  0.00  0.00    +0.172 C 
ATOM     32  N1  UNL     1      15.046   1.396  20.234  0.00  0.00    -0.273 N 
ATOM     33  C2  UNL     1      13.912   1.320  20.954  0.00  0.00    +0.131 A 
ATOM     34  C3  UNL     1      13.382   2.591  21.031  0.00  0.00    +0.074 A 
ATOM     35  C26 UNL     1      14.250   3.404  20.323  0.00  0.00    +0.157 A 
ATOM     36  N6  UNL     1      15.261   2.648  19.850  0.00  0.00    -0.178 NA
ENDBRANCH  25  34
ENDBRANCH  21  27
ENDBRANCH   1  23
TORSDOF 4
ENDMDL
MODEL 2
REMARK VINA RESULT:    -7.579      9.569     14.250
REMARK INTER + INTRA:         -10.441
REMARK INTER:                  -9.409
REMARK INTRA:                  -1.032
REMARK UNBOUND:                -1.090
REMARK  Name = /home/qwerty/github/datacon2025hack/step_04_hit_selection/docking/ligands/lig_447.pdb
REMARK  5 active torsions:
REMARK  status: ('A' for Active; 'I' for Inactive)
REMARK    1  A    between atoms: C1_1  and  N1_2
REMARK    2  A    between atoms: C3_4  and  N2_5
REMARK    3  A    between atoms: C5_7  and  C6_8
REMARK    4  A    between atoms: N3_10  and  C7_11
REMARK    5  A    between atoms: C15_20  and  C16_22
REMARK                            x       y       z     vdW  Elec       q    Type
REMARK                         _______ _______ _______ _____ _____    ______ ____
ROOT
ATOM      1  C7  UNL     1      14.154  12.130  35.633  0.00  0.00    +0.037 A 
ATOM      2  C8  UNL     1      13.817  11.260  36.692  0.00  0.00    +0.023 A 
ATOM      3  C9  UNL     1      12.492  11.172  37.148  0.00  0.00    +0.002 A 
ATOM      4  C10 UNL     1      11.488  11.949  36.556  0.00  0.00    +0.004 A 
ATOM      5  C11 UNL     1      11.830  12.800  35.504  0.00  0.00    -0.042 A 
ATOM      6  C12 UNL     1      13.122  12.877  35.038  0.00  0.00    -0.018 A 
ATOM      7  C13 UNL     1      13.238  13.855  33.920  0.00  0.00    +0.043 C 
ATOM      8  C14 UNL     1      13.460  13.180  32.561  0.00  0.00    +0.116 C 
ATOM      9  N4  UNL     1      12.351  13.593  31.717  0.00  0.00    -0.297 N 
ATOM     10  C15 UNL     1      12.330  13.353  30.299  0.00  0.00    +0.248 C 
ATOM     11  O2  UNL     1      13.418  13.284  29.666  0.00  0.00    -0.270 OA
ATOM     12  C21 UNL     1      11.435  14.509  32.379  0.00  0.00    +0.112 C 
ATOM     13  C22 UNL     1      11.848  14.522  33.852  0.00  0.00    +0.020 C 
ATOM     14  C23 UNL     1      10.908  13.695  34.767  0.00  0.00    +0.041 C 
ENDROOT
BRANCH  10  15
ATOM     15  C16 UNL     1      11.058  13.185  29.568  0.00  0.00    +0.055 A 
ATOM     16  C17 UNL     1      10.100  12.259  30.010  0.00  0.00    +0.016 A 
ATOM     17  C18 UNL     1       8.899  12.108  29.313  0.00  0.00    +0.020 A 
ATOM     18  C19 UNL     1       8.655  12.901  28.192  0.00  0.00    +0.111 A 
ATOM     19  N5  UNL     1       9.583  13.807  27.781  0.00  0.00    -0.263 NA
ATOM     20  C20 UNL     1      10.762  13.969  28.440  0.00  0.00    +0.123 A 
ENDBRANCH  10  15
BRANCH   1  23
ATOM     21  C6  UNL     1      16.469  13.143  35.660  0.00  0.00    +0.222 C 
ATOM     22  O1  UNL     1      16.097  14.128  36.358  0.00  0.00    -0.275 OA
ATOM     23  N3  UNL     1      15.502  12.217  35.142  0.00  0.00    -0.285 N 
ATOM     24  H8  UNL     1      15.790  11.587  34.359  0.00  0.00    +0.155 HD
BRANCH  21  27
ATOM     25  N2  UNL     1      18.786  10.765  35.843  0.00  0.00    -0.268 N 
ATOM     26  C4  UNL     1      18.619  12.079  36.444  0.00  0.00    +0.127 C 
ATOM     27  C5  UNL     1      17.938  12.953  35.363  0.00  0.00    +0.102 C 
ATOM     28  C24 UNL     1      18.130  12.209  34.025  0.00  0.00    +0.110 C 
ATOM     29  C25 UNL     1      18.542  10.856  34.450  0.00  0.00    +0.221 C 
ATOM     30  O3  UNL     1      18.713   9.899  33.648  0.00  0.00    -0.275 OA
BRANCH  25  34
ATOM     31  C1  UNL     1      21.621   7.098  37.593  0.00  0.00    +0.172 C 
ATOM     32  N1  UNL     1      20.496   7.989  37.355  0.00  0.00    -0.273 N 
ATOM     33  C2  UNL     1      20.491   9.043  36.519  0.00  0.00    +0.131 A 
ATOM     34  C3  UNL     1      19.230   9.599  36.558  0.00  0.00    +0.074 A 
ATOM     35  C26 UNL     1      18.507   8.830  37.454  0.00  0.00    +0.157 A 
ATOM     36  N6  UNL     1      19.305   7.850  37.923  0.00  0.00    -0.178 NA
ENDBRANCH  25  34
ENDBRANCH  21  27
ENDBRANCH   1  23
TORSDOF 4
ENDMDL
MODEL 3
REMARK VINA RESULT:    -7.436      8.235     11.954
REMARK INTER + INTRA:         -10.264
REMARK INTER:                  -9.344
REMARK INTRA:                  -0.920
REMARK UNBOUND:                -1.090
REMARK  Name = /home/qwerty/github/datacon2025hack/step_04_hit_selection/docking/ligands/lig_447.pdb
REMARK  5 active torsions:
REMARK  status: ('A' for Active; 'I' for Inactive)
REMARK    1  A    between atoms: C1_1  and  N1_2
REMARK    2  A    between atoms: C3_4  and  N2_5
REMARK    3  A    between atoms: C5_7  and  C6_8
REMARK    4  A    between atoms: N3_10  and  C7_11
REMARK    5  A    between atoms: C15_20  and  C16_22
REMARK                            x       y       z     vdW  Elec       q    Type
REMARK                         _______ _______ _______ _____ _____    ______ ____
ROOT
ATOM      1  C7  UNL     1      17.335   0.295  24.745  0.00  0.00    +0.037 A 
ATOM      2  C8  UNL     1      17.723   0.189  23.393  0.00  0.00    +0.023 A 
ATOM      3  C9  UNL     1      17.074  -0.713  22.534  0.00  0.00    +0.002 A 
ATOM      4  C10 UNL     1      16.033  -1.518  23.012  0.00  0.00    +0.004 A 
ATOM      5  C11 UNL     1      15.652  -1.400  24.349  0.00  0.00    -0.042 A 
ATOM      6  C12 UNL     1      16.269  -0.505  25.192  0.00  0.00    -0.018 A 
ATOM      7  C13 UNL     1      15.694  -0.567  26.565  0.00  0.00    +0.043 C 
ATOM      8  C14 UNL     1      14.845   0.662  26.910  0.00  0.00    +0.116 C 
ATOM      9  N4  UNL     1      13.515   0.164  27.218  0.00  0.00    -0.297 N 
ATOM     10  C15 UNL     1      12.500   0.992  27.812  0.00  0.00    +0.248 C 
ATOM     11  O2  UNL     1      12.840   1.952  28.556  0.00  0.00    -0.270 OA
ATOM     12  C21 UNL     1      13.413  -1.284  27.146  0.00  0.00    +0.112 C 
ATOM     13  C22 UNL     1      14.723  -1.765  26.516  0.00  0.00    +0.020 C 
ATOM     14  C23 UNL     1      14.583  -2.171  25.026  0.00  0.00    +0.041 C 
ENDROOT
BRANCH  10  15
ATOM     15  C16 UNL     1      11.065   0.741  27.568  0.00  0.00    +0.055 A 
ATOM     16  C17 UNL     1      10.309  -0.013  28.478  0.00  0.00    +0.016 A 
ATOM     17  C18 UNL     1       8.952  -0.244  28.238  0.00  0.00    +0.020 A 
ATOM     18  C19 UNL     1       8.357   0.303  27.101  0.00  0.00    +0.111 A 
ATOM     19  N5  UNL     1       9.094   1.047  26.234  0.00  0.00    -0.263 NA
ATOM     20  C20 UNL     1      10.419   1.280  26.442  0.00  0.00    +0.123 A 
ENDBRANCH  10  15
BRANCH   1  23
ATOM     21  C6  UNL     1      19.361   1.134  26.004  0.00  0.00    +0.222 C 
ATOM     22  O1  UNL     1      20.000   0.062  25.812  0.00  0.00    -0.275 OA
ATOM     23  N3  UNL     1      17.977   1.227  25.632  0.00  0.00    -0.285 N 
ATOM     24  H8  UNL     1      17.406   2.001  26.040  0.00  0.00    +0.155 HD
BRANCH  21  27
ATOM     25  N2  UNL     1      20.822   1.950  28.877  0.00  0.00    -0.268 N 
ATOM     26  C4  UNL     1      19.680   2.454  28.131  0.00  0.00    +0.127 C 
ATOM     27  C5  UNL     1      20.058   2.314  26.636  0.00  0.00    +0.102 C 
ATOM     28  C24 UNL     1      21.589   2.126  26.596  0.00  0.00    +0.110 C 
ATOM     29  C25 UNL     1      21.925   1.801  27.997  0.00  0.00    +0.221 C 
ATOM     30  O3  UNL     1      23.082   1.482  28.378  0.00  0.00    -0.275 OA
BRANCH  25  34
ATOM     31  C1  UNL     1      21.247   2.712  33.754  0.00  0.00    +0.172 C 
ATOM     32  N1  UNL     1      20.993   2.089  32.464  0.00  0.00    -0.273 N 
ATOM     33  C2  UNL     1      21.139   2.679  31.263  0.00  0.00    +0.131 A 
ATOM     34  C3  UNL     1      20.831   1.743  30.300  0.00  0.00    +0.074 A 
ATOM     35  C26 UNL     1      20.497   0.590  30.989  0.00  0.00    +0.157 A 
ATOM     36  N6  UNL     1      20.608   0.829  32.311  0.00  0.00    -0.178 NA
ENDBRANCH  25  34
ENDBRANCH  21  27
ENDBRANCH   1  23
TORSDOF 4
ENDMDL
MODEL 4
REMARK VINA RESULT:    -7.319      2.324      3.823
REMARK INTER + INTRA:         -10.120
REMARK INTER:                  -8.806
REMARK INTRA:                  -1.313
REMARK UNBOUND:                -1.090
REMARK  Name = /home/qwerty/github/datacon2025hack/step_04_hit_selection/docking/ligands/lig_447.pdb
REMARK  5 active torsions:
REMARK  status: ('A' for Active; 'I' for Inactive)
REMARK    1  A    between atoms: C1_1  and  N1_2
REMARK    2  A    between atoms: C3_4  and  N2_5
REMARK    3  A    between atoms: C5_7  and  C6_8
REMARK    4  A    between atoms: N3_10  and  C7_11
REMARK    5  A    between atoms: C15_20  and  C16_22
REMARK                            x       y       z     vdW  Elec       q    Type
REMARK                         _______ _______ _______ _____ _____    ______ ____
ROOT
ATOM      1  C7  UNL     1      10.533   8.591  20.769  0.00  0.00    +0.037 A 
ATOM      2  C8  UNL     1      11.069   9.340  19.701  0.00  0.00    +0.023 A 
ATOM      3  C9  UNL     1      10.570  10.619  19.405  0.00  0.00    +0.002 A 
ATOM      4  C10 UNL     1       9.532  11.166  20.171  0.00  0.00    +0.004 A 
ATOM      5  C11 UNL     1       9.013  10.420  21.230  0.00  0.00    -0.042 A 
ATOM      6  C12 UNL     1       9.510   9.175  21.537  0.00  0.00    -0.018 A 
ATOM      7  C13 UNL     1       8.794   8.576  22.700  0.00  0.00    +0.043 C 
ATOM      8  C14 UNL     1       9.653   8.536  23.969  0.00  0.00    +0.116 C 
ATOM      9  N4  UNL     1       8.933   9.306  24.971  0.00  0.00    -0.297 N 
ATOM     10  C15 UNL     1       9.306   9.303  26.359  0.00  0.00    +0.248 C 
ATOM     11  O2  UNL     1       9.874   8.289  26.847  0.00  0.00    -0.270 OA
ATOM     12  C21 UNL     1       7.660   9.820  24.494  0.00  0.00    +0.112 C 
ATOM     13  C22 UNL     1       7.643   9.563  22.985  0.00  0.00    +0.020 C 
ATOM     14  C23 UNL     1       7.917  10.832  22.136  0.00  0.00    +0.041 C 
ENDROOT
BRANCH  10  15
ATOM     15  C16 UNL     1       9.037  10.468  27.228  0.00  0.00    +0.055 A 
ATOM     16  C17 UNL     1       9.727  11.675  27.034  0.00  0.00    +0.016 A 
ATOM     17  C18 UNL     1       9.466  12.771  27.859  0.00  0.00    +0.020 A 
ATOM     18  C19 UNL     1       8.497  12.659  28.857  0.00  0.00    +0.111 A 
ATOM     19  N5  UNL     1       7.822  11.490  29.027  0.00  0.00    -0.263 NA
ATOM     20  C20 UNL     1       8.064  10.407  28.239  0.00  0.00    +0.123 A 
ENDBRANCH  10  15
BRANCH   1  23
ATOM     21  C6  UNL     1      12.294   7.081  21.774  0.00  0.00    +0.222 C 
ATOM     22  O1  UNL     1      13.141   8.015  21.847  0.00  0.00    -0.275 OA
ATOM     23  N3  UNL     1      11.046   7.289  21.095  0.00  0.00    -0.285 N 
ATOM     24  H8  UNL     1      10.492   6.449  20.810  0.00  0.00    +0.155 HD
BRANCH  21  27
ATOM     25  N2  UNL     1      10.694   4.383  22.876  0.00  0.00    -0.268 N 
ATOM     26  C4  UNL     1      11.569   5.373  23.484  0.00  0.00    +0.127 C 
ATOM     27  C5  UNL     1      12.607   5.742  22.396  0.00  0.00    +0.102 C 
ATOM     28  C24 UNL     1      12.537   4.621  21.337  0.00  0.00    +0.110 C 
ATOM     29  C25 UNL     1      11.274   3.928  21.665  0.00  0.00    +0.221 C 
ATOM     30  O3  UNL     1      10.796   2.993  20.970  0.00  0.00    -0.275 OA
BRANCH  25  34
ATOM     31  C1  UNL     1       7.524   2.317  26.075  0.00  0.00    +0.172 C 
ATOM     32  N1  UNL     1       8.078   2.997  24.914  0.00  0.00    -0.273 N 
ATOM     33  C2  UNL     1       9.380   3.270  24.710  0.00  0.00    +0.131 A 
ATOM     34  C3  UNL     1       9.487   3.889  23.483  0.00  0.00    +0.074 A 
ATOM     35  C26 UNL     1       8.197   3.969  22.988  0.00  0.00    +0.157 A 
ATOM     36  N6  UNL     1       7.356   3.412  23.882  0.00  0.00    -0.178 NA
ENDBRANCH  25  34
ENDBRANCH  21  27
ENDBRANCH   1  23
TORSDOF 4
ENDMDL
MODEL 5
REMARK VINA RESULT:    -7.266      5.150      9.940
REMARK INTER + INTRA:         -10.054
REMARK INTER:                  -8.358
REMARK INTRA:                  -1.696
REMARK UNBOUND:                -1.090
REMARK  Name = /home/qwerty/github/datacon2025hack/step_04_hit_selection/docking/ligands/lig_447.pdb
REMARK  5 active torsions:
REMARK  status: ('A' for Active; 'I' for Inactive)
REMARK    1  A    between atoms: C1_1  and  N1_2
REMARK    2  A    between atoms: C3_4  and  N2_5
REMARK    3  A    between atoms: C5_7  and  C6_8
REMARK    4  A    between atoms: N3_10  and  C7_11
REMARK    5  A    between atoms: C15_20  and  C16_22
REMARK                            x       y       z     vdW  Elec       q    Type
REMARK                         _______ _______ _______ _____ _____    ______ ____
ROOT
ATOM      1  C7  UNL     1      14.229  -0.982  24.195  0.00  0.00    +0.037 A 
ATOM      2  C8  UNL     1      14.691  -1.998  25.057  0.00  0.00    +0.023 A 
ATOM      3  C9  UNL     1      15.914  -2.643  24.809  0.00  0.00    +0.002 A 
ATOM      4  C10 UNL     1      16.690  -2.282  23.700  0.00  0.00    +0.004 A 
ATOM      5  C11 UNL     1      16.228  -1.271  22.857  0.00  0.00    -0.042 A 
ATOM      6  C12 UNL     1      15.041  -0.621  23.104  0.00  0.00    -0.018 A 
ATOM      7  C13 UNL     1      14.760   0.411  22.067  0.00  0.00    +0.043 C 
ATOM      8  C14 UNL     1      14.922   1.842  22.592  0.00  0.00    +0.116 C 
ATOM      9  N4  UNL     1      15.941   2.466  21.763  0.00  0.00    -0.297 N 
ATOM     10  C15 UNL     1      16.203   3.880  21.799  0.00  0.00    +0.248 C 
ATOM     11  O2  UNL     1      15.274   4.676  22.103  0.00  0.00    -0.270 OA
ATOM     12  C21 UNL     1      16.441   1.594  20.714  0.00  0.00    +0.112 C 
ATOM     13  C22 UNL     1      15.872   0.206  21.017  0.00  0.00    +0.020 C 
ATOM     14  C23 UNL     1      16.907  -0.766  21.641  0.00  0.00    +0.041 C 
ENDROOT
BRANCH  10  15
ATOM     15  C16 UNL     1      17.543   4.419  21.487  0.00  0.00    +0.055 A 
ATOM     16  C17 UNL     1      18.673   3.963  22.182  0.00  0.00    +0.016 A 
ATOM     17  C18 UNL     1      19.936   4.478  21.879  0.00  0.00    +0.020 A 
ATOM     18  C19 UNL     1      20.060   5.429  20.866  0.00  0.00    +0.111 A 
ATOM     19  N5  UNL     1      18.960   5.854  20.187  0.00  0.00    -0.263 NA
ATOM     20  C20 UNL     1      17.720   5.371  20.468  0.00  0.00    +0.123 A 
ENDBRANCH  10  15
BRANCH   1  23
ATOM     21  C6  UNL     1      12.897   0.909  25.215  0.00  0.00    +0.222 C 
ATOM     22  O1  UNL     1      13.854   1.265  25.958  0.00  0.00    -0.275 OA
ATOM     23  N3  UNL     1      12.989  -0.300  24.446  0.00  0.00    -0.285 N 
ATOM     24  H8  UNL     1      12.107  -0.712  24.065  0.00  0.00    +0.155 HD
BRANCH  21  27
ATOM     25  N2  UNL     1      11.361   2.962  23.097  0.00  0.00    -0.268 N 
ATOM     26  C4  UNL     1      11.926   3.102  24.429  0.00  0.00    +0.127 C 
ATOM     27  C5  UNL     1      11.651   1.759  25.148  0.00  0.00    +0.102 C 
ATOM     28  C24 UNL     1      10.553   1.050  24.328  0.00  0.00    +0.110 C 
ATOM     29  C25 UNL     1      10.544   1.803  23.057  0.00  0.00    +0.221 C 
ATOM     30  O3  UNL     1       9.838   1.481  22.065  0.00  0.00    -0.275 OA
BRANCH  25  34
ATOM     31  C1  UNL     1      11.350   7.178  20.496  0.00  0.00    +0.172 C 
ATOM     32  N1  UNL     1      11.558   5.794  20.894  0.00  0.00    -0.273 N 
ATOM     33  C2  UNL     1      11.193   5.252  22.070  0.00  0.00    +0.131 A 
ATOM     34  C3  UNL     1      11.538   3.918  22.038  0.00  0.00    +0.074 A 
ATOM     35  C26 UNL     1      12.123   3.710  20.801  0.00  0.00    +0.157 A 
ATOM     36  N6  UNL     1      12.119   4.874  20.120  0.00  0.00    -0.178 NA
ENDBRANCH  25  34
ENDBRANCH  21  27
ENDBRANCH   1  23
TORSDOF 4
ENDMDL
MODEL 6
REMARK VINA RESULT:    -7.216      2.154      3.630
REMARK INTER + INTRA:          -9.993
REMARK INTER:                  -8.856
REMARK INTRA:                  -1.137
REMARK UNBOUND:                -1.090
REMARK  Name = /home/qwerty/github/datacon2025hack/step_04_hit_selection/docking/ligands/lig_447.pdb
REMARK  5 active torsions:
REMARK  status: ('A' for Active; 'I' for Inactive)
REMARK    1  A    between atoms: C1_1  and  N1_2
REMARK    2  A    between atoms: C3_4  and  N2_5
REMARK    3  A    between atoms: C5_7  and  C6_8
REMARK    4  A    between atoms: N3_10  and  C7_11
REMARK    5  A    between atoms: C15_20  and  C16_22
REMARK                            x       y       z     vdW  Elec       q    Type
REMARK                         _______ _______ _______ _____ _____    ______ ____
ROOT
ATOM      1  C7  UNL     1      10.670   7.938  21.442  0.00  0.00    +0.037 A 
ATOM      2  C8  UNL     1      11.240   8.486  20.273  0.00  0.00    +0.023 A 
ATOM      3  C9  UNL     1      10.797   9.721  19.775  0.00  0.00    +0.002 A 
ATOM      4  C10 UNL     1       9.781  10.425  20.436  0.00  0.00    +0.004 A 
ATOM      5  C11 UNL     1       9.229   9.879  21.595  0.00  0.00    -0.042 A 
ATOM      6  C12 UNL     1       9.672   8.678  22.100  0.00  0.00    -0.018 A 
ATOM      7  C13 UNL     1       8.929   8.302  23.336  0.00  0.00    +0.043 C 
ATOM      8  C14 UNL     1       9.783   8.427  24.603  0.00  0.00    +0.116 C 
ATOM      9  N4  UNL     1       9.094   9.375  25.464  0.00  0.00    -0.297 N 
ATOM     10  C15 UNL     1       9.464   9.577  26.839  0.00  0.00    +0.248 C 
ATOM     11  O2  UNL     1       9.988   8.630  27.486  0.00  0.00    -0.270 OA
ATOM     12  C21 UNL     1       7.845   9.860  24.901  0.00  0.00    +0.112 C 
ATOM     13  C22 UNL     1       7.820   9.368  23.451  0.00  0.00    +0.020 C 
ATOM     14  C23 UNL     1       8.149  10.474  22.415  0.00  0.00    +0.041 C 
ENDROOT
BRANCH  10  15
ATOM     15  C16 UNL     1       9.244  10.875  27.510  0.00  0.00    +0.055 A 
ATOM     16  C17 UNL     1      10.077  11.970  27.233  0.00  0.00    +0.016 A 
ATOM     17  C18 UNL     1       9.860  13.193  27.872  0.00  0.00    +0.020 A 
ATOM     18  C19 UNL     1       8.795  13.318  28.765  0.00  0.00    +0.111 A 
ATOM     19  N5  UNL     1       7.983  12.255  29.014  0.00  0.00    -0.263 NA
ATOM     20  C20 UNL     1       8.178  11.052  28.409  0.00  0.00    +0.123 A 
ENDBRANCH  10  15
BRANCH   1  23
ATOM     21  C6  UNL     1      11.044   5.445  21.252  0.00  0.00    +0.222 C 
ATOM     22  O1  UNL     1      10.294   5.348  20.240  0.00  0.00    -0.275 OA
ATOM     23  N3  UNL     1      11.127   6.683  21.974  0.00  0.00    -0.285 N 
ATOM     24  H8  UNL     1      11.523   6.666  22.941  0.00  0.00    +0.155 HD
BRANCH  21  27
ATOM     25  N2  UNL     1      10.835   2.958  23.448  0.00  0.00    -0.268 N 
ATOM     26  C4  UNL     1      11.760   4.060  23.236  0.00  0.00    +0.127 C 
ATOM     27  C5  UNL     1      11.846   4.248  21.702  0.00  0.00    +0.102 C 
ATOM     28  C24 UNL     1      11.286   2.953  21.078  0.00  0.00    +0.110 C 
ATOM     29  C25 UNL     1      10.598   2.304  22.213  0.00  0.00    +0.221 C 
ATOM     30  O3  UNL     1       9.921   1.247  22.101  0.00  0.00    -0.275 OA
BRANCH  25  34
ATOM     31  C1  UNL     1       7.853   2.231  27.338  0.00  0.00    +0.172 C 
ATOM     32  N1  UNL     1       9.006   2.210  26.450  0.00  0.00    -0.273 N 
ATOM     33  C2  UNL     1       9.068   2.771  25.229  0.00  0.00    +0.131 A 
ATOM     34  C3  UNL     1      10.337   2.556  24.736  0.00  0.00    +0.074 A 
ATOM     35  C26 UNL     1      11.005   1.843  25.716  0.00  0.00    +0.157 A 
ATOM     36  N6  UNL     1      10.169   1.649  26.756  0.00  0.00    -0.178 NA
ENDBRANCH  25  34
ENDBRANCH  21  27
ENDBRANCH   1  23
TORSDOF 4
ENDMDL
MODEL 7
REMARK VINA RESULT:    -7.157      5.757      9.026
REMARK INTER + INTRA:          -9.920
REMARK INTER:                  -8.991
REMARK INTRA:                  -0.928
REMARK UNBOUND:                -1.090
REMARK  Name = /home/qwerty/github/datacon2025hack/step_04_hit_selection/docking/ligands/lig_447.pdb
REMARK  5 active torsions:
REMARK  status: ('A' for Active; 'I' for Inactive)
REMARK    1  A    between atoms: C1_1  and  N1_2
REMARK    2  A    between atoms: C3_4  and  N2_5
REMARK    3  A    between atoms: C5_7  and  C6_8
REMARK    4  A    between atoms: N3_10  and  C7_11
REMARK    5  A    between atoms: C15_20  and  C16_22
REMARK                            x       y       z     vdW  Elec       q    Type
REMARK                         _______ _______ _______ _____ _____    ______ ____
ROOT
ATOM      1  C7  UNL     1      14.472  -0.712  23.998  0.00  0.00    +0.037 A 
ATOM      2  C8  UNL     1      15.063  -1.992  24.048  0.00  0.00    +0.023 A 
ATOM      3  C9  UNL     1      14.960  -2.780  25.207  0.00  0.00    +0.002 A 
ATOM      4  C10 UNL     1      14.269  -2.301  26.327  0.00  0.00    +0.004 A 
ATOM      5  C11 UNL     1      13.682  -1.036  26.265  0.00  0.00    -0.042 A 
ATOM      6  C12 UNL     1      13.761  -0.267  25.126  0.00  0.00    -0.018 A 
ATOM      7  C13 UNL     1      13.065   1.038  25.304  0.00  0.00    +0.043 C 
ATOM      8  C14 UNL     1      11.756   1.127  24.511  0.00  0.00    +0.116 C 
ATOM      9  N4  UNL     1      10.705   1.367  25.486  0.00  0.00    -0.297 N 
ATOM     10  C15 UNL     1       9.370   1.740  25.104  0.00  0.00    +0.248 C 
ATOM     11  O2  UNL     1       9.186   2.375  24.031  0.00  0.00    -0.270 OA
ATOM     12  C21 UNL     1      11.201   1.484  26.848  0.00  0.00    +0.112 C 
ATOM     13  C22 UNL     1      12.671   1.058  26.796  0.00  0.00    +0.020 C 
ATOM     14  C23 UNL     1      12.923  -0.369  27.347  0.00  0.00    +0.041 C 
ENDROOT
BRANCH  10  15
ATOM     15  C16 UNL     1       8.206   1.392  25.945  0.00  0.00    +0.055 A 
ATOM     16  C17 UNL     1       7.891   0.049  26.203  0.00  0.00    +0.016 A 
ATOM     17  C18 UNL     1       6.789  -0.271  27.000  0.00  0.00    +0.020 A 
ATOM     18  C19 UNL     1       6.026   0.758  27.554  0.00  0.00    +0.111 A 
ATOM     19  N5  UNL     1       6.349   2.056  27.312  0.00  0.00    -0.263 NA
ATOM     20  C20 UNL     1       7.414   2.392  26.533  0.00  0.00    +0.123 A 
ENDBRANCH  10  15
BRANCH   1  23
ATOM     21  C6  UNL     1      15.749   0.232  22.031  0.00  0.00    +0.222 C 
ATOM     22  O1  UNL     1      16.865  -0.110  22.513  0.00  0.00    -0.275 OA
ATOM     23  N3  UNL     1      14.552   0.098  22.813  0.00  0.00    -0.285 N 
ATOM     24  H8  UNL     1      13.703   0.628  22.513  0.00  0.00    +0.155 HD
BRANCH  21  27
ATOM     25  N2  UNL     1      14.197   2.653  20.361  0.00  0.00    -0.268 N 
ATOM     26  C4  UNL     1      14.237   1.202  20.259  0.00  0.00    +0.127 C 
ATOM     27  C5  UNL     1      15.683   0.794  20.631  0.00  0.00    +0.102 C 
ATOM     28  C24 UNL     1      16.535   2.076  20.520  0.00  0.00    +0.110 C 
ATOM     29  C25 UNL     1      15.521   3.149  20.472  0.00  0.00    +0.221 C 
ATOM     30  O3  UNL     1      15.808   4.376  20.470  0.00  0.00    -0.275 OA
BRANCH  25  34
ATOM     31  C1  UNL     1       9.602   4.361  21.077  0.00  0.00    +0.172 C 
ATOM     32  N1  UNL     1      10.967   4.211  20.597  0.00  0.00    -0.273 N 
ATOM     33  C2  UNL     1      11.827   3.242  20.962  0.00  0.00    +0.131 A 
ATOM     34  C3  UNL     1      12.996   3.437  20.259  0.00  0.00    +0.074 A 
ATOM     35  C26 UNL     1      12.784   4.560  19.479  0.00  0.00    +0.157 A 
ATOM     36  N6  UNL     1      11.533   5.011  19.703  0.00  0.00    -0.178 NA
ENDBRANCH  25  34
ENDBRANCH  21  27
ENDBRANCH   1  23
TORSDOF 4
ENDMDL
MODEL 8
REMARK VINA RESULT:    -7.156     12.182     14.126
REMARK INTER + INTRA:          -9.919
REMARK INTER:                  -8.868
REMARK INTRA:                  -1.051
REMARK UNBOUND:                -1.090
REMARK  Name = /home/qwerty/github/datacon2025hack/step_04_hit_selection/docking/ligands/lig_447.pdb
REMARK  5 active torsions:
REMARK  status: ('A' for Active; 'I' for Inactive)
REMARK    1  A    between atoms: C1_1  and  N1_2
REMARK    2  A    between atoms: C3_4  and  N2_5
REMARK    3  A    between atoms: C5_7  and  C6_8
REMARK    4  A    between atoms: N3_10  and  C7_11
REMARK    5  A    between atoms: C15_20  and  C16_22
REMARK                            x       y       z     vdW  Elec       q    Type
REMARK                         _______ _______ _______ _____ _____    ______ ____
ROOT
ATOM      1  C7  UNL     1      21.860   5.922  33.232  0.00  0.00    +0.037 A 
ATOM      2  C8  UNL     1      21.847   5.609  34.608  0.00  0.00    +0.023 A 
ATOM      3  C9  UNL     1      22.501   6.438  35.534  0.00  0.00    +0.002 A 
ATOM      4  C10 UNL     1      23.175   7.588  35.100  0.00  0.00    +0.004 A 
ATOM      5  C11 UNL     1      23.176   7.892  33.738  0.00  0.00    -0.042 A 
ATOM      6  C12 UNL     1      22.521   7.096  32.827  0.00  0.00    -0.018 A 
ATOM      7  C13 UNL     1      22.669   7.622  31.441  0.00  0.00    +0.043 C 
ATOM      8  C14 UNL     1      21.371   8.226  30.893  0.00  0.00    +0.116 C 
ATOM      9  N4  UNL     1      21.673   9.612  30.571  0.00  0.00    -0.297 N 
ATOM     10  C15 UNL     1      20.772  10.442  29.817  0.00  0.00    +0.248 C 
ATOM     11  O2  UNL     1      19.994   9.910  28.979  0.00  0.00    -0.270 OA
ATOM     12  C21 UNL     1      23.059   9.970  30.820  0.00  0.00    +0.112 C 
ATOM     13  C22 UNL     1      23.667   8.790  31.583  0.00  0.00    +0.020 C 
ATOM     14  C23 UNL     1      23.837   9.054  33.101  0.00  0.00    +0.041 C 
ENDROOT
BRANCH  10  15
ATOM     15  C16 UNL     1      20.740  11.906  30.005  0.00  0.00    +0.055 A 
ATOM     16  C17 UNL     1      20.234  12.461  31.191  0.00  0.00    +0.016 A 
ATOM     17  C18 UNL     1      20.208  13.847  31.360  0.00  0.00    +0.020 A 
ATOM     18  C19 UNL     1      20.712  14.668  30.351  0.00  0.00    +0.111 A 
ATOM     19  N5  UNL     1      21.216  14.120  29.212  0.00  0.00    -0.263 NA
ATOM     20  C20 UNL     1      21.246  12.773  29.022  0.00  0.00    +0.123 A 
ENDBRANCH  10  15
BRANCH   1  23
ATOM     21  C6  UNL     1      21.648   3.793  31.887  0.00  0.00    +0.222 C 
ATOM     22  O1  UNL     1      22.834   3.442  32.139  0.00  0.00    -0.275 OA
ATOM     23  N3  UNL     1      21.180   5.094  32.275  0.00  0.00    -0.285 N 
ATOM     24  H8  UNL     1      20.311   5.461  31.825  0.00  0.00    +0.155 HD
BRANCH  21  27
ATOM     25  N2  UNL     1      21.332   2.377  28.894  0.00  0.00    -0.268 N 
ATOM     26  C4  UNL     1      20.511   3.271  29.695  0.00  0.00    +0.127 C 
ATOM     27  C5  UNL     1      20.726   2.838  31.165  0.00  0.00    +0.102 C 
ATOM     28  C24 UNL     1      21.343   1.425  31.111  0.00  0.00    +0.110 C 
ATOM     29  C25 UNL     1      21.774   1.300  29.704  0.00  0.00    +0.221 C 
ATOM     30  O3  UNL     1      22.417   0.312  29.260  0.00  0.00    -0.275 OA
BRANCH  25  34
ATOM     31  C1  UNL     1      20.639   2.502  23.990  0.00  0.00    +0.172 C 
ATOM     32  N1  UNL     1      21.242   2.615  25.309  0.00  0.00    -0.273 N 
ATOM     33  C2  UNL     1      20.638   2.327  26.477  0.00  0.00    +0.131 A 
ATOM     34  C3  UNL     1      21.558   2.533  27.482  0.00  0.00    +0.074 A 
ATOM     35  C26 UNL     1      22.716   2.957  26.853  0.00  0.00    +0.157 A 
ATOM     36  N6  UNL     1      22.495   2.994  25.523  0.00  0.00    -0.178 NA
ENDBRANCH  25  34
ENDBRANCH  21  27
ENDBRANCH   1  23
TORSDOF 4
ENDMDL
MODEL 9
REMARK VINA RESULT:    -7.106     14.033     16.933
REMARK INTER + INTRA:          -9.857
REMARK INTER:                  -8.152
REMARK INTRA:                  -1.706
REMARK UNBOUND:                -1.090
REMARK  Name = /home/qwerty/github/datacon2025hack/step_04_hit_selection/docking/ligands/lig_447.pdb
REMARK  5 active torsions:
REMARK  status: ('A' for Active; 'I' for Inactive)
REMARK    1  A    between atoms: C1_1  and  N1_2
REMARK    2  A    between atoms: C3_4  and  N2_5
REMARK    3  A    between atoms: C5_7  and  C6_8
REMARK    4  A    between atoms: N3_10  and  C7_11
REMARK    5  A    between atoms: C15_20  and  C16_22
REMARK                            x       y       z     vdW  Elec       q    Type
REMARK                         _______ _______ _______ _____ _____    ______ ____
ROOT
ATOM      1  C7  UNL     1      22.544   9.210  33.555  0.00  0.00    +0.037 A 
ATOM      2  C8  UNL     1      23.638   8.861  32.735  0.00  0.00    +0.023 A 
ATOM      3  C9  UNL     1      24.463   7.776  33.070  0.00  0.00    +0.002 A 
ATOM      4  C10 UNL     1      24.209   7.027  34.226  0.00  0.00    +0.004 A 
ATOM      5  C11 UNL     1      23.121   7.375  35.027  0.00  0.00    -0.042 A 
ATOM      6  C12 UNL     1      22.296   8.424  34.695  0.00  0.00    -0.018 A 
ATOM      7  C13 UNL     1      21.213   8.604  35.702  0.00  0.00    +0.043 C 
ATOM      8  C14 UNL     1      19.836   8.181  35.176  0.00  0.00    +0.116 C 
ATOM      9  N4  UNL     1      19.366   7.132  36.067  0.00  0.00    -0.297 N 
ATOM     10  C15 UNL     1      18.013   6.645  36.037  0.00  0.00    +0.248 C 
ATOM     11  O2  UNL     1      17.085   7.414  35.664  0.00  0.00    -0.270 OA
ATOM     12  C21 UNL     1      20.286   6.848  37.156  0.00  0.00    +0.112 C 
ATOM     13  C22 UNL     1      21.572   7.610  36.827  0.00  0.00    +0.020 C 
ATOM     14  C23 UNL     1      22.707   6.705  36.282  0.00  0.00    +0.041 C 
ENDROOT
BRANCH  10  15
ATOM     15  C16 UNL     1      17.687   5.260  36.434  0.00  0.00    +0.055 A 
ATOM     16  C17 UNL     1      18.307   4.173  35.799  0.00  0.00    +0.016 A 
ATOM     17  C18 UNL     1      17.994   2.867  36.182  0.00  0.00    +0.020 A 
ATOM     18  C19 UNL     1      17.080   2.659  37.216  0.00  0.00    +0.111 A 
ATOM     19  N5  UNL     1      16.497   3.720  37.837  0.00  0.00    -0.263 NA
ATOM     20  C20 UNL     1      16.781   5.001  37.477  0.00  0.00    +0.123 A 
ENDBRANCH  10  15
BRANCH   1  23
ATOM     21  C6  UNL     1      20.495  10.156  32.416  0.00  0.00    +0.222 C 
ATOM     22  O1  UNL     1      20.323   9.113  31.725  0.00  0.00    -0.275 OA
ATOM     23  N3  UNL     1      21.679  10.306  33.215  0.00  0.00    -0.285 N 
ATOM     24  H8  UNL     1      21.931  11.263  33.550  0.00  0.00    +0.155 HD
BRANCH  21  27
ATOM     25  N2  UNL     1      18.120  11.418  34.371  0.00  0.00    -0.268 N 
ATOM     26  C4  UNL     1      18.138  10.785  33.062  0.00  0.00    +0.127 C 
ATOM     27  C5  UNL     1      19.453  11.248  32.389  0.00  0.00    +0.102 C 
ATOM     28  C24 UNL     1      19.935  12.478  33.186  0.00  0.00    +0.110 C 
ATOM     29  C25 UNL     1      19.128  12.414  34.422  0.00  0.00    +0.221 C 
ATOM     30  O3  UNL     1      19.283  13.200  35.394  0.00  0.00    -0.275 OA
BRANCH  25  34
ATOM     31  C1  UNL     1      13.836  10.868  36.798  0.00  0.00    +0.172 C 
ATOM     32  N1  UNL     1      15.251  10.858  36.463  0.00  0.00    -0.273 N 
ATOM     33  C2  UNL     1      15.786  11.269  35.298  0.00  0.00    +0.131 A 
ATOM     34  C3  UNL     1      17.154  11.128  35.396  0.00  0.00    +0.074 A 
ATOM     35  C26 UNL     1      17.390  10.614  36.659  0.00  0.00    +0.157 A 
ATOM     36  N6  UNL     1      16.208  10.463  37.292  0.00  0.00    -0.178 NA
ENDBRANCH  25  34
ENDBRANCH  21  27
ENDBRANCH   1  23
TORSDOF 4
ENDMDL
