REMARK  Name = /home/qwerty/github/datacon2025hack/step_04_hit_selection/docking/ligands/lig_22.pdb
REMARK  4 active torsions:
REMARK  status: ('A' for Active; 'I' for Inactive)
REMARK    1  A    between atoms: C1_1  and  N1_2
REMARK    2  A    between atoms: N1_2  and  C2_3
REMARK    3  A    between atoms: N2_6  and  C4_7
REMARK    4  A    between atoms: C7_10  and  C8_11
REMARK                            x       y       z     vdW  Elec       q    Type
REMARK                         _______ _______ _______ _____ _____    ______ ____
ROOT
ATOM      1  C4  UNL     1      -1.805  -0.032  -0.240  0.00  0.00    +0.035 A 
ATOM      2  C5  UNL     1      -1.046   0.166   0.926  0.00  0.00    +0.024 A 
ATOM      3  C6  UNL     1       0.350   0.208   0.863  0.00  0.00    +0.013 A 
ATOM      4  C7  UNL     1       1.015   0.067  -0.368  0.00  0.00    +0.017 A 
ATOM      5  C16 UNL     1       0.251  -0.108  -1.535  0.00  0.00    +0.013 A 
ATOM      6  C17 UNL     1      -1.145  -0.149  -1.471  0.00  0.00    +0.024 A 
ENDROOT
BRANCH   4   7
ATOM      7  C8  UNL     1       2.493   0.107  -0.461  0.00  0.00    +0.136 A 
ATOM      8  C9  UNL     1       3.392   0.265   0.598  0.00  0.00    +0.058 A 
ATOM      9  C10 UNL     1       4.632   0.236   0.003  0.00  0.00    +0.023 A 
ATOM     10  C11 UNL     1       5.909   0.345   0.549  0.00  0.00    +0.050 A 
ATOM     11  C12 UNL     1       7.005   0.277  -0.332  0.00  0.00    +0.124 A 
ATOM     12  F1  UNL     1       8.267   0.379   0.154  0.00  0.00    -0.205 F 
ATOM     13  C13 UNL     1       6.797   0.104  -1.720  0.00  0.00    +0.042 A 
ATOM     14  C14 UNL     1       5.493  -0.002  -2.237  0.00  0.00    +0.049 A 
ATOM     15  C15 UNL     1       4.430   0.069  -1.340  0.00  0.00    +0.136 A 
ATOM     16  O2  UNL     1       3.150  -0.007  -1.605  0.00  0.00    -0.455 OA
ENDBRANCH   4   7
BRANCH   1  22
ATOM     17  C1  UNL     1      -6.041   0.738   0.170  0.00  0.00    +0.133 C 
ATOM     18  N1  UNL     1      -5.401  -0.235   1.060  0.00  0.00    -0.291 N 
ATOM     19  C2  UNL     1      -6.166  -0.851   2.149  0.00  0.00    +0.133 C 
ATOM     20  C3  UNL     1      -4.006  -0.568   0.903  0.00  0.00    +0.306 C 
ATOM     21  O1  UNL     1      -3.455  -1.345   1.732  0.00  0.00    -0.252 OA
ATOM     22  N2  UNL     1      -3.243  -0.055  -0.204  0.00  0.00    -0.269 N 
ATOM     23  H7  UNL     1      -3.751   0.226  -1.072  0.00  0.00    +0.156 HD
ENDBRANCH   1  22
TORSDOF 2
