REMARK  Name = /home/qwerty/github/datacon2025hack/step_04_hit_selection/docking/ligands/lig_638.pdb
REMARK  7 active torsions:
REMARK  status: ('A' for Active; 'I' for Inactive)
REMARK    1  A    between atoms: C1_1  and  C2_2
REMARK    2  A    between atoms: C2_2  and  C3_3
REMARK    3  A    between atoms: C2_2  and  C4_4
REMARK    4  A    between atoms: C2_2  and  C5_5
REMARK    5  A    between atoms: C8_8  and  C9_9
REMARK    6  A    between atoms: C12_12  and  N1_13
REMARK    7  A    between atoms: N2_16  and  C14_17
REMARK                            x       y       z     vdW  Elec       q    Type
REMARK                         _______ _______ _______ _____ _____    ______ ____
ROOT
ATOM      1  C9  UNL     1      -0.416  -0.031   0.587  0.00  0.00    +0.137 A 
ATOM      2  C10 UNL     1       0.250   0.007   1.804  0.00  0.00    +0.052 A 
ATOM      3  C11 UNL     1       1.596  -0.002   1.506  0.00  0.00    +0.067 A 
ATOM      4  C12 UNL     1       1.667  -0.040   0.125  0.00  0.00    +0.194 A 
ATOM      5  O2  UNL     1       0.461  -0.062  -0.392  0.00  0.00    -0.441 OA
ENDROOT
BRANCH   1   9
ATOM      6  C5  UNL     1      -4.687  -0.063  -0.096  0.00  0.00    -0.042 A 
ATOM      7  C6  UNL     1      -4.163  -0.011   1.214  0.00  0.00    +0.005 A 
ATOM      8  C7  UNL     1      -2.785   0.000   1.444  0.00  0.00    +0.012 A 
ATOM      9  C8  UNL     1      -1.882  -0.041   0.370  0.00  0.00    +0.017 A 
ATOM     10  C20 UNL     1      -2.389  -0.093  -0.936  0.00  0.00    +0.012 A 
ATOM     11  C21 UNL     1      -3.767  -0.104  -1.169  0.00  0.00    +0.005 A 
BRANCH   6  13
ATOM     12  C1  UNL     1      -6.623  -0.132  -1.797  0.00  0.00    +0.015 C 
ATOM     13  C2  UNL     1      -6.215  -0.073  -0.306  0.00  0.00    -0.013 C 
ATOM     14  C3  UNL     1      -6.823  -1.307   0.396  0.00  0.00    +0.015 C 
ATOM     15  C4  UNL     1      -6.826   1.211   0.297  0.00  0.00    +0.015 C 
ENDBRANCH   6  13
ENDBRANCH   1   9
BRANCH   4  16
ATOM     16  N1  UNL     1       2.857  -0.086  -0.677  0.00  0.00    -0.240 N 
ATOM     17  C13 UNL     1       4.175   0.237  -0.208  0.00  0.00    +0.310 C 
ATOM     18  O1  UNL     1       4.334   0.816   0.900  0.00  0.00    -0.252 OA
ATOM     19  N2  UNL     1       5.308  -0.036  -1.048  0.00  0.00    -0.269 N 
ATOM     20  H14 UNL     1       2.744  -0.349  -1.681  0.00  0.00    +0.159 HD
ATOM     21  H15 UNL     1       5.126  -0.235  -2.057  0.00  0.00    +0.156 HD
BRANCH  19  22
ATOM     22  C14 UNL     1       6.676   0.053  -0.612  0.00  0.00    +0.035 A 
ATOM     23  C15 UNL     1       7.667   0.433  -1.531  0.00  0.00    +0.026 A 
ATOM     24  C16 UNL     1       9.007   0.505  -1.138  0.00  0.00    +0.040 A 
ATOM     25  C17 UNL     1       9.371   0.182   0.172  0.00  0.00    +0.124 A 
ATOM     26  F1  UNL     1      10.671   0.250   0.551  0.00  0.00    -0.205 F 
ATOM     27  C18 UNL     1       8.395  -0.220   1.088  0.00  0.00    +0.040 A 
ATOM     28  C19 UNL     1       7.054  -0.292   0.699  0.00  0.00    +0.026 A 
ENDBRANCH  19  22
ENDBRANCH   4  16
TORSDOF 4
