REMARK  Name = /home/qwerty/github/datacon2025hack/step_04_hit_selection/docking/ligands/lig_346.pdb
REMARK  10 active torsions:
REMARK  status: ('A' for Active; 'I' for Inactive)
REMARK    1  A    between atoms: C1_1  and  C2_2
REMARK    2  A    between atoms: C4_5  and  C5_7
REMARK    3  A    between atoms: C9_11  and  C10_12
REMARK    4  A    between atoms: N2_14  and  C11_15
REMARK    5  A    between atoms: C19_23  and  C20_24
REMARK    6  A    between atoms: C21_26  and  O4_28
REMARK    7  A    between atoms: O4_28  and  C22_29
REMARK    8  A    between atoms: C22_29  and  C23_30
REMARK    9  A    between atoms: C22_29  and  C24_31
REMARK   10  A    between atoms: C22_29  and  C25_32
REMARK                            x       y       z     vdW  Elec       q    Type
REMARK                         _______ _______ _______ _____ _____    ______ ____
ROOT
ATOM      1  C1  UNL     1      -3.062  -1.994  -0.256  0.00  0.00    +0.030 C 
ATOM      2  C2  UNL     1      -2.481  -0.574  -0.160  0.00  0.00    +0.094 C 
ATOM      3  C3  UNL     1      -1.047  -0.654   0.403  0.00  0.00    +0.130 C 
ATOM      4  N1  UNL     1      -0.560   0.655   0.849  0.00  0.00    -0.294 N 
ATOM      5  C4  UNL     1       0.835   0.986   0.710  0.00  0.00    +0.247 C 
ATOM      6  O1  UNL     1       1.157   2.110   0.240  0.00  0.00    -0.270 OA
ATOM      7  C18 UNL     1      -1.450   1.640   1.471  0.00  0.00    +0.130 C 
ATOM      8  C19 UNL     1      -2.837   1.061   1.797  0.00  0.00    +0.094 C 
ATOM      9  C20 UNL     1      -2.842   0.214   3.075  0.00  0.00    +0.030 C 
ATOM     10  N3  UNL     1      -3.360   0.295   0.654  0.00  0.00    -0.259 N 
ATOM     11  C21 UNL     1      -4.730   0.488   0.253  0.00  0.00    +0.404 C 
ATOM     12  O3  UNL     1      -5.588   0.842   1.108  0.00  0.00    -0.226 OA
ENDROOT
BRANCH   5  13
ATOM     13  C5  UNL     1       1.894   0.026   1.095  0.00  0.00    +0.038 A 
ATOM     14  C6  UNL     1       1.693  -0.868   2.159  0.00  0.00    +0.013 A 
ATOM     15  C7  UNL     1       2.689  -1.778   2.514  0.00  0.00    +0.001 A 
ATOM     16  C8  UNL     1       3.903  -1.794   1.825  0.00  0.00    +0.013 A 
ATOM     17  C9  UNL     1       4.142  -0.885   0.780  0.00  0.00    +0.038 A 
ATOM     18  C17 UNL     1       3.127   0.021   0.418  0.00  0.00    +0.026 A 
BRANCH  17  19
ATOM     19  C10 UNL     1       5.442  -0.915   0.070  0.00  0.00    +0.248 C 
ATOM     20  O2  UNL     1       6.043  -2.018  -0.053  0.00  0.00    -0.270 OA
ATOM     21  N2  UNL     1       6.019   0.282  -0.485  0.00  0.00    -0.282 N 
ATOM     22  H10 UNL     1       5.437   1.144  -0.552  0.00  0.00    +0.155 HD
BRANCH  21  23
ATOM     23  C11 UNL     1       7.356   0.356  -1.010  0.00  0.00    +0.034 A 
ATOM     24  C12 UNL     1       7.620   1.195  -2.104  0.00  0.00    +0.023 A 
ATOM     25  C13 UNL     1       8.918   1.307  -2.613  0.00  0.00    +0.002 A 
ATOM     26  C14 UNL     1       9.966   0.597  -2.022  0.00  0.00    +0.000 A 
ATOM     27  C15 UNL     1       9.718  -0.222  -0.917  0.00  0.00    +0.002 A 
ATOM     28  C16 UNL     1       8.421  -0.341  -0.407  0.00  0.00    +0.023 A 
ENDBRANCH  21  23
ENDBRANCH  17  19
ENDBRANCH   5  13
BRANCH  11  29
ATOM     29  O4  UNL     1      -5.096   0.286  -1.088  0.00  0.00    -0.445 OA
BRANCH  29  30
ATOM     30  C22 UNL     1      -6.429   0.315  -1.620  0.00  0.00    +0.107 C 
ATOM     31  C23 UNL     1      -7.074   1.700  -1.417  0.00  0.00    +0.055 C 
ATOM     32  C24 UNL     1      -7.289  -0.785  -0.970  0.00  0.00    +0.055 C 
ATOM     33  C25 UNL     1      -6.322   0.039  -3.127  0.00  0.00    +0.055 C 
ENDBRANCH  29  30
ENDBRANCH  11  29
TORSDOF 5
