MODEL 1
REMARK VINA RESULT:    -5.865      0.000      0.000
REMARK INTER + INTRA:          -8.814
REMARK INTER:                  -8.266
REMARK INTRA:                  -0.548
REMARK UNBOUND:                -0.548
REMARK  Name = /home/qwerty/github/datacon2025hack/step_04_hit_selection/docking/ligands/lig_279.pdb
REMARK  10 active torsions:
REMARK  status: ('A' for Active; 'I' for Inactive)
REMARK    1  A    between atoms: C1_1  and  C2_2
REMARK    2  A    between atoms: C4_4  and  C5_5
REMARK    3  A    between atoms: C5_5  and  N1_6
REMARK    4  A    between atoms: N1_6  and  C6_7
REMARK    5  A    between atoms: C6_7  and  C7_8
REMARK    6  A    between atoms: C6_7  and  C8_9
REMARK    7  A    between atoms: C8_9  and  C9_10
REMARK    8  A    between atoms: C9_10  and  N2_11
REMARK    9  A    between atoms: C10_12  and  C11_14
REMARK   10  A    between atoms: N6_23  and  C17_24
REMARK                            x       y       z     vdW  Elec       q    Type
REMARK                         _______ _______ _______ _____ _____    ______ ____
ROOT
ATOM      1  C8  UNL     1      13.838   2.706  20.476  0.00  0.00    +0.037 C 
ENDROOT
BRANCH   1   2
ATOM      2  C6  UNL     1      14.969   1.844  19.888  0.00  0.00    +0.052 C 
ATOM      3  C7  UNL     1      16.334   2.446  20.259  0.00  0.00    +0.024 C 
BRANCH   2   4
ATOM      4  N1  UNL     1      14.839   0.458  20.390  0.00  0.00    -0.308 NA
ATOM      5  H7  UNL     1      14.190   0.396  21.212  0.00  0.00    +0.123 HD
BRANCH   4   6
ATOM      6  C5  UNL     1      16.128  -0.167  20.721  0.00  0.00    +0.138 C 
BRANCH   6  10
ATOM      7  C1  UNL     1      14.613  -2.077  25.147  0.00  0.00    +0.065 C 
ATOM      8  C2  UNL     1      15.427  -1.689  23.955  0.00  0.00    +0.036 A 
ATOM      9  C3  UNL     1      15.016  -0.863  22.929  0.00  0.00    +0.049 A 
ATOM     10  C4  UNL     1      16.082  -0.869  22.046  0.00  0.00    +0.077 A 
ATOM     11  N5  UNL     1      17.065  -1.668  22.508  0.00  0.00    -0.175 NA
ATOM     12  N6  UNL     1      16.659  -2.162  23.665  0.00  0.00    -0.271 N 
ATOM     13  C17 UNL     1      17.449  -3.085  24.472  0.00  0.00    +0.172 C 
ENDBRANCH   6  10
ENDBRANCH   4   6
ENDBRANCH   2   4
ENDBRANCH   1   2
BRANCH   1  14
ATOM     14  C9  UNL     1      13.494   3.893  19.566  0.00  0.00    +0.106 C 
BRANCH  14  15
ATOM     15  N2  UNL     1      12.070   4.216  19.646  0.00  0.00    -0.310 N 
ATOM     16  C10 UNL     1      11.611   5.396  20.319  0.00  0.00    +0.262 C 
ATOM     17  O1  UNL     1      12.443   6.265  20.696  0.00  0.00    -0.269 OA
ATOM     18  H16 UNL     1      11.375   3.597  19.173  0.00  0.00    +0.149 HD
BRANCH  16  19
ATOM     19  C11 UNL     1      10.174   5.627  20.557  0.00  0.00    +0.124 A 
ATOM     20  C12 UNL     1       9.482   6.808  20.323  0.00  0.00    +0.143 A 
ATOM     21  N3  UNL     1       8.238   6.727  20.859  0.00  0.00    -0.240 NA
ATOM     22  C13 UNL     1       8.204   5.472  21.350  0.00  0.00    +0.110 A 
ATOM     23  N4  UNL     1       9.324   4.798  21.184  0.00  0.00    -0.324 N 
ATOM     24  C14 UNL     1       9.456   3.683  22.093  0.00  0.00    +0.124 C 
ATOM     25  C15 UNL     1       8.110   3.677  22.861  0.00  0.00    +0.029 C 
ATOM     26  C16 UNL     1       7.305   4.910  22.375  0.00  0.00    +0.076 C 
ENDBRANCH  16  19
ENDBRANCH  14  15
ENDBRANCH   1  14
TORSDOF 7
ENDMDL
MODEL 2
REMARK VINA RESULT:    -5.851     11.394     14.599
REMARK INTER + INTRA:          -8.793
REMARK INTER:                  -8.130
REMARK INTRA:                  -0.663
REMARK UNBOUND:                -0.548
REMARK  Name = /home/qwerty/github/datacon2025hack/step_04_hit_selection/docking/ligands/lig_279.pdb
REMARK  10 active torsions:
REMARK  status: ('A' for Active; 'I' for Inactive)
REMARK    1  A    between atoms: C1_1  and  C2_2
REMARK    2  A    between atoms: C4_4  and  C5_5
REMARK    3  A    between atoms: C5_5  and  N1_6
REMARK    4  A    between atoms: N1_6  and  C6_7
REMARK    5  A    between atoms: C6_7  and  C7_8
REMARK    6  A    between atoms: C6_7  and  C8_9
REMARK    7  A    between atoms: C8_9  and  C9_10
REMARK    8  A    between atoms: C9_10  and  N2_11
REMARK    9  A    between atoms: C10_12  and  C11_14
REMARK   10  A    between atoms: N6_23  and  C17_24
REMARK                            x       y       z     vdW  Elec       q    Type
REMARK                         _______ _______ _______ _____ _____    ______ ____
ROOT
ATOM      1  C8  UNL     1      21.437   1.829  31.531  0.00  0.00    +0.037 C 
ENDROOT
BRANCH   1   2
ATOM      2  C6  UNL     1      20.624   0.595  31.101  0.00  0.00    +0.052 C 
ATOM      3  C7  UNL     1      19.220   1.025  30.643  0.00  0.00    +0.024 C 
BRANCH   2   4
ATOM      4  N1  UNL     1      21.346  -0.115  30.022  0.00  0.00    -0.308 NA
ATOM      5  H7  UNL     1      21.663  -1.068  30.321  0.00  0.00    +0.123 HD
BRANCH   4   6
ATOM      6  C5  UNL     1      22.484   0.644  29.481  0.00  0.00    +0.138 C 
BRANCH   6  10
ATOM      7  C1  UNL     1      22.549   3.588  25.375  0.00  0.00    +0.065 C 
ATOM      8  C2  UNL     1      22.168   2.583  26.414  0.00  0.00    +0.036 A 
ATOM      9  C3  UNL     1      22.817   2.376  27.614  0.00  0.00    +0.049 A 
ATOM     10  C4  UNL     1      22.139   1.312  28.182  0.00  0.00    +0.077 A 
ATOM     11  N5  UNL     1      21.156   0.893  27.361  0.00  0.00    -0.175 NA
ATOM     12  N6  UNL     1      21.181   1.670  26.290  0.00  0.00    -0.271 N 
ATOM     13  C17 UNL     1      20.269   1.521  25.161  0.00  0.00    +0.172 C 
ENDBRANCH   6  10
ENDBRANCH   4   6
ENDBRANCH   2   4
ENDBRANCH   1   2
BRANCH   1  14
ATOM     14  C9  UNL     1      21.102   2.261  32.965  0.00  0.00    +0.106 C 
BRANCH  14  15
ATOM     15  N2  UNL     1      22.036   3.285  33.432  0.00  0.00    -0.310 N 
ATOM     16  C10 UNL     1      21.739   4.681  33.294  0.00  0.00    +0.262 C 
ATOM     17  O1  UNL     1      20.588   5.044  32.929  0.00  0.00    -0.269 OA
ATOM     18  H16 UNL     1      22.918   2.997  33.910  0.00  0.00    +0.149 HD
BRANCH  16  19
ATOM     19  C11 UNL     1      22.752   5.708  33.597  0.00  0.00    +0.124 A 
ATOM     20  C12 UNL     1      23.214   6.061  34.859  0.00  0.00    +0.143 A 
ATOM     21  N3  UNL     1      23.972   7.183  34.774  0.00  0.00    -0.240 NA
ATOM     22  C13 UNL     1      23.988   7.437  33.450  0.00  0.00    +0.110 A 
ATOM     23  N4  UNL     1      23.286   6.586  32.731  0.00  0.00    -0.324 N 
ATOM     24  C14 UNL     1      22.915   7.107  31.435  0.00  0.00    +0.124 C 
ATOM     25  C15 UNL     1      23.620   8.486  31.382  0.00  0.00    +0.029 C 
ATOM     26  C16 UNL     1      24.298   8.702  32.760  0.00  0.00    +0.076 C 
ENDBRANCH  16  19
ENDBRANCH  14  15
ENDBRANCH   1  14
TORSDOF 7
ENDMDL
MODEL 3
REMARK VINA RESULT:    -5.784      6.636     10.148
REMARK INTER + INTRA:          -8.699
REMARK INTER:                  -7.722
REMARK INTRA:                  -0.977
REMARK UNBOUND:                -0.548
REMARK  Name = /home/qwerty/github/datacon2025hack/step_04_hit_selection/docking/ligands/lig_279.pdb
REMARK  10 active torsions:
REMARK  status: ('A' for Active; 'I' for Inactive)
REMARK    1  A    between atoms: C1_1  and  C2_2
REMARK    2  A    between atoms: C4_4  and  C5_5
REMARK    3  A    between atoms: C5_5  and  N1_6
REMARK    4  A    between atoms: N1_6  and  C6_7
REMARK    5  A    between atoms: C6_7  and  C7_8
REMARK    6  A    between atoms: C6_7  and  C8_9
REMARK    7  A    between atoms: C8_9  and  C9_10
REMARK    8  A    between atoms: C9_10  and  N2_11
REMARK    9  A    between atoms: C10_12  and  C11_14
REMARK   10  A    between atoms: N6_23  and  C17_24
REMARK                            x       y       z     vdW  Elec       q    Type
REMARK                         _______ _______ _______ _____ _____    ______ ____
ROOT
ATOM      1  C8  UNL     1      19.978   2.587  27.258  0.00  0.00    +0.037 C 
ENDROOT
BRANCH   1   2
ATOM      2  C6  UNL     1      21.245   1.914  26.702  0.00  0.00    +0.052 C 
ATOM      3  C7  UNL     1      22.396   2.932  26.641  0.00  0.00    +0.024 C 
BRANCH   2   4
ATOM      4  N1  UNL     1      21.598   0.756  27.553  0.00  0.00    -0.308 NA
ATOM      5  H7  UNL     1      20.750   0.297  27.964  0.00  0.00    +0.123 HD
BRANCH   4   6
ATOM      6  C5  UNL     1      22.558   1.083  28.617  0.00  0.00    +0.138 C 
BRANCH   6  10
ATOM      7  C1  UNL     1      19.660   0.400  32.701  0.00  0.00    +0.065 C 
ATOM      8  C2  UNL     1      20.629   0.952  31.704  0.00  0.00    +0.036 A 
ATOM      9  C3  UNL     1      20.868   0.445  30.444  0.00  0.00    +0.049 A 
ATOM     10  C4  UNL     1      21.880   1.247  29.946  0.00  0.00    +0.077 A 
ATOM     11  N5  UNL     1      22.238   2.168  30.863  0.00  0.00    -0.175 NA
ATOM     12  N6  UNL     1      21.475   1.981  31.927  0.00  0.00    -0.271 N 
ATOM     13  C17 UNL     1      21.572   2.781  33.143  0.00  0.00    +0.172 C 
ENDBRANCH   6  10
ENDBRANCH   4   6
ENDBRANCH   2   4
ENDBRANCH   1   2
BRANCH   1  14
ATOM     14  C9  UNL     1      18.865   1.566  27.533  0.00  0.00    +0.106 C 
BRANCH  14  15
ATOM     15  N2  UNL     1      18.606   0.747  26.349  0.00  0.00    -0.310 N 
ATOM     16  C10 UNL     1      17.296   0.237  26.068  0.00  0.00    +0.262 C 
ATOM     17  O1  UNL     1      16.310   0.636  26.746  0.00  0.00    -0.269 OA
ATOM     18  H16 UNL     1      19.380   0.562  25.673  0.00  0.00    +0.149 HD
BRANCH  16  19
ATOM     19  C11 UNL     1      17.073  -0.733  24.980  0.00  0.00    +0.124 A 
ATOM     20  C12 UNL     1      17.503  -2.054  24.956  0.00  0.00    +0.143 A 
ATOM     21  N3  UNL     1      17.314  -2.576  23.718  0.00  0.00    -0.240 NA
ATOM     22  C13 UNL     1      16.721  -1.565  23.052  0.00  0.00    +0.110 A 
ATOM     23  N4  UNL     1      16.561  -0.471  23.767  0.00  0.00    -0.324 N 
ATOM     24  C14 UNL     1      16.382   0.714  22.960  0.00  0.00    +0.124 C 
ATOM     25  C15 UNL     1      16.349   0.166  21.510  0.00  0.00    +0.029 C 
ATOM     26  C16 UNL     1      16.621  -1.358  21.596  0.00  0.00    +0.076 C 
ENDBRANCH  16  19
ENDBRANCH  14  15
ENDBRANCH   1  14
TORSDOF 7
ENDMDL
MODEL 4
REMARK VINA RESULT:    -5.780      7.538     10.398
REMARK INTER + INTRA:          -8.693
REMARK INTER:                  -8.102
REMARK INTRA:                  -0.591
REMARK UNBOUND:                -0.548
REMARK  Name = /home/qwerty/github/datacon2025hack/step_04_hit_selection/docking/ligands/lig_279.pdb
REMARK  10 active torsions:
REMARK  status: ('A' for Active; 'I' for Inactive)
REMARK    1  A    between atoms: C1_1  and  C2_2
REMARK    2  A    between atoms: C4_4  and  C5_5
REMARK    3  A    between atoms: C5_5  and  N1_6
REMARK    4  A    between atoms: N1_6  and  C6_7
REMARK    5  A    between atoms: C6_7  and  C7_8
REMARK    6  A    between atoms: C6_7  and  C8_9
REMARK    7  A    between atoms: C8_9  and  C9_10
REMARK    8  A    between atoms: C9_10  and  N2_11
REMARK    9  A    between atoms: C10_12  and  C11_14
REMARK   10  A    between atoms: N6_23  and  C17_24
REMARK                            x       y       z     vdW  Elec       q    Type
REMARK                         _______ _______ _______ _____ _____    ______ ____
ROOT
ATOM      1  C8  UNL     1      21.167   0.887  27.200  0.00  0.00    +0.037 C 
ENDROOT
BRANCH   1   2
ATOM      2  C6  UNL     1      22.245   1.949  27.480  0.00  0.00    +0.052 C 
ATOM      3  C7  UNL     1      22.194   3.045  26.403  0.00  0.00    +0.024 C 
BRANCH   2   4
ATOM      4  N1  UNL     1      22.037   2.513  28.831  0.00  0.00    -0.308 NA
ATOM      5  H7  UNL     1      22.476   3.460  28.935  0.00  0.00    +0.123 HD
BRANCH   4   6
ATOM      6  C5  UNL     1      22.494   1.628  29.912  0.00  0.00    +0.138 C 
BRANCH   6  10
ATOM      7  C1  UNL     1      18.619  -0.134  32.637  0.00  0.00    +0.065 C 
ATOM      8  C2  UNL     1      19.767   0.683  32.135  0.00  0.00    +0.036 A 
ATOM      9  C3  UNL     1      20.427   0.498  30.938  0.00  0.00    +0.049 A 
ATOM     10  C4  UNL     1      21.438   1.443  30.963  0.00  0.00    +0.077 A 
ATOM     11  N5  UNL     1      21.397   2.138  32.117  0.00  0.00    -0.175 NA
ATOM     12  N6  UNL     1      20.381   1.670  32.822  0.00  0.00    -0.271 N 
ATOM     13  C17 UNL     1      20.018   2.166  34.145  0.00  0.00    +0.172 C 
ENDBRANCH   6  10
ENDBRANCH   4   6
ENDBRANCH   2   4
ENDBRANCH   1   2
BRANCH   1  14
ATOM     14  C9  UNL     1      20.348   1.224  25.946  0.00  0.00    +0.106 C 
BRANCH  14  15
ATOM     15  N2  UNL     1      19.549   0.074  25.523  0.00  0.00    -0.310 N 
ATOM     16  C10 UNL     1      18.129   0.176  25.353  0.00  0.00    +0.262 C 
ATOM     17  O1  UNL     1      17.573   1.308  25.396  0.00  0.00    -0.269 OA
ATOM     18  H16 UNL     1      20.024  -0.829  25.301  0.00  0.00    +0.149 HD
BRANCH  16  19
ATOM     19  C11 UNL     1      17.304  -1.020  25.104  0.00  0.00    +0.124 A 
ATOM     20  C12 UNL     1      17.381  -1.856  23.997  0.00  0.00    +0.143 A 
ATOM     21  N3  UNL     1      16.332  -2.717  23.997  0.00  0.00    -0.240 NA
ATOM     22  C13 UNL     1      15.687  -2.406  25.139  0.00  0.00    +0.110 A 
ATOM     23  N4  UNL     1      16.236  -1.417  25.815  0.00  0.00    -0.324 N 
ATOM     24  C14 UNL     1      15.322  -0.786  26.740  0.00  0.00    +0.124 C 
ATOM     25  C15 UNL     1      14.036  -1.642  26.624  0.00  0.00    +0.029 C 
ATOM     26  C16 UNL     1      14.291  -2.696  25.515  0.00  0.00    +0.076 C 
ENDBRANCH  16  19
ENDBRANCH  14  15
ENDBRANCH   1  14
TORSDOF 7
ENDMDL
MODEL 5
REMARK VINA RESULT:    -5.750      4.990      9.918
REMARK INTER + INTRA:          -8.652
REMARK INTER:                  -8.027
REMARK INTRA:                  -0.625
REMARK UNBOUND:                -0.548
REMARK  Name = /home/qwerty/github/datacon2025hack/step_04_hit_selection/docking/ligands/lig_279.pdb
REMARK  10 active torsions:
REMARK  status: ('A' for Active; 'I' for Inactive)
REMARK    1  A    between atoms: C1_1  and  C2_2
REMARK    2  A    between atoms: C4_4  and  C5_5
REMARK    3  A    between atoms: C5_5  and  N1_6
REMARK    4  A    between atoms: N1_6  and  C6_7
REMARK    5  A    between atoms: C6_7  and  C7_8
REMARK    6  A    between atoms: C6_7  and  C8_9
REMARK    7  A    between atoms: C8_9  and  C9_10
REMARK    8  A    between atoms: C9_10  and  N2_11
REMARK    9  A    between atoms: C10_12  and  C11_14
REMARK   10  A    between atoms: N6_23  and  C17_24
REMARK                            x       y       z     vdW  Elec       q    Type
REMARK                         _______ _______ _______ _____ _____    ______ ____
ROOT
ATOM      1  C8  UNL     1      17.658  -0.746  23.370  0.00  0.00    +0.037 C 
ENDROOT
BRANCH   1   2
ATOM      2  C6  UNL     1      16.619  -1.837  23.058  0.00  0.00    +0.052 C 
ATOM      3  C7  UNL     1      15.916  -2.278  24.352  0.00  0.00    +0.024 C 
BRANCH   2   4
ATOM      4  N1  UNL     1      15.648  -1.319  22.069  0.00  0.00    -0.308 NA
ATOM      5  H7  UNL     1      14.933  -2.039  21.805  0.00  0.00    +0.123 HD
BRANCH   4   6
ATOM      6  C5  UNL     1      16.280  -0.773  20.859  0.00  0.00    +0.138 C 
BRANCH   6  10
ATOM      7  C1  UNL     1      13.265   3.226  20.189  0.00  0.00    +0.065 C 
ATOM      8  C2  UNL     1      14.446   2.310  20.229  0.00  0.00    +0.036 A 
ATOM      9  C3  UNL     1      14.418   0.971  20.558  0.00  0.00    +0.049 A 
ATOM     10  C4  UNL     1      15.748   0.588  20.519  0.00  0.00    +0.077 A 
ATOM     11  N5  UNL     1      16.527   1.643  20.205  0.00  0.00    -0.175 NA
ATOM     12  N6  UNL     1      15.728   2.683  20.032  0.00  0.00    -0.271 N 
ATOM     13  C17 UNL     1      16.204   4.019  19.690  0.00  0.00    +0.172 C 
ENDBRANCH   6  10
ENDBRANCH   4   6
ENDBRANCH   2   4
ENDBRANCH   1   2
BRANCH   1  14
ATOM     14  C9  UNL     1      17.960  -0.659  24.873  0.00  0.00    +0.106 C 
BRANCH  14  15
ATOM     15  N2  UNL     1      19.288  -0.093  25.105  0.00  0.00    -0.310 N 
ATOM     16  C10 UNL     1      19.536   0.797  26.202  0.00  0.00    +0.262 C 
ATOM     17  O1  UNL     1      18.652   0.963  27.087  0.00  0.00    -0.269 OA
ATOM     18  H16 UNL     1      20.081  -0.370  24.486  0.00  0.00    +0.149 HD
BRANCH  16  19
ATOM     19  C11 UNL     1      20.821   1.507  26.331  0.00  0.00    +0.124 A 
ATOM     20  C12 UNL     1      21.676   1.469  27.425  0.00  0.00    +0.143 A 
ATOM     21  N3  UNL     1      22.645   2.408  27.285  0.00  0.00    -0.240 NA
ATOM     22  C13 UNL     1      22.374   2.943  26.078  0.00  0.00    +0.110 A 
ATOM     23  N4  UNL     1      21.312   2.432  25.490  0.00  0.00    -0.324 N 
ATOM     24  C14 UNL     1      20.757   3.294  24.471  0.00  0.00    +0.124 C 
ATOM     25  C15 UNL     1      21.752   4.482  24.417  0.00  0.00    +0.029 C 
ATOM     26  C16 UNL     1      22.803   4.244  25.532  0.00  0.00    +0.076 C 
ENDBRANCH  16  19
ENDBRANCH  14  15
ENDBRANCH   1  14
TORSDOF 7
ENDMDL
MODEL 6
REMARK VINA RESULT:    -5.720      2.815      8.946
REMARK INTER + INTRA:          -8.609
REMARK INTER:                  -7.688
REMARK INTRA:                  -0.921
REMARK UNBOUND:                -0.548
REMARK  Name = /home/qwerty/github/datacon2025hack/step_04_hit_selection/docking/ligands/lig_279.pdb
REMARK  10 active torsions:
REMARK  status: ('A' for Active; 'I' for Inactive)
REMARK    1  A    between atoms: C1_1  and  C2_2
REMARK    2  A    between atoms: C4_4  and  C5_5
REMARK    3  A    between atoms: C5_5  and  N1_6
REMARK    4  A    between atoms: N1_6  and  C6_7
REMARK    5  A    between atoms: C6_7  and  C7_8
REMARK    6  A    between atoms: C6_7  and  C8_9
REMARK    7  A    between atoms: C8_9  and  C9_10
REMARK    8  A    between atoms: C9_10  and  N2_11
REMARK    9  A    between atoms: C10_12  and  C11_14
REMARK   10  A    between atoms: N6_23  and  C17_24
REMARK                            x       y       z     vdW  Elec       q    Type
REMARK                         _______ _______ _______ _____ _____    ______ ____
ROOT
ATOM      1  C8  UNL     1       9.618   3.710  22.342  0.00  0.00    +0.037 C 
ENDROOT
BRANCH   1   2
ATOM      2  C6  UNL     1       8.345   4.076  21.559  0.00  0.00    +0.052 C 
ATOM      3  C7  UNL     1       7.354   4.806  22.481  0.00  0.00    +0.024 C 
BRANCH   2   4
ATOM      4  N1  UNL     1       8.710   4.912  20.394  0.00  0.00    -0.308 NA
ATOM      5  H7  UNL     1       8.537   4.418  19.485  0.00  0.00    +0.123 HD
BRANCH   4   6
ATOM      6  C5  UNL     1      10.094   5.407  20.440  0.00  0.00    +0.138 C 
BRANCH   6  10
ATOM      7  C1  UNL     1      11.546  10.236  20.121  0.00  0.00    +0.065 C 
ATOM      8  C2  UNL     1      10.775   8.984  20.392  0.00  0.00    +0.036 A 
ATOM      9  C3  UNL     1      11.235   7.697  20.211  0.00  0.00    +0.049 A 
ATOM     10  C4  UNL     1      10.146   6.904  20.529  0.00  0.00    +0.077 A 
ATOM     11  N5  UNL     1       9.090   7.674  20.861  0.00  0.00    -0.175 NA
ATOM     12  N6  UNL     1       9.480   8.934  20.774  0.00  0.00    -0.271 N 
ATOM     13  C17 UNL     1       8.609  10.071  21.048  0.00  0.00    +0.172 C 
ENDBRANCH   6  10
ENDBRANCH   4   6
ENDBRANCH   2   4
ENDBRANCH   1   2
BRANCH   1  14
ATOM     14  C9  UNL     1       9.957   2.219  22.214  0.00  0.00    +0.106 C 
BRANCH  14  15
ATOM     15  N2  UNL     1      11.130   2.023  21.362  0.00  0.00    -0.310 N 
ATOM     16  C10 UNL     1      12.455   2.030  21.908  0.00  0.00    +0.262 C 
ATOM     17  O1  UNL     1      12.618   2.027  23.159  0.00  0.00    -0.269 OA
ATOM     18  H16 UNL     1      11.000   1.836  20.343  0.00  0.00    +0.149 HD
BRANCH  16  19
ATOM     19  C11 UNL     1      13.641   2.015  21.031  0.00  0.00    +0.124 A 
ATOM     20  C12 UNL     1      14.525   0.956  20.862  0.00  0.00    +0.143 A 
ATOM     21  N3  UNL     1      15.608   1.370  20.157  0.00  0.00    -0.240 NA
ATOM     22  C13 UNL     1      15.311   2.655  19.876  0.00  0.00    +0.110 A 
ATOM     23  N4  UNL     1      14.160   3.062  20.370  0.00  0.00    -0.324 N 
ATOM     24  C14 UNL     1      14.068   4.500  20.484  0.00  0.00    +0.124 C 
ATOM     25  C15 UNL     1      15.391   5.001  19.850  0.00  0.00    +0.029 C 
ATOM     26  C16 UNL     1      16.225   3.745  19.488  0.00  0.00    +0.076 C 
ENDBRANCH  16  19
ENDBRANCH  14  15
ENDBRANCH   1  14
TORSDOF 7
ENDMDL
MODEL 7
REMARK VINA RESULT:    -5.678      3.573      5.862
REMARK INTER + INTRA:          -8.549
REMARK INTER:                  -7.253
REMARK INTRA:                  -1.297
REMARK UNBOUND:                -0.548
REMARK  Name = /home/qwerty/github/datacon2025hack/step_04_hit_selection/docking/ligands/lig_279.pdb
REMARK  10 active torsions:
REMARK  status: ('A' for Active; 'I' for Inactive)
REMARK    1  A    between atoms: C1_1  and  C2_2
REMARK    2  A    between atoms: C4_4  and  C5_5
REMARK    3  A    between atoms: C5_5  and  N1_6
REMARK    4  A    between atoms: N1_6  and  C6_7
REMARK    5  A    between atoms: C6_7  and  C7_8
REMARK    6  A    between atoms: C6_7  and  C8_9
REMARK    7  A    between atoms: C8_9  and  C9_10
REMARK    8  A    between atoms: C9_10  and  N2_11
REMARK    9  A    between atoms: C10_12  and  C11_14
REMARK   10  A    between atoms: N6_23  and  C17_24
REMARK                            x       y       z     vdW  Elec       q    Type
REMARK                         _______ _______ _______ _____ _____    ______ ____
ROOT
ATOM      1  C8  UNL     1       8.062   3.677  24.427  0.00  0.00    +0.037 C 
ENDROOT
BRANCH   1   2
ATOM      2  C6  UNL     1       9.198   2.693  24.097  0.00  0.00    +0.052 C 
ATOM      3  C7  UNL     1       9.076   1.437  24.976  0.00  0.00    +0.024 C 
BRANCH   2   4
ATOM      4  N1  UNL     1       9.145   2.349  22.659  0.00  0.00    -0.308 NA
ATOM      5  H7  UNL     1       8.202   1.990  22.374  0.00  0.00    +0.123 HD
BRANCH   4   6
ATOM      6  C5  UNL     1      10.189   1.400  22.246  0.00  0.00    +0.138 C 
BRANCH   6  10
ATOM      7  C1  UNL     1      14.984   2.888  21.667  0.00  0.00    +0.065 C 
ATOM      8  C2  UNL     1      13.500   2.746  21.545  0.00  0.00    +0.036 A 
ATOM      9  C3  UNL     1      12.697   1.948  22.333  0.00  0.00    +0.049 A 
ATOM     10  C4  UNL     1      11.433   2.105  21.791  0.00  0.00    +0.077 A 
ATOM     11  N5  UNL     1      11.482   2.934  20.729  0.00  0.00    -0.175 NA
ATOM     12  N6  UNL     1      12.740   3.317  20.586  0.00  0.00    -0.271 N 
ATOM     13  C17 UNL     1      13.197   4.214  19.531  0.00  0.00    +0.172 C 
ENDBRANCH   6  10
ENDBRANCH   4   6
ENDBRANCH   2   4
ENDBRANCH   1   2
BRANCH   1  14
ATOM     14  C9  UNL     1       7.327   4.145  23.162  0.00  0.00    +0.106 C 
BRANCH  14  15
ATOM     15  N2  UNL     1       7.927   5.370  22.636  0.00  0.00    -0.310 N 
ATOM     16  C10 UNL     1       8.427   5.437  21.294  0.00  0.00    +0.262 C 
ATOM     17  O1  UNL     1       8.194   4.493  20.491  0.00  0.00    -0.269 OA
ATOM     18  H16 UNL     1       7.958   6.226  23.234  0.00  0.00    +0.149 HD
BRANCH  16  19
ATOM     19  C11 UNL     1       9.191   6.607  20.823  0.00  0.00    +0.124 A 
ATOM     20  C12 UNL     1      10.490   6.597  20.330  0.00  0.00    +0.143 A 
ATOM     21  N3  UNL     1      10.944   7.869  20.202  0.00  0.00    -0.240 NA
ATOM     22  C13 UNL     1       9.878   8.607  20.570  0.00  0.00    +0.110 A 
ATOM     23  N4  UNL     1       8.831   7.896  20.935  0.00  0.00    -0.324 N 
ATOM     24  C14 UNL     1       7.899   8.637  21.754  0.00  0.00    +0.124 C 
ATOM     25  C15 UNL     1       8.496  10.067  21.783  0.00  0.00    +0.029 C 
ATOM     26  C16 UNL     1       9.843  10.012  21.017  0.00  0.00    +0.076 C 
ENDBRANCH  16  19
ENDBRANCH  14  15
ENDBRANCH   1  14
TORSDOF 7
ENDMDL
MODEL 8
REMARK VINA RESULT:    -5.654      2.264      9.394
REMARK INTER + INTRA:          -8.516
REMARK INTER:                  -7.926
REMARK INTRA:                  -0.590
REMARK UNBOUND:                -0.548
REMARK  Name = /home/qwerty/github/datacon2025hack/step_04_hit_selection/docking/ligands/lig_279.pdb
REMARK  10 active torsions:
REMARK  status: ('A' for Active; 'I' for Inactive)
REMARK    1  A    between atoms: C1_1  and  C2_2
REMARK    2  A    between atoms: C4_4  and  C5_5
REMARK    3  A    between atoms: C5_5  and  N1_6
REMARK    4  A    between atoms: N1_6  and  C6_7
REMARK    5  A    between atoms: C6_7  and  C7_8
REMARK    6  A    between atoms: C6_7  and  C8_9
REMARK    7  A    between atoms: C8_9  and  C9_10
REMARK    8  A    between atoms: C9_10  and  N2_11
REMARK    9  A    between atoms: C10_12  and  C11_14
REMARK   10  A    between atoms: N6_23  and  C17_24
REMARK                            x       y       z     vdW  Elec       q    Type
REMARK                         _______ _______ _______ _____ _____    ______ ____
ROOT
ATOM      1  C8  UNL     1      10.078   3.740  21.870  0.00  0.00    +0.037 C 
ENDROOT
BRANCH   1   2
ATOM      2  C6  UNL     1       8.658   4.034  21.357  0.00  0.00    +0.052 C 
ATOM      3  C7  UNL     1       7.746   4.425  22.532  0.00  0.00    +0.024 C 
BRANCH   2   4
ATOM      4  N1  UNL     1       8.717   5.109  20.342  0.00  0.00    -0.308 NA
ATOM      5  H7  UNL     1       8.484   4.757  19.382  0.00  0.00    +0.123 HD
BRANCH   4   6
ATOM      6  C5  UNL     1      10.004   5.819  20.317  0.00  0.00    +0.138 C 
BRANCH   6  10
ATOM      7  C1  UNL     1       8.374  10.413  21.652  0.00  0.00    +0.065 C 
ATOM      8  C2  UNL     1       9.117   9.282  21.013  0.00  0.00    +0.036 A 
ATOM      9  C3  UNL     1       8.824   7.942  21.154  0.00  0.00    +0.049 A 
ATOM     10  C4  UNL     1       9.822   7.304  20.438  0.00  0.00    +0.077 A 
ATOM     11  N5  UNL     1      10.673   8.210  19.916  0.00  0.00    -0.175 NA
ATOM     12  N6  UNL     1      10.238   9.408  20.271  0.00  0.00    -0.271 N 
ATOM     13  C17 UNL     1      10.905  10.652  19.904  0.00  0.00    +0.172 C 
ENDBRANCH   6  10
ENDBRANCH   4   6
ENDBRANCH   2   4
ENDBRANCH   1   2
BRANCH   1  14
ATOM     14  C9  UNL     1      10.281   2.246  22.161  0.00  0.00    +0.106 C 
BRANCH  14  15
ATOM     15  N2  UNL     1      11.489   1.748  21.503  0.00  0.00    -0.310 N 
ATOM     16  C10 UNL     1      12.712   1.571  22.229  0.00  0.00    +0.262 C 
ATOM     17  O1  UNL     1      12.716   1.674  23.487  0.00  0.00    -0.269 OA
ATOM     18  H16 UNL     1      11.451   1.478  20.495  0.00  0.00    +0.149 HD
BRANCH  16  19
ATOM     19  C11 UNL     1      13.970   1.243  21.534  0.00  0.00    +0.124 A 
ATOM     20  C12 UNL     1      14.308   1.599  20.234  0.00  0.00    +0.143 A 
ATOM     21  N3  UNL     1      15.435   0.946  19.856  0.00  0.00    -0.240 NA
ATOM     22  C13 UNL     1      15.772   0.259  20.966  0.00  0.00    +0.110 A 
ATOM     23  N4  UNL     1      14.935   0.417  21.971  0.00  0.00    -0.324 N 
ATOM     24  C14 UNL     1      15.016  -0.643  22.949  0.00  0.00    +0.124 C 
ATOM     25  C15 UNL     1      16.187  -1.521  22.439  0.00  0.00    +0.029 C 
ATOM     26  C16 UNL     1      16.649  -0.919  21.087  0.00  0.00    +0.076 C 
ENDBRANCH  16  19
ENDBRANCH  14  15
ENDBRANCH   1  14
TORSDOF 7
ENDMDL
MODEL 9
REMARK VINA RESULT:    -5.637     17.032     19.846
REMARK INTER + INTRA:          -8.492
REMARK INTER:                  -7.851
REMARK INTRA:                  -0.642
REMARK UNBOUND:                -0.548
REMARK  Name = /home/qwerty/github/datacon2025hack/step_04_hit_selection/docking/ligands/lig_279.pdb
REMARK  10 active torsions:
REMARK  status: ('A' for Active; 'I' for Inactive)
REMARK    1  A    between atoms: C1_1  and  C2_2
REMARK    2  A    between atoms: C4_4  and  C5_5
REMARK    3  A    between atoms: C5_5  and  N1_6
REMARK    4  A    between atoms: N1_6  and  C6_7
REMARK    5  A    between atoms: C6_7  and  C7_8
REMARK    6  A    between atoms: C6_7  and  C8_9
REMARK    7  A    between atoms: C8_9  and  C9_10
REMARK    8  A    between atoms: C9_10  and  N2_11
REMARK    9  A    between atoms: C10_12  and  C11_14
REMARK   10  A    between atoms: N6_23  and  C17_24
REMARK                            x       y       z     vdW  Elec       q    Type
REMARK                         _______ _______ _______ _____ _____    ______ ____
ROOT
ATOM      1  C8  UNL     1      18.282  11.006  36.807  0.00  0.00    +0.037 C 
ENDROOT
BRANCH   1   2
ATOM      2  C6  UNL     1      16.774  11.306  36.744  0.00  0.00    +0.052 C 
ATOM      3  C7  UNL     1      15.975  10.078  37.213  0.00  0.00    +0.024 C 
BRANCH   2   4
ATOM      4  N1  UNL     1      16.475  12.491  37.578  0.00  0.00    -0.308 NA
ATOM      5  H7  UNL     1      15.713  12.302  38.273  0.00  0.00    +0.123 HD
BRANCH   4   6
ATOM      6  C5  UNL     1      16.151  13.691  36.793  0.00  0.00    +0.138 C 
BRANCH   6  10
ATOM      7  C1  UNL     1      11.207  13.211  35.860  0.00  0.00    +0.065 C 
ATOM      8  C2  UNL     1      12.688  13.359  35.713  0.00  0.00    +0.036 A 
ATOM      9  C3  UNL     1      13.610  13.315  36.738  0.00  0.00    +0.049 A 
ATOM     10  C4  UNL     1      14.819  13.568  36.113  0.00  0.00    +0.077 A 
ATOM     11  N5  UNL     1      14.628  13.771  34.794  0.00  0.00    -0.175 NA
ATOM     12  N6  UNL     1      13.332  13.643  34.560  0.00  0.00    -0.271 N 
ATOM     13  C17 UNL     1      12.728  13.804  33.242  0.00  0.00    +0.172 C 
ENDBRANCH   6  10
ENDBRANCH   4   6
ENDBRANCH   2   4
ENDBRANCH   1   2
BRANCH   1  14
ATOM     14  C9  UNL     1      18.620  10.015  37.930  0.00  0.00    +0.106 C 
BRANCH  14  15
ATOM     15  N2  UNL     1      19.898   9.354  37.672  0.00  0.00    -0.310 N 
ATOM     16  C10 UNL     1      19.953   8.027  37.130  0.00  0.00    +0.262 C 
ATOM     17  O1  UNL     1      18.900   7.481  36.702  0.00  0.00    -0.269 OA
ATOM     18  H16 UNL     1      20.789   9.869  37.848  0.00  0.00    +0.149 HD
BRANCH  16  19
ATOM     19  C11 UNL     1      21.229   7.294  37.040  0.00  0.00    +0.124 A 
ATOM     20  C12 UNL     1      22.125   7.071  38.079  0.00  0.00    +0.143 A 
ATOM     21  N3  UNL     1      23.281   6.559  37.587  0.00  0.00    -0.240 NA
ATOM     22  C13 UNL     1      23.020   6.437  36.270  0.00  0.00    +0.110 A 
ATOM     23  N4  UNL     1      21.822   6.855  35.918  0.00  0.00    -0.324 N 
ATOM     24  C14 UNL     1      21.721   7.167  34.510  0.00  0.00    +0.124 C 
ATOM     25  C15 UNL     1      23.107   6.764  33.947  0.00  0.00    +0.029 C 
ATOM     26  C16 UNL     1      23.974   6.317  35.152  0.00  0.00    +0.076 C 
ENDBRANCH  16  19
ENDBRANCH  14  15
ENDBRANCH   1  14
TORSDOF 7
ENDMDL
