MODEL 1
REMARK VINA RESULT:    -5.805      0.000      0.000
REMARK INTER + INTRA:          -6.879
REMARK INTER:                  -6.484
REMARK INTRA:                  -0.395
REMARK UNBOUND:                -0.395
REMARK  Name = /home/qwerty/github/datacon2025hack/step_04_hit_selection/docking/ligands/lig_505.pdb
REMARK  4 active torsions:
REMARK  status: ('A' for Active; 'I' for Inactive)
REMARK    1  A    between atoms: C1_1  and  O1_2
REMARK    2  A    between atoms: O1_2  and  C2_3
REMARK    3  A    between atoms: C8_10  and  C9_11
REMARK    4  A    between atoms: N5_20  and  C15_21
REMARK                            x       y       z     vdW  Elec       q    Type
REMARK                         _______ _______ _______ _____ _____    ______ ____
ROOT
ATOM      1  C2  UNL     1      21.906   5.268  23.714  0.00  0.00    +0.122 A 
ATOM      2  C3  UNL     1      21.038   4.378  23.037  0.00  0.00    +0.048 A 
ATOM      3  C4  UNL     1      20.584   3.201  23.656  0.00  0.00    +0.031 A 
ATOM      4  C5  UNL     1      21.017   2.943  24.958  0.00  0.00    +0.069 A 
ATOM      5  C6  UNL     1      21.855   3.792  25.616  0.00  0.00    +0.093 A 
ATOM      6  C7  UNL     1      22.325   4.967  25.034  0.00  0.00    +0.075 A 
ATOM      7  N1  UNL     1      22.138   3.320  26.843  0.00  0.00    -0.227 NA
ATOM      8  C8  UNL     1      21.442   2.155  26.898  0.00  0.00    +0.144 A 
ATOM      9  N5  UNL     1      20.728   1.904  25.763  0.00  0.00    -0.327 N 
ATOM     10  C15 UNL     1      19.845   0.775  25.468  0.00  0.00    +0.151 C 
ENDROOT
BRANCH   8  11
ATOM     11  C9  UNL     1      21.494   1.272  28.082  0.00  0.00    +0.048 A 
ATOM     12  C10 UNL     1      22.520   0.391  28.449  0.00  0.00    +0.125 A 
ATOM     13  N2  UNL     1      22.280  -0.221  29.639  0.00  0.00    -0.237 NA
ATOM     14  C11 UNL     1      21.097   0.275  30.037  0.00  0.00    +0.141 A 
ATOM     15  N3  UNL     1      20.436  -0.028  31.178  0.00  0.00    -0.330 N 
ATOM     16  C12 UNL     1      19.240   0.590  31.418  0.00  0.00    +0.197 A 
ATOM     17  N4  UNL     1      18.723   1.497  30.527  0.00  0.00    -0.245 NA
ATOM     18  C13 UNL     1      19.364   1.829  29.367  0.00  0.00    +0.124 A 
ATOM     19  C14 UNL     1      20.578   1.215  29.106  0.00  0.00    +0.047 A 
ATOM     20  H8  UNL     1      20.828  -0.717  31.858  0.00  0.00    +0.168 HD
ENDBRANCH   8  11
BRANCH   1  22
ATOM     21  C1  UNL     1      22.673   6.473  21.664  0.00  0.00    +0.277 C 
ATOM     22  O1  UNL     1      22.323   6.426  23.044  0.00  0.00    -0.495 OA
ENDBRANCH   1  22
TORSDOF 2
ENDMDL
MODEL 2
REMARK VINA RESULT:    -5.724      7.894      9.821
REMARK INTER + INTRA:          -6.788
REMARK INTER:                  -6.471
REMARK INTRA:                  -0.316
REMARK UNBOUND:                -0.395
REMARK  Name = /home/qwerty/github/datacon2025hack/step_04_hit_selection/docking/ligands/lig_505.pdb
REMARK  4 active torsions:
REMARK  status: ('A' for Active; 'I' for Inactive)
REMARK    1  A    between atoms: C1_1  and  O1_2
REMARK    2  A    between atoms: O1_2  and  C2_3
REMARK    3  A    between atoms: C8_10  and  C9_11
REMARK    4  A    between atoms: N5_20  and  C15_21
REMARK                            x       y       z     vdW  Elec       q    Type
REMARK                         _______ _______ _______ _____ _____    ______ ____
ROOT
ATOM      1  C2  UNL     1      11.108   4.420  20.465  0.00  0.00    +0.122 A 
ATOM      2  C3  UNL     1      12.131   5.270  19.982  0.00  0.00    +0.048 A 
ATOM      3  C4  UNL     1      13.451   4.805  19.842  0.00  0.00    +0.031 A 
ATOM      4  C5  UNL     1      13.713   3.479  20.193  0.00  0.00    +0.069 A 
ATOM      5  C6  UNL     1      12.734   2.655  20.662  0.00  0.00    +0.093 A 
ATOM      6  C7  UNL     1      11.417   3.082  20.814  0.00  0.00    +0.075 A 
ATOM      7  N1  UNL     1      13.236   1.439  20.943  0.00  0.00    -0.227 NA
ATOM      8  C8  UNL     1      14.552   1.563  20.629  0.00  0.00    +0.144 A 
ATOM      9  N5  UNL     1      14.872   2.799  20.148  0.00  0.00    -0.327 N 
ATOM     10  C15 UNL     1      16.169   3.290  19.683  0.00  0.00    +0.151 C 
ENDROOT
BRANCH   8  11
ATOM     11  C9  UNL     1      15.505   0.451  20.821  0.00  0.00    +0.048 A 
ATOM     12  C10 UNL     1      16.191  -0.269  19.835  0.00  0.00    +0.125 A 
ATOM     13  N2  UNL     1      17.048  -1.185  20.359  0.00  0.00    -0.237 NA
ATOM     14  C11 UNL     1      16.914  -1.045  21.688  0.00  0.00    +0.141 A 
ATOM     15  N3  UNL     1      17.573  -1.739  22.644  0.00  0.00    -0.330 N 
ATOM     16  C12 UNL     1      17.308  -1.449  23.954  0.00  0.00    +0.197 A 
ATOM     17  N4  UNL     1      16.400  -0.476  24.292  0.00  0.00    -0.245 NA
ATOM     18  C13 UNL     1      15.720   0.246  23.353  0.00  0.00    +0.124 A 
ATOM     19  C14 UNL     1      15.974  -0.032  22.020  0.00  0.00    +0.047 A 
ATOM     20  H8  UNL     1      18.264  -2.479  22.390  0.00  0.00    +0.168 HD
ENDBRANCH   8  11
BRANCH   1  22
ATOM     21  C1  UNL     1       8.790   4.376  21.396  0.00  0.00    +0.277 C 
ATOM     22  O1  UNL     1       9.812   4.941  20.582  0.00  0.00    -0.495 OA
ENDBRANCH   1  22
TORSDOF 2
ENDMDL
MODEL 3
REMARK VINA RESULT:    -5.514     14.327     16.223
REMARK INTER + INTRA:          -6.553
REMARK INTER:                  -6.157
REMARK INTRA:                  -0.396
REMARK UNBOUND:                -0.395
REMARK  Name = /home/qwerty/github/datacon2025hack/step_04_hit_selection/docking/ligands/lig_505.pdb
REMARK  4 active torsions:
REMARK  status: ('A' for Active; 'I' for Inactive)
REMARK    1  A    between atoms: C1_1  and  O1_2
REMARK    2  A    between atoms: O1_2  and  C2_3
REMARK    3  A    between atoms: C8_10  and  C9_11
REMARK    4  A    between atoms: N5_20  and  C15_21
REMARK                            x       y       z     vdW  Elec       q    Type
REMARK                         _______ _______ _______ _____ _____    ______ ____
ROOT
ATOM      1  C2  UNL     1       6.794   6.532  29.663  0.00  0.00    +0.122 A 
ATOM      2  C3  UNL     1       6.755   6.276  28.272  0.00  0.00    +0.048 A 
ATOM      3  C4  UNL     1       7.132   7.264  27.344  0.00  0.00    +0.031 A 
ATOM      4  C5  UNL     1       7.544   8.500  27.844  0.00  0.00    +0.069 A 
ATOM      5  C6  UNL     1       7.580   8.758  29.182  0.00  0.00    +0.093 A 
ATOM      6  C7  UNL     1       7.215   7.803  30.128  0.00  0.00    +0.075 A 
ATOM      7  N1  UNL     1       7.994  10.016  29.410  0.00  0.00    -0.227 NA
ATOM      8  C8  UNL     1       8.203  10.508  28.161  0.00  0.00    +0.144 A 
ATOM      9  N5  UNL     1       7.952   9.596  27.178  0.00  0.00    -0.327 N 
ATOM     10  C15 UNL     1       8.093   9.750  25.730  0.00  0.00    +0.151 C 
ENDROOT
BRANCH   8  11
ATOM     11  C9  UNL     1       8.640  11.901  27.937  0.00  0.00    +0.048 A 
ATOM     12  C10 UNL     1       7.854  13.061  27.958  0.00  0.00    +0.125 A 
ATOM     13  N2  UNL     1       8.588  14.191  27.781  0.00  0.00    -0.237 NA
ATOM     14  C11 UNL     1       9.851  13.753  27.651  0.00  0.00    +0.141 A 
ATOM     15  N3  UNL     1      10.954  14.512  27.461  0.00  0.00    -0.330 N 
ATOM     16  C12 UNL     1      12.164  13.883  27.361  0.00  0.00    +0.197 A 
ATOM     17  N4  UNL     1      12.259  12.517  27.452  0.00  0.00    -0.245 NA
ATOM     18  C13 UNL     1      11.167  11.720  27.647  0.00  0.00    +0.124 A 
ATOM     19  C14 UNL     1       9.932  12.338  27.753  0.00  0.00    +0.047 A 
ATOM     20  H8  UNL     1      10.885  15.552  27.392  0.00  0.00    +0.168 HD
ENDBRANCH   8  11
BRANCH   1  22
ATOM     21  C1  UNL     1       6.726   4.131  30.351  0.00  0.00    +0.277 C 
ATOM     22  O1  UNL     1       6.409   5.507  30.537  0.00  0.00    -0.495 OA
ENDBRANCH   1  22
TORSDOF 2
ENDMDL
MODEL 4
REMARK VINA RESULT:    -5.487     10.375     12.621
REMARK INTER + INTRA:          -6.524
REMARK INTER:                  -6.190
REMARK INTRA:                  -0.334
REMARK UNBOUND:                -0.395
REMARK  Name = /home/qwerty/github/datacon2025hack/step_04_hit_selection/docking/ligands/lig_505.pdb
REMARK  4 active torsions:
REMARK  status: ('A' for Active; 'I' for Inactive)
REMARK    1  A    between atoms: C1_1  and  O1_2
REMARK    2  A    between atoms: O1_2  and  C2_3
REMARK    3  A    between atoms: C8_10  and  C9_11
REMARK    4  A    between atoms: N5_20  and  C15_21
REMARK                            x       y       z     vdW  Elec       q    Type
REMARK                         _______ _______ _______ _____ _____    ______ ____
ROOT
ATOM      1  C2  UNL     1      16.824  11.234  37.184  0.00  0.00    +0.122 A 
ATOM      2  C3  UNL     1      16.142  10.047  37.541  0.00  0.00    +0.048 A 
ATOM      3  C4  UNL     1      16.829   8.825  37.651  0.00  0.00    +0.031 A 
ATOM      4  C5  UNL     1      18.202   8.826  37.397  0.00  0.00    +0.069 A 
ATOM      5  C6  UNL     1      18.865   9.964  37.048  0.00  0.00    +0.093 A 
ATOM      6  C7  UNL     1      18.217  11.191  36.930  0.00  0.00    +0.075 A 
ATOM      7  N1  UNL     1      20.169   9.706  36.843  0.00  0.00    -0.227 NA
ATOM      8  C8  UNL     1      20.265   8.371  37.077  0.00  0.00    +0.144 A 
ATOM      9  N5  UNL     1      19.077   7.805  37.437  0.00  0.00    -0.327 N 
ATOM     10  C15 UNL     1      18.798   6.414  37.793  0.00  0.00    +0.151 C 
ENDROOT
BRANCH   8  11
ATOM     11  C9  UNL     1      21.542   7.646  36.928  0.00  0.00    +0.048 A 
ATOM     12  C10 UNL     1      22.329   7.078  37.940  0.00  0.00    +0.125 A 
ATOM     13  N2  UNL     1      23.413   6.420  37.450  0.00  0.00    -0.237 NA
ATOM     14  C11 UNL     1      23.316   6.562  36.118  0.00  0.00    +0.141 A 
ATOM     15  N3  UNL     1      24.167   6.069  35.189  0.00  0.00    -0.330 N 
ATOM     16  C12 UNL     1      23.897   6.310  33.870  0.00  0.00    +0.197 A 
ATOM     17  N4  UNL     1      22.790   7.032  33.497  0.00  0.00    -0.245 NA
ATOM     18  C13 UNL     1      21.909   7.541  34.407  0.00  0.00    +0.124 A 
ATOM     19  C14 UNL     1      22.164   7.306  35.748  0.00  0.00    +0.047 A 
ATOM     20  H8  UNL     1      25.009   5.519  35.470  0.00  0.00    +0.168 HD
ENDBRANCH   8  11
BRANCH   1  22
ATOM     21  C1  UNL     1      14.687  12.478  36.821  0.00  0.00    +0.277 C 
ATOM     22  O1  UNL     1      16.084  12.422  37.092  0.00  0.00    -0.495 OA
ENDBRANCH   1  22
TORSDOF 2
ENDMDL
MODEL 5
REMARK VINA RESULT:    -5.478     11.748     13.611
REMARK INTER + INTRA:          -6.513
REMARK INTER:                  -6.124
REMARK INTRA:                  -0.389
REMARK UNBOUND:                -0.395
REMARK  Name = /home/qwerty/github/datacon2025hack/step_04_hit_selection/docking/ligands/lig_505.pdb
REMARK  4 active torsions:
REMARK  status: ('A' for Active; 'I' for Inactive)
REMARK    1  A    between atoms: C1_1  and  O1_2
REMARK    2  A    between atoms: O1_2  and  C2_3
REMARK    3  A    between atoms: C8_10  and  C9_11
REMARK    4  A    between atoms: N5_20  and  C15_21
REMARK                            x       y       z     vdW  Elec       q    Type
REMARK                         _______ _______ _______ _____ _____    ______ ____
ROOT
ATOM      1  C2  UNL     1      22.079  15.082  27.554  0.00  0.00    +0.122 A 
ATOM      2  C3  UNL     1      23.265  14.419  27.159  0.00  0.00    +0.048 A 
ATOM      3  C4  UNL     1      23.462  14.026  25.823  0.00  0.00    +0.031 A 
ATOM      4  C5  UNL     1      22.450  14.313  24.906  0.00  0.00    +0.069 A 
ATOM      5  C6  UNL     1      21.303  14.947  25.279  0.00  0.00    +0.093 A 
ATOM      6  C7  UNL     1      21.074  15.351  26.592  0.00  0.00    +0.075 A 
ATOM      7  N1  UNL     1      20.481  15.096  24.225  0.00  0.00    -0.227 NA
ATOM      8  C8  UNL     1      21.174  14.525  23.205  0.00  0.00    +0.144 A 
ATOM      9  N5  UNL     1      22.395  14.051  23.587  0.00  0.00    -0.327 N 
ATOM     10  C15 UNL     1      23.423  13.408  22.769  0.00  0.00    +0.151 C 
ENDROOT
BRANCH   8  11
ATOM     11  C9  UNL     1      20.615  14.434  21.841  0.00  0.00    +0.048 A 
ATOM     12  C10 UNL     1      20.809  15.321  20.774  0.00  0.00    +0.125 A 
ATOM     13  N2  UNL     1      20.205  14.902  19.631  0.00  0.00    -0.237 NA
ATOM     14  C11 UNL     1      19.627  13.738  19.966  0.00  0.00    +0.141 A 
ATOM     15  N3  UNL     1      18.907  12.929  19.154  0.00  0.00    -0.330 N 
ATOM     16  C12 UNL     1      18.401  11.771  19.676  0.00  0.00    +0.197 A 
ATOM     17  N4  UNL     1      18.619  11.434  20.989  0.00  0.00    -0.245 NA
ATOM     18  C13 UNL     1      19.343  12.224  21.836  0.00  0.00    +0.124 A 
ATOM     19  C14 UNL     1      19.865  13.402  21.326  0.00  0.00    +0.047 A 
ATOM     20  H8  UNL     1      18.741  13.183  18.155  0.00  0.00    +0.168 HD
ENDBRANCH   8  11
BRANCH   1  22
ATOM     21  C1  UNL     1      22.051  14.545  29.995  0.00  0.00    +0.277 C 
ATOM     22  O1  UNL     1      21.942  15.450  28.900  0.00  0.00    -0.495 OA
ENDBRANCH   1  22
TORSDOF 2
ENDMDL
MODEL 6
REMARK VINA RESULT:    -5.452      6.737      8.321
REMARK INTER + INTRA:          -6.484
REMARK INTER:                  -6.110
REMARK INTRA:                  -0.374
REMARK UNBOUND:                -0.395
REMARK  Name = /home/qwerty/github/datacon2025hack/step_04_hit_selection/docking/ligands/lig_505.pdb
REMARK  4 active torsions:
REMARK  status: ('A' for Active; 'I' for Inactive)
REMARK    1  A    between atoms: C1_1  and  O1_2
REMARK    2  A    between atoms: O1_2  and  C2_3
REMARK    3  A    between atoms: C8_10  and  C9_11
REMARK    4  A    between atoms: N5_20  and  C15_21
REMARK                            x       y       z     vdW  Elec       q    Type
REMARK                         _______ _______ _______ _____ _____    ______ ____
ROOT
ATOM      1  C2  UNL     1      21.512   2.408  30.290  0.00  0.00    +0.122 A 
ATOM      2  C3  UNL     1      21.345   3.625  29.587  0.00  0.00    +0.048 A 
ATOM      3  C4  UNL     1      21.464   4.862  30.245  0.00  0.00    +0.031 A 
ATOM      4  C5  UNL     1      21.753   4.845  31.611  0.00  0.00    +0.069 A 
ATOM      5  C6  UNL     1      21.911   3.678  32.297  0.00  0.00    +0.093 A 
ATOM      6  C7  UNL     1      21.800   2.436  31.677  0.00  0.00    +0.075 A 
ATOM      7  N1  UNL     1      22.167   3.923  33.594  0.00  0.00    -0.227 NA
ATOM      8  C8  UNL     1      22.153   5.280  33.664  0.00  0.00    +0.144 A 
ATOM      9  N5  UNL     1      21.920   5.876  32.459  0.00  0.00    -0.327 N 
ATOM     10  C15 UNL     1      21.864   7.303  32.141  0.00  0.00    +0.151 C 
ENDROOT
BRANCH   8  11
ATOM     11  C9  UNL     1      22.359   5.995  34.941  0.00  0.00    +0.048 A 
ATOM     12  C10 UNL     1      23.568   6.222  35.611  0.00  0.00    +0.125 A 
ATOM     13  N2  UNL     1      23.410   6.977  36.730  0.00  0.00    -0.237 NA
ATOM     14  C11 UNL     1      22.093   7.239  36.773  0.00  0.00    +0.141 A 
ATOM     15  N3  UNL     1      21.445   7.970  37.708  0.00  0.00    -0.330 N 
ATOM     16  C12 UNL     1      20.093   8.136  37.579  0.00  0.00    +0.197 A 
ATOM     17  N4  UNL     1      19.411   7.578  36.527  0.00  0.00    -0.245 NA
ATOM     18  C13 UNL     1      20.034   6.837  35.563  0.00  0.00    +0.124 A 
ATOM     19  C14 UNL     1      21.403   6.658  35.675  0.00  0.00    +0.047 A 
ATOM     20  H8  UNL     1      21.962   8.396  38.510  0.00  0.00    +0.168 HD
ENDBRANCH   8  11
BRANCH   1  22
ATOM     21  C1  UNL     1      21.767   1.036  28.218  0.00  0.00    +0.277 C 
ATOM     22  O1  UNL     1      21.383   1.207  29.578  0.00  0.00    -0.495 OA
ENDBRANCH   1  22
TORSDOF 2
ENDMDL
MODEL 7
REMARK VINA RESULT:    -5.435     13.737     14.908
REMARK INTER + INTRA:          -6.465
REMARK INTER:                  -6.071
REMARK INTRA:                  -0.394
REMARK UNBOUND:                -0.395
REMARK  Name = /home/qwerty/github/datacon2025hack/step_04_hit_selection/docking/ligands/lig_505.pdb
REMARK  4 active torsions:
REMARK  status: ('A' for Active; 'I' for Inactive)
REMARK    1  A    between atoms: C1_1  and  O1_2
REMARK    2  A    between atoms: O1_2  and  C2_3
REMARK    3  A    between atoms: C8_10  and  C9_11
REMARK    4  A    between atoms: N5_20  and  C15_21
REMARK                            x       y       z     vdW  Elec       q    Type
REMARK                         _______ _______ _______ _____ _____    ______ ____
ROOT
ATOM      1  C2  UNL     1      11.881   4.256  37.832  0.00  0.00    +0.122 A 
ATOM      2  C3  UNL     1      10.535   4.315  38.265  0.00  0.00    +0.048 A 
ATOM      3  C4  UNL     1       9.620   3.305  37.919  0.00  0.00    +0.031 A 
ATOM      4  C5  UNL     1      10.087   2.246  37.137  0.00  0.00    +0.069 A 
ATOM      5  C6  UNL     1      11.380   2.184  36.713  0.00  0.00    +0.093 A 
ATOM      6  C7  UNL     1      12.313   3.166  37.037  0.00  0.00    +0.075 A 
ATOM      7  N1  UNL     1      11.580   1.083  35.967  0.00  0.00    -0.227 NA
ATOM      8  C8  UNL     1      10.358   0.487  35.956  0.00  0.00    +0.144 A 
ATOM      9  N5  UNL     1       9.425   1.168  36.681  0.00  0.00    -0.327 N 
ATOM     10  C15 UNL     1       8.024   0.822  36.922  0.00  0.00    +0.151 C 
ENDROOT
BRANCH   8  11
ATOM     11  C9  UNL     1      10.109  -0.761  35.207  0.00  0.00    +0.048 A 
ATOM     12  C10 UNL     1      10.174  -2.076  35.687  0.00  0.00    +0.125 A 
ATOM     13  N2  UNL     1       9.817  -2.992  34.748  0.00  0.00    -0.237 NA
ATOM     14  C11 UNL     1       9.517  -2.259  33.663  0.00  0.00    +0.141 A 
ATOM     15  N3  UNL     1       9.098  -2.724  32.464  0.00  0.00    -0.330 N 
ATOM     16  C12 UNL     1       8.831  -1.818  31.475  0.00  0.00    +0.197 A 
ATOM     17  N4  UNL     1       8.981  -0.471  31.692  0.00  0.00    -0.245 NA
ATOM     18  C13 UNL     1       9.399   0.034  32.891  0.00  0.00    +0.124 A 
ATOM     19  C14 UNL     1       9.674  -0.868  33.906  0.00  0.00    +0.047 A 
ATOM     20  H8  UNL     1       8.982  -3.748  32.296  0.00  0.00    +0.168 HD
ENDBRANCH   8  11
BRANCH   1  22
ATOM     21  C1  UNL     1      14.165   5.179  38.255  0.00  0.00    +0.277 C 
ATOM     22  O1  UNL     1      12.746   5.293  38.211  0.00  0.00    -0.495 OA
ENDBRANCH   1  22
TORSDOF 2
ENDMDL
MODEL 8
REMARK VINA RESULT:    -5.429      3.191      7.465
REMARK INTER + INTRA:          -6.458
REMARK INTER:                  -6.063
REMARK INTRA:                  -0.395
REMARK UNBOUND:                -0.395
REMARK  Name = /home/qwerty/github/datacon2025hack/step_04_hit_selection/docking/ligands/lig_505.pdb
REMARK  4 active torsions:
REMARK  status: ('A' for Active; 'I' for Inactive)
REMARK    1  A    between atoms: C1_1  and  O1_2
REMARK    2  A    between atoms: O1_2  and  C2_3
REMARK    3  A    between atoms: C8_10  and  C9_11
REMARK    4  A    between atoms: N5_20  and  C15_21
REMARK                            x       y       z     vdW  Elec       q    Type
REMARK                         _______ _______ _______ _____ _____    ______ ____
ROOT
ATOM      1  C2  UNL     1      18.418   1.197  32.737  0.00  0.00    +0.122 A 
ATOM      2  C3  UNL     1      19.633   0.503  32.949  0.00  0.00    +0.048 A 
ATOM      3  C4  UNL     1      20.541   0.298  31.894  0.00  0.00    +0.031 A 
ATOM      4  C5  UNL     1      20.201   0.801  30.638  0.00  0.00    +0.069 A 
ATOM      5  C6  UNL     1      19.031   1.466  30.424  0.00  0.00    +0.093 A 
ATOM      6  C7  UNL     1      18.109   1.688  31.444  0.00  0.00    +0.075 A 
ATOM      7  N1  UNL     1      18.927   1.837  29.136  0.00  0.00    -0.227 NA
ATOM      8  C8  UNL     1      20.076   1.368  28.581  0.00  0.00    +0.144 A 
ATOM      9  N5  UNL     1      20.887   0.743  29.482  0.00  0.00    -0.327 N 
ATOM     10  C15 UNL     1      22.204   0.145  29.264  0.00  0.00    +0.151 C 
ENDROOT
BRANCH   8  11
ATOM     11  C9  UNL     1      20.366   1.528  27.142  0.00  0.00    +0.048 A 
ATOM     12  C10 UNL     1      19.855   0.776  26.076  0.00  0.00    +0.125 A 
ATOM     13  N2  UNL     1      20.276   1.234  24.867  0.00  0.00    -0.237 NA
ATOM     14  C11 UNL     1      21.055   2.287  25.161  0.00  0.00    +0.141 A 
ATOM     15  N3  UNL     1      21.703   3.083  24.280  0.00  0.00    -0.330 N 
ATOM     16  C12 UNL     1      22.448   4.120  24.770  0.00  0.00    +0.197 A 
ATOM     17  N4  UNL     1      22.535   4.350  26.121  0.00  0.00    -0.245 NA
ATOM     18  C13 UNL     1      21.892   3.568  27.038  0.00  0.00    +0.124 A 
ATOM     19  C14 UNL     1      21.131   2.513  26.561  0.00  0.00    +0.047 A 
ATOM     20  H8  UNL     1      21.638   2.911  23.252  0.00  0.00    +0.168 HD
ENDBRANCH   8  11
BRANCH   1  22
ATOM     21  C1  UNL     1      17.234   0.351  34.769  0.00  0.00    +0.277 C 
ATOM     22  O1  UNL     1      17.555   1.371  33.828  0.00  0.00    -0.495 OA
ENDBRANCH   1  22
TORSDOF 2
ENDMDL
MODEL 9
REMARK VINA RESULT:    -5.371      2.038      2.935
REMARK INTER + INTRA:          -6.394
REMARK INTER:                  -5.999
REMARK INTRA:                  -0.394
REMARK UNBOUND:                -0.395
REMARK  Name = /home/qwerty/github/datacon2025hack/step_04_hit_selection/docking/ligands/lig_505.pdb
REMARK  4 active torsions:
REMARK  status: ('A' for Active; 'I' for Inactive)
REMARK    1  A    between atoms: C1_1  and  O1_2
REMARK    2  A    between atoms: O1_2  and  C2_3
REMARK    3  A    between atoms: C8_10  and  C9_11
REMARK    4  A    between atoms: N5_20  and  C15_21
REMARK                            x       y       z     vdW  Elec       q    Type
REMARK                         _______ _______ _______ _____ _____    ______ ____
ROOT
ATOM      1  C2  UNL     1      21.579   4.980  25.527  0.00  0.00    +0.122 A 
ATOM      2  C3  UNL     1      22.415   3.866  25.279  0.00  0.00    +0.048 A 
ATOM      3  C4  UNL     1      22.674   2.918  26.285  0.00  0.00    +0.031 A 
ATOM      4  C5  UNL     1      22.078   3.116  27.532  0.00  0.00    +0.069 A 
ATOM      5  C6  UNL     1      21.275   4.188  27.781  0.00  0.00    +0.093 A 
ATOM      6  C7  UNL     1      20.997   5.145  26.808  0.00  0.00    +0.075 A 
ATOM      7  N1  UNL     1      20.836   4.164  29.052  0.00  0.00    -0.227 NA
ATOM      8  C8  UNL     1      21.407   3.040  29.559  0.00  0.00    +0.144 A 
ATOM      9  N5  UNL     1      22.161   2.364  28.645  0.00  0.00    -0.327 N 
ATOM     10  C15 UNL     1      22.894   1.110  28.813  0.00  0.00    +0.151 C 
ENDROOT
BRANCH   8  11
ATOM     11  C9  UNL     1      21.215   2.639  30.967  0.00  0.00    +0.048 A 
ATOM     12  C10 UNL     1      21.932   3.077  32.089  0.00  0.00    +0.125 A 
ATOM     13  N2  UNL     1      21.451   2.559  33.250  0.00  0.00    -0.237 NA
ATOM     14  C11 UNL     1      20.417   1.791  32.870  0.00  0.00    +0.141 A 
ATOM     15  N3  UNL     1      19.609   1.067  33.678  0.00  0.00    -0.330 N 
ATOM     16  C12 UNL     1      18.595   0.348  33.105  0.00  0.00    +0.197 A 
ATOM     17  N4  UNL     1      18.401   0.362  31.746  0.00  0.00    -0.245 NA
ATOM     18  C13 UNL     1      19.196   1.083  30.901  0.00  0.00    +0.124 A 
ATOM     19  C14 UNL     1      20.227   1.819  31.462  0.00  0.00    +0.047 A 
ATOM     20  H8  UNL     1      19.754   1.056  34.712  0.00  0.00    +0.168 HD
ENDBRANCH   8  11
BRANCH   1  22
ATOM     21  C1  UNL     1      21.312   5.534  23.105  0.00  0.00    +0.277 C 
ATOM     22  O1  UNL     1      21.358   5.889  24.483  0.00  0.00    -0.495 OA
ENDBRANCH   1  22
TORSDOF 2
ENDMDL
