MODEL 1
REMARK VINA RESULT:    -6.607      0.000      0.000
REMARK INTER + INTRA:          -8.815
REMARK INTER:                  -8.152
REMARK INTRA:                  -0.663
REMARK UNBOUND:                -0.663
REMARK  Name = /home/qwerty/github/datacon2025hack/step_04_hit_selection/docking/ligands/lig_504.pdb
REMARK  6 active torsions:
REMARK  status: ('A' for Active; 'I' for Inactive)
REMARK    1  A    between atoms: C1_1  and  C2_2
REMARK    2  A    between atoms: C2_2  and  C3_3
REMARK    3  A    between atoms: C2_2  and  C4_4
REMARK    4  A    between atoms: C5_6  and  C6_7
REMARK    5  A    between atoms: C9_12  and  C10_13
REMARK    6  A    between atoms: C14_19  and  C15_20
REMARK                            x       y       z     vdW  Elec       q    Type
REMARK                         _______ _______ _______ _____ _____    ______ ____
ROOT
ATOM      1  C6  UNL     1      11.535  14.151  33.194  0.00  0.00    +0.265 C 
ATOM      2  O1  UNL     1      10.541  14.678  33.766  0.00  0.00    -0.268 OA
ATOM      3  N2  UNL     1      12.562  13.529  33.986  0.00  0.00    -0.296 N 
ATOM      4  C7  UNL     1      12.969  12.145  33.714  0.00  0.00    +0.109 C 
ATOM      5  C8  UNL     1      14.477  11.995  33.922  0.00  0.00    +0.032 C 
ATOM      6  C9  UNL     1      14.882  12.496  35.321  0.00  0.00    +0.078 C 
ATOM      7  C19 UNL     1      14.436  13.958  35.517  0.00  0.00    +0.032 C 
ATOM      8  C20 UNL     1      12.929  14.109  35.283  0.00  0.00    +0.109 C 
ENDROOT
BRANCH   6   9
ATOM      9  C10 UNL     1      16.376  12.370  35.522  0.00  0.00    +0.219 C 
ATOM     10  O2  UNL     1      17.132  13.265  35.052  0.00  0.00    -0.275 OA
ATOM     11  N3  UNL     1      16.957  11.259  36.238  0.00  0.00    -0.301 N 
ATOM     12  C11 UNL     1      16.190  10.521  37.254  0.00  0.00    +0.108 C 
ATOM     13  C12 UNL     1      17.117   9.998  38.357  0.00  0.00    +0.020 C 
ATOM     14  C13 UNL     1      18.274   9.136  37.812  0.00  0.00    +0.014 C 
ATOM     15  C14 UNL     1      18.600   9.409  36.327  0.00  0.00    +0.072 C 
ATOM     16  C18 UNL     1      18.349  10.880  35.952  0.00  0.00    +0.119 C 
BRANCH  15  17
ATOM     17  C15 UNL     1      20.011   8.999  36.007  0.00  0.00    +0.112 A 
ATOM     18  N4  UNL     1      20.430   8.666  34.766  0.00  0.00    -0.240 NA
ATOM     19  C16 UNL     1      21.745   8.415  34.920  0.00  0.00    +0.130 A 
ATOM     20  C17 UNL     1      22.099   8.609  36.237  0.00  0.00    +0.104 A 
ATOM     21  N5  UNL     1      21.005   8.982  36.916  0.00  0.00    -0.348 N 
ATOM     22  H22 UNL     1      20.944   9.215  37.933  0.00  0.00    +0.166 HD
ENDBRANCH  15  17
ENDBRANCH   6   9
BRANCH   1  25
ATOM     23  C4  UNL     1      10.973  13.887  29.602  0.00  0.00    +0.082 A 
ATOM     24  N1  UNL     1      10.658  13.755  30.909  0.00  0.00    -0.239 NA
ATOM     25  C5  UNL     1      11.648  14.213  31.725  0.00  0.00    +0.133 A 
ATOM     26  C21 UNL     1      12.768  14.716  31.066  0.00  0.00    +0.080 A 
ATOM     27  S1  UNL     1      12.491  14.594  29.412  0.00  0.00    -0.080 S 
BRANCH  23  29
ATOM     28  C1  UNL     1      10.681  12.494  27.558  0.00  0.00    +0.014 C 
ATOM     29  C2  UNL     1      10.030  13.519  28.490  0.00  0.00    +0.038 C 
ATOM     30  C3  UNL     1       8.701  12.994  29.044  0.00  0.00    +0.014 C 
ENDBRANCH  23  29
ENDBRANCH   1  25
TORSDOF 4
ENDMDL
MODEL 2
REMARK VINA RESULT:    -6.518     13.894     17.870
REMARK INTER + INTRA:          -8.705
REMARK INTER:                  -8.024
REMARK INTRA:                  -0.682
REMARK UNBOUND:                -0.663
REMARK  Name = /home/qwerty/github/datacon2025hack/step_04_hit_selection/docking/ligands/lig_504.pdb
REMARK  6 active torsions:
REMARK  status: ('A' for Active; 'I' for Inactive)
REMARK    1  A    between atoms: C1_1  and  C2_2
REMARK    2  A    between atoms: C2_2  and  C3_3
REMARK    3  A    between atoms: C2_2  and  C4_4
REMARK    4  A    between atoms: C5_6  and  C6_7
REMARK    5  A    between atoms: C9_12  and  C10_13
REMARK    6  A    between atoms: C14_19  and  C15_20
REMARK                            x       y       z     vdW  Elec       q    Type
REMARK                         _______ _______ _______ _____ _____    ______ ____
ROOT
ATOM      1  C6  UNL     1      18.191  -0.936  24.916  0.00  0.00    +0.265 C 
ATOM      2  O1  UNL     1      18.551  -2.120  25.162  0.00  0.00    -0.268 OA
ATOM      3  N2  UNL     1      16.871  -0.687  24.403  0.00  0.00    -0.296 N 
ATOM      4  C7  UNL     1      15.985   0.273  25.074  0.00  0.00    +0.109 C 
ATOM      5  C8  UNL     1      15.165   1.040  24.035  0.00  0.00    +0.032 C 
ATOM      6  C9  UNL     1      14.426   0.062  23.102  0.00  0.00    +0.078 C 
ATOM      7  C19 UNL     1      15.426  -0.894  22.425  0.00  0.00    +0.032 C 
ATOM      8  C20 UNL     1      16.264  -1.641  23.468  0.00  0.00    +0.109 C 
ENDROOT
BRANCH   6   9
ATOM      9  C10 UNL     1      13.631   0.817  22.059  0.00  0.00    +0.219 C 
ATOM     10  O2  UNL     1      14.149   1.019  20.926  0.00  0.00    -0.275 OA
ATOM     11  N3  UNL     1      12.300   1.308  22.324  0.00  0.00    -0.301 N 
ATOM     12  C11 UNL     1      11.438   0.671  23.333  0.00  0.00    +0.108 C 
ATOM     13  C12 UNL     1       9.963   0.776  22.930  0.00  0.00    +0.020 C 
ATOM     14  C13 UNL     1       9.515   2.228  22.666  0.00  0.00    +0.014 C 
ATOM     15  C14 UNL     1      10.680   3.180  22.319  0.00  0.00    +0.072 C 
ATOM     16  C18 UNL     1      11.797   2.454  21.551  0.00  0.00    +0.119 C 
BRANCH  15  17
ATOM     17  C15 UNL     1      10.182   4.376  21.553  0.00  0.00    +0.112 A 
ATOM     18  N4  UNL     1      10.987   5.197  20.842  0.00  0.00    -0.240 NA
ATOM     19  C16 UNL     1      10.140   6.089  20.292  0.00  0.00    +0.130 A 
ATOM     20  C17 UNL     1       8.849   5.790  20.666  0.00  0.00    +0.104 A 
ATOM     21  N5  UNL     1       8.880   4.707  21.455  0.00  0.00    -0.348 N 
ATOM     22  H22 UNL     1       8.065   4.223  21.894  0.00  0.00    +0.166 HD
ENDBRANCH  15  17
ENDBRANCH   6   9
BRANCH   1  25
ATOM     23  C4  UNL     1      20.552   1.469  26.304  0.00  0.00    +0.082 A 
ATOM     24  N1  UNL     1      19.735   0.394  26.327  0.00  0.00    -0.239 NA
ATOM     25  C5  UNL     1      19.142   0.172  25.122  0.00  0.00    +0.133 A 
ATOM     26  C21 UNL     1      19.486   1.080  24.122  0.00  0.00    +0.080 A 
ATOM     27  S1  UNL     1      20.580   2.177  24.775  0.00  0.00    -0.080 S 
BRANCH  23  29
ATOM     28  C1  UNL     1      21.893   0.672  28.245  0.00  0.00    +0.014 C 
ATOM     29  C2  UNL     1      21.380   1.897  27.485  0.00  0.00    +0.038 C 
ATOM     30  C3  UNL     1      22.539   2.800  27.049  0.00  0.00    +0.014 C 
ENDBRANCH  23  29
ENDBRANCH   1  25
TORSDOF 4
ENDMDL
MODEL 3
REMARK VINA RESULT:    -6.499      6.998      9.715
REMARK INTER + INTRA:          -8.682
REMARK INTER:                  -7.959
REMARK INTRA:                  -0.723
REMARK UNBOUND:                -0.663
REMARK  Name = /home/qwerty/github/datacon2025hack/step_04_hit_selection/docking/ligands/lig_504.pdb
REMARK  6 active torsions:
REMARK  status: ('A' for Active; 'I' for Inactive)
REMARK    1  A    between atoms: C1_1  and  C2_2
REMARK    2  A    between atoms: C2_2  and  C3_3
REMARK    3  A    between atoms: C2_2  and  C4_4
REMARK    4  A    between atoms: C5_6  and  C6_7
REMARK    5  A    between atoms: C9_12  and  C10_13
REMARK    6  A    between atoms: C14_19  and  C15_20
REMARK                            x       y       z     vdW  Elec       q    Type
REMARK                         _______ _______ _______ _____ _____    ______ ____
ROOT
ATOM      1  C6  UNL     1       7.925   9.056  26.278  0.00  0.00    +0.265 C 
ATOM      2  O1  UNL     1       6.952   8.483  26.840  0.00  0.00    -0.268 OA
ATOM      3  N2  UNL     1       8.754   9.954  27.035  0.00  0.00    -0.296 N 
ATOM      4  C7  UNL     1      10.210   9.766  27.069  0.00  0.00    +0.109 C 
ATOM      5  C8  UNL     1      10.912  11.125  27.073  0.00  0.00    +0.032 C 
ATOM      6  C9  UNL     1      10.374  12.007  28.216  0.00  0.00    +0.078 C 
ATOM      7  C19 UNL     1       8.847  12.170  28.095  0.00  0.00    +0.032 C 
ATOM      8  C20 UNL     1       8.150  10.806  28.065  0.00  0.00    +0.109 C 
ENDROOT
BRANCH   6   9
ATOM      9  C10 UNL     1      11.050  13.360  28.210  0.00  0.00    +0.219 C 
ATOM     10  O2  UNL     1      10.443  14.343  27.703  0.00  0.00    -0.275 OA
ATOM     11  N3  UNL     1      12.367  13.557  28.769  0.00  0.00    -0.301 N 
ATOM     12  C11 UNL     1      12.885  12.675  29.828  0.00  0.00    +0.108 C 
ATOM     13  C12 UNL     1      13.823  13.447  30.764  0.00  0.00    +0.020 C 
ATOM     14  C13 UNL     1      14.978  14.143  30.016  0.00  0.00    +0.014 C 
ATOM     15  C14 UNL     1      14.682  14.398  28.522  0.00  0.00    +0.072 C 
ATOM     16  C18 UNL     1      13.188  14.674  28.279  0.00  0.00    +0.119 C 
BRANCH  15  17
ATOM     17  C15 UNL     1      15.535  15.519  27.993  0.00  0.00    +0.112 A 
ATOM     18  N4  UNL     1      16.238  16.360  28.783  0.00  0.00    -0.240 NA
ATOM     19  C16 UNL     1      16.882  17.163  27.914  0.00  0.00    +0.130 A 
ATOM     20  C17 UNL     1      16.569  16.792  26.625  0.00  0.00    +0.104 A 
ATOM     21  N5  UNL     1      15.726  15.752  26.680  0.00  0.00    -0.348 N 
ATOM     22  H22 UNL     1      15.312  15.233  25.874  0.00  0.00    +0.166 HD
ENDBRANCH  15  17
ENDBRANCH   6   9
BRANCH   1  25
ATOM     23  C4  UNL     1       8.188   9.351  22.654  0.00  0.00    +0.082 A 
ATOM     24  N1  UNL     1       7.905   9.775  23.905  0.00  0.00    -0.239 NA
ATOM     25  C5  UNL     1       8.176   8.825  24.843  0.00  0.00    +0.133 A 
ATOM     26  C21 UNL     1       8.680   7.628  24.339  0.00  0.00    +0.080 A 
ATOM     27  S1  UNL     1       8.803   7.782  22.669  0.00  0.00    -0.080 S 
BRANCH  23  29
ATOM     28  C1  UNL     1       7.461  11.587  21.831  0.00  0.00    +0.014 C 
ATOM     29  C2  UNL     1       8.043  10.226  21.439  0.00  0.00    +0.038 C 
ATOM     30  C3  UNL     1       9.382  10.388  20.712  0.00  0.00    +0.014 C 
ENDBRANCH  23  29
ENDBRANCH   1  25
TORSDOF 4
ENDMDL
MODEL 4
REMARK VINA RESULT:    -6.450     10.635     14.478
REMARK INTER + INTRA:          -8.622
REMARK INTER:                  -7.877
REMARK INTRA:                  -0.745
REMARK UNBOUND:                -0.663
REMARK  Name = /home/qwerty/github/datacon2025hack/step_04_hit_selection/docking/ligands/lig_504.pdb
REMARK  6 active torsions:
REMARK  status: ('A' for Active; 'I' for Inactive)
REMARK    1  A    between atoms: C1_1  and  C2_2
REMARK    2  A    between atoms: C2_2  and  C3_3
REMARK    3  A    between atoms: C2_2  and  C4_4
REMARK    4  A    between atoms: C5_6  and  C6_7
REMARK    5  A    between atoms: C9_12  and  C10_13
REMARK    6  A    between atoms: C14_19  and  C15_20
REMARK                            x       y       z     vdW  Elec       q    Type
REMARK                         _______ _______ _______ _____ _____    ______ ____
ROOT
ATOM      1  C6  UNL     1      21.113   3.114  33.125  0.00  0.00    +0.265 C 
ATOM      2  O1  UNL     1      20.859   2.225  33.982  0.00  0.00    -0.268 OA
ATOM      3  N2  UNL     1      20.958   2.817  31.726  0.00  0.00    -0.296 N 
ATOM      4  C7  UNL     1      20.131   3.681  30.873  0.00  0.00    +0.109 C 
ATOM      5  C8  UNL     1      20.764   3.802  29.485  0.00  0.00    +0.032 C 
ATOM      6  C9  UNL     1      21.024   2.406  28.887  0.00  0.00    +0.078 C 
ATOM      7  C19 UNL     1      21.911   1.574  29.832  0.00  0.00    +0.032 C 
ATOM      8  C20 UNL     1      21.287   1.477  31.228  0.00  0.00    +0.109 C 
ENDROOT
BRANCH   6   9
ATOM      9  C10 UNL     1      21.669   2.522  27.523  0.00  0.00    +0.219 C 
ATOM     10  O2  UNL     1      22.929   2.498  27.441  0.00  0.00    -0.275 OA
ATOM     11  N3  UNL     1      20.886   2.656  26.319  0.00  0.00    -0.301 N 
ATOM     12  C11 UNL     1      19.506   2.148  26.245  0.00  0.00    +0.108 C 
ATOM     13  C12 UNL     1      19.177   1.680  24.823  0.00  0.00    +0.020 C 
ATOM     14  C13 UNL     1      19.416   2.773  23.761  0.00  0.00    +0.014 C 
ATOM     15  C14 UNL     1      20.410   3.865  24.211  0.00  0.00    +0.072 C 
ATOM     16  C18 UNL     1      21.494   3.296  25.142  0.00  0.00    +0.119 C 
BRANCH  15  17
ATOM     17  C15 UNL     1      21.021   4.553  23.021  0.00  0.00    +0.112 A 
ATOM     18  N4  UNL     1      20.635   4.325  21.746  0.00  0.00    -0.240 NA
ATOM     19  C16 UNL     1      21.396   5.167  21.019  0.00  0.00    +0.130 A 
ATOM     20  C17 UNL     1      22.214   5.890  21.858  0.00  0.00    +0.104 A 
ATOM     21  N5  UNL     1      21.970   5.505  23.119  0.00  0.00    -0.348 N 
ATOM     22  H22 UNL     1      22.418   5.871  23.988  0.00  0.00    +0.166 HD
ENDBRANCH  15  17
ENDBRANCH   6   9
BRANCH   1  25
ATOM     23  C4  UNL     1      23.094   6.108  33.754  0.00  0.00    +0.082 A 
ATOM     24  N1  UNL     1      22.840   4.889  33.231  0.00  0.00    -0.239 NA
ATOM     25  C5  UNL     1      21.601   4.433  33.566  0.00  0.00    +0.133 A 
ATOM     26  C21 UNL     1      20.855   5.295  34.367  0.00  0.00    +0.080 A 
ATOM     27  S1  UNL     1      21.778   6.673  34.642  0.00  0.00    -0.080 S 
BRANCH  23  29
ATOM     28  C1  UNL     1      25.493   5.902  33.119  0.00  0.00    +0.014 C 
ATOM     29  C2  UNL     1      24.364   6.869  33.485  0.00  0.00    +0.038 C 
ATOM     30  C3  UNL     1      24.158   7.917  32.387  0.00  0.00    +0.014 C 
ENDBRANCH  23  29
ENDBRANCH   1  25
TORSDOF 4
ENDMDL
MODEL 5
REMARK VINA RESULT:    -6.400     10.668     14.179
REMARK INTER + INTRA:          -8.560
REMARK INTER:                  -7.880
REMARK INTRA:                  -0.680
REMARK UNBOUND:                -0.663
REMARK  Name = /home/qwerty/github/datacon2025hack/step_04_hit_selection/docking/ligands/lig_504.pdb
REMARK  6 active torsions:
REMARK  status: ('A' for Active; 'I' for Inactive)
REMARK    1  A    between atoms: C1_1  and  C2_2
REMARK    2  A    between atoms: C2_2  and  C3_3
REMARK    3  A    between atoms: C2_2  and  C4_4
REMARK    4  A    between atoms: C5_6  and  C6_7
REMARK    5  A    between atoms: C9_12  and  C10_13
REMARK    6  A    between atoms: C14_19  and  C15_20
REMARK                            x       y       z     vdW  Elec       q    Type
REMARK                         _______ _______ _______ _____ _____    ______ ____
ROOT
ATOM      1  C6  UNL     1       7.864   9.690  23.822  0.00  0.00    +0.265 C 
ATOM      2  O1  UNL     1       7.187  10.557  23.205  0.00  0.00    -0.268 OA
ATOM      3  N2  UNL     1       8.595   8.698  23.079  0.00  0.00    -0.296 N 
ATOM      4  C7  UNL     1      10.030   8.503  23.319  0.00  0.00    +0.109 C 
ATOM      5  C8  UNL     1      10.380   7.018  23.213  0.00  0.00    +0.032 C 
ATOM      6  C9  UNL     1       9.892   6.444  21.869  0.00  0.00    +0.078 C 
ATOM      7  C19 UNL     1       8.378   6.672  21.706  0.00  0.00    +0.032 C 
ATOM      8  C20 UNL     1       8.029   8.158  21.838  0.00  0.00    +0.109 C 
ENDROOT
BRANCH   6   9
ATOM      9  C10 UNL     1      10.216   4.969  21.769  0.00  0.00    +0.219 C 
ATOM     10  O2  UNL     1       9.358   4.128  22.156  0.00  0.00    -0.275 OA
ATOM     11  N3  UNL     1      11.476   4.500  21.244  0.00  0.00    -0.301 N 
ATOM     12  C11 UNL     1      12.257   5.311  20.296  0.00  0.00    +0.108 C 
ATOM     13  C12 UNL     1      13.033   4.413  19.326  0.00  0.00    +0.020 C 
ATOM     14  C13 UNL     1      13.936   3.391  20.045  0.00  0.00    +0.014 C 
ATOM     15  C14 UNL     1      13.497   3.092  21.495  0.00  0.00    +0.072 C 
ATOM     16  C18 UNL     1      11.969   3.176  21.654  0.00  0.00    +0.119 C 
BRANCH  15  17
ATOM     17  C15 UNL     1      14.017   1.754  21.945  0.00  0.00    +0.112 A 
ATOM     18  N4  UNL     1      13.328   0.917  22.752  0.00  0.00    -0.240 NA
ATOM     19  C16 UNL     1      14.128  -0.163  22.862  0.00  0.00    +0.130 A 
ATOM     20  C17 UNL     1      15.270   0.032  22.118  0.00  0.00    +0.104 A 
ATOM     21  N5  UNL     1      15.193   1.238  21.538  0.00  0.00    -0.348 N 
ATOM     22  H22 UNL     1      15.896   1.677  20.902  0.00  0.00    +0.166 HD
ENDBRANCH  15  17
ENDBRANCH   6   9
BRANCH   1  25
ATOM     23  C4  UNL     1       8.214  10.537  27.350  0.00  0.00    +0.082 A 
ATOM     24  N1  UNL     1       8.269  10.763  26.020  0.00  0.00    -0.239 NA
ATOM     25  C5  UNL     1       7.867   9.681  25.297  0.00  0.00    +0.133 A 
ATOM     26  C21 UNL     1       7.487   8.576  26.056  0.00  0.00    +0.080 A 
ATOM     27  S1  UNL     1       7.647   8.985  27.679  0.00  0.00    -0.080 S 
BRANCH  23  29
ATOM     28  C1  UNL     1       8.237  12.982  27.822  0.00  0.00    +0.014 C 
ATOM     29  C2  UNL     1       8.542  11.588  28.375  0.00  0.00    +0.038 C 
ATOM     30  C3  UNL     1       7.786  11.337  29.685  0.00  0.00    +0.014 C 
ENDBRANCH  23  29
ENDBRANCH   1  25
TORSDOF 4
ENDMDL
MODEL 6
REMARK VINA RESULT:    -6.307      9.209     13.126
REMARK INTER + INTRA:          -8.446
REMARK INTER:                  -7.789
REMARK INTRA:                  -0.657
REMARK UNBOUND:                -0.663
REMARK  Name = /home/qwerty/github/datacon2025hack/step_04_hit_selection/docking/ligands/lig_504.pdb
REMARK  6 active torsions:
REMARK  status: ('A' for Active; 'I' for Inactive)
REMARK    1  A    between atoms: C1_1  and  C2_2
REMARK    2  A    between atoms: C2_2  and  C3_3
REMARK    3  A    between atoms: C2_2  and  C4_4
REMARK    4  A    between atoms: C5_6  and  C6_7
REMARK    5  A    between atoms: C9_12  and  C10_13
REMARK    6  A    between atoms: C14_19  and  C15_20
REMARK                            x       y       z     vdW  Elec       q    Type
REMARK                         _______ _______ _______ _____ _____    ______ ____
ROOT
ATOM      1  C6  UNL     1       7.346   9.084  28.929  0.00  0.00    +0.265 C 
ATOM      2  O1  UNL     1       6.376   8.934  29.722  0.00  0.00    -0.268 OA
ATOM      3  N2  UNL     1       7.534   8.149  27.852  0.00  0.00    -0.296 N 
ATOM      4  C7  UNL     1       7.660   8.628  26.470  0.00  0.00    +0.109 C 
ATOM      5  C8  UNL     1       8.677   7.773  25.712  0.00  0.00    +0.032 C 
ATOM      6  C9  UNL     1       8.312   6.280  25.820  0.00  0.00    +0.078 C 
ATOM      7  C19 UNL     1       8.220   5.855  27.298  0.00  0.00    +0.032 C 
ATOM      8  C20 UNL     1       7.220   6.731  28.059  0.00  0.00    +0.109 C 
ENDROOT
BRANCH   6   9
ATOM      9  C10 UNL     1       9.329   5.428  25.090  0.00  0.00    +0.219 C 
ATOM     10  O2  UNL     1      10.233   4.852  25.756  0.00  0.00    -0.275 OA
ATOM     11  N3  UNL     1       9.290   5.257  23.657  0.00  0.00    -0.301 N 
ATOM     12  C11 UNL     1       8.032   5.398  22.906  0.00  0.00    +0.108 C 
ATOM     13  C12 UNL     1       8.025   4.471  21.685  0.00  0.00    +0.020 C 
ATOM     14  C13 UNL     1       9.242   4.685  20.761  0.00  0.00    +0.014 C 
ATOM     15  C14 UNL     1      10.449   5.336  21.471  0.00  0.00    +0.072 C 
ATOM     16  C18 UNL     1      10.533   4.915  22.948  0.00  0.00    +0.119 C 
BRANCH  15  17
ATOM     17  C15 UNL     1      11.728   5.023  20.743  0.00  0.00    +0.112 A 
ATOM     18  N4  UNL     1      12.937   5.492  21.122  0.00  0.00    -0.240 NA
ATOM     19  C16 UNL     1      13.793   4.942  20.238  0.00  0.00    +0.130 A 
ATOM     20  C17 UNL     1      13.095   4.149  19.355  0.00  0.00    +0.104 A 
ATOM     21  N5  UNL     1      11.796   4.198  19.681  0.00  0.00    -0.348 N 
ATOM     22  H22 UNL     1      11.009   3.697  19.210  0.00  0.00    +0.166 HD
ENDBRANCH  15  17
ENDBRANCH   6   9
BRANCH   1  25
ATOM     23  C4  UNL     1       9.093  12.283  28.887  0.00  0.00    +0.082 A 
ATOM     24  N1  UNL     1       8.097  11.421  28.586  0.00  0.00    -0.239 NA
ATOM     25  C5  UNL     1       8.294  10.193  29.140  0.00  0.00    +0.133 A 
ATOM     26  C21 UNL     1       9.461  10.068  29.892  0.00  0.00    +0.080 A 
ATOM     27  S1  UNL     1      10.251  11.552  29.868  0.00  0.00    -0.080 S 
BRANCH  23  29
ATOM     28  C1  UNL     1      10.440  14.095  27.837  0.00  0.00    +0.014 C 
ATOM     29  C2  UNL     1       9.090  13.723  28.455  0.00  0.00    +0.038 C 
ATOM     30  C3  UNL     1       7.941  14.005  27.480  0.00  0.00    +0.014 C 
ENDBRANCH  23  29
ENDBRANCH   1  25
TORSDOF 4
ENDMDL
MODEL 7
REMARK VINA RESULT:    -6.269     11.615     13.764
REMARK INTER + INTRA:          -8.398
REMARK INTER:                  -7.650
REMARK INTRA:                  -0.748
REMARK UNBOUND:                -0.663
REMARK  Name = /home/qwerty/github/datacon2025hack/step_04_hit_selection/docking/ligands/lig_504.pdb
REMARK  6 active torsions:
REMARK  status: ('A' for Active; 'I' for Inactive)
REMARK    1  A    between atoms: C1_1  and  C2_2
REMARK    2  A    between atoms: C2_2  and  C3_3
REMARK    3  A    between atoms: C2_2  and  C4_4
REMARK    4  A    between atoms: C5_6  and  C6_7
REMARK    5  A    between atoms: C9_12  and  C10_13
REMARK    6  A    between atoms: C14_19  and  C15_20
REMARK                            x       y       z     vdW  Elec       q    Type
REMARK                         _______ _______ _______ _____ _____    ______ ____
ROOT
ATOM      1  C6  UNL     1      20.117   1.890  25.096  0.00  0.00    +0.265 C 
ATOM      2  O1  UNL     1      21.020   2.327  24.332  0.00  0.00    -0.268 OA
ATOM      3  N2  UNL     1      20.274   2.006  26.521  0.00  0.00    -0.296 N 
ATOM      4  C7  UNL     1      19.228   2.640  27.333  0.00  0.00    +0.109 C 
ATOM      5  C8  UNL     1      19.098   1.916  28.674  0.00  0.00    +0.032 C 
ATOM      6  C9  UNL     1      20.465   1.836  29.379  0.00  0.00    +0.078 C 
ATOM      7  C19 UNL     1      21.497   1.142  28.471  0.00  0.00    +0.032 C 
ATOM      8  C20 UNL     1      21.606   1.855  27.119  0.00  0.00    +0.109 C 
ENDROOT
BRANCH   6   9
ATOM      9  C10 UNL     1      20.344   1.101  30.696  0.00  0.00    +0.219 C 
ATOM     10  O2  UNL     1      20.668  -0.118  30.746  0.00  0.00    -0.275 OA
ATOM     11  N3  UNL     1      19.873   1.755  31.893  0.00  0.00    -0.301 N 
ATOM     12  C11 UNL     1      20.012   3.210  32.073  0.00  0.00    +0.108 C 
ATOM     13  C12 UNL     1      20.204   3.556  33.554  0.00  0.00    +0.020 C 
ATOM     14  C13 UNL     1      19.081   2.998  34.452  0.00  0.00    +0.014 C 
ATOM     15  C14 UNL     1      18.333   1.799  33.831  0.00  0.00    +0.072 C 
ATOM     16  C18 UNL     1      19.262   0.941  32.955  0.00  0.00    +0.119 C 
BRANCH  15  17
ATOM     17  C15 UNL     1      17.674   0.969  34.900  0.00  0.00    +0.112 A 
ATOM     18  N4  UNL     1      17.717   1.276  36.216  0.00  0.00    -0.240 NA
ATOM     19  C16 UNL     1      16.976   0.313  36.799  0.00  0.00    +0.130 A 
ATOM     20  C17 UNL     1      16.494  -0.545  35.836  0.00  0.00    +0.104 A 
ATOM     21  N5  UNL     1      16.931  -0.124  34.641  0.00  0.00    -0.348 N 
ATOM     22  H22 UNL     1      16.731  -0.553  33.710  0.00  0.00    +0.166 HD
ENDBRANCH  15  17
ENDBRANCH   6   9
BRANCH   1  25
ATOM     23  C4  UNL     1      17.497  -0.467  24.164  0.00  0.00    +0.082 A 
ATOM     24  N1  UNL     1      18.608  -0.057  24.813  0.00  0.00    -0.239 NA
ATOM     25  C5  UNL     1      18.929   1.234  24.520  0.00  0.00    +0.133 A 
ATOM     26  C21 UNL     1      18.067   1.865  23.625  0.00  0.00    +0.080 A 
ATOM     27  S1  UNL     1      16.861   0.769  23.210  0.00  0.00    -0.080 S 
BRANCH  23  29
ATOM     28  C1  UNL     1      17.955  -2.827  24.813  0.00  0.00    +0.014 C 
ATOM     29  C2  UNL     1      16.888  -1.828  24.359  0.00  0.00    +0.038 C 
ATOM     30  C3  UNL     1      15.724  -1.774  25.355  0.00  0.00    +0.014 C 
ENDBRANCH  23  29
ENDBRANCH   1  25
TORSDOF 4
ENDMDL
MODEL 8
REMARK VINA RESULT:    -6.267     10.366     14.722
REMARK INTER + INTRA:          -8.396
REMARK INTER:                  -7.751
REMARK INTRA:                  -0.645
REMARK UNBOUND:                -0.663
REMARK  Name = /home/qwerty/github/datacon2025hack/step_04_hit_selection/docking/ligands/lig_504.pdb
REMARK  6 active torsions:
REMARK  status: ('A' for Active; 'I' for Inactive)
REMARK    1  A    between atoms: C1_1  and  C2_2
REMARK    2  A    between atoms: C2_2  and  C3_3
REMARK    3  A    between atoms: C2_2  and  C4_4
REMARK    4  A    between atoms: C5_6  and  C6_7
REMARK    5  A    between atoms: C9_12  and  C10_13
REMARK    6  A    between atoms: C14_19  and  C15_20
REMARK                            x       y       z     vdW  Elec       q    Type
REMARK                         _______ _______ _______ _____ _____    ______ ____
ROOT
ATOM      1  C6  UNL     1      10.764   3.140  21.860  0.00  0.00    +0.265 C 
ATOM      2  O1  UNL     1      10.191   2.019  21.780  0.00  0.00    -0.268 OA
ATOM      3  N2  UNL     1      10.243   4.143  22.749  0.00  0.00    -0.296 N 
ATOM      4  C7  UNL     1      11.117   4.775  23.745  0.00  0.00    +0.109 C 
ATOM      5  C8  UNL     1      10.752   6.253  23.896  0.00  0.00    +0.032 C 
ATOM      6  C9  UNL     1       9.250   6.410  24.200  0.00  0.00    +0.078 C 
ATOM      7  C19 UNL     1       8.407   5.738  23.100  0.00  0.00    +0.032 C 
ATOM      8  C20 UNL     1       8.793   4.265  22.935  0.00  0.00    +0.109 C 
ENDROOT
BRANCH   6   9
ATOM      9  C10 UNL     1       8.881   7.872  24.328  0.00  0.00    +0.219 C 
ATOM     10  O2  UNL     1       8.854   8.587  23.289  0.00  0.00    -0.275 OA
ATOM     11  N3  UNL     1       8.558   8.467  25.603  0.00  0.00    -0.301 N 
ATOM     12  C11 UNL     1       8.030   7.656  26.712  0.00  0.00    +0.108 C 
ATOM     13  C12 UNL     1       7.076   8.484  27.581  0.00  0.00    +0.020 C 
ATOM     14  C13 UNL     1       7.719   9.782  28.110  0.00  0.00    +0.014 C 
ATOM     15  C14 UNL     1       8.919  10.264  27.267  0.00  0.00    +0.072 C 
ATOM     16  C18 UNL     1       8.745   9.916  25.779  0.00  0.00    +0.119 C 
BRANCH  15  17
ATOM     17  C15 UNL     1       9.146  11.739  27.457  0.00  0.00    +0.112 A 
ATOM     18  N4  UNL     1       8.156  12.619  27.725  0.00  0.00    -0.240 NA
ATOM     19  C16 UNL     1       8.795  13.798  27.860  0.00  0.00    +0.130 A 
ATOM     20  C17 UNL     1      10.148  13.612  27.685  0.00  0.00    +0.104 A 
ATOM     21  N5  UNL     1      10.365  12.313  27.437  0.00  0.00    -0.348 N 
ATOM     22  H22 UNL     1      11.286  11.849  27.270  0.00  0.00    +0.166 HD
ENDBRANCH  15  17
ENDBRANCH   6   9
BRANCH   1  25
ATOM     23  C4  UNL     1      13.983   3.031  20.152  0.00  0.00    +0.082 A 
ATOM     24  N1  UNL     1      13.010   2.579  20.973  0.00  0.00    -0.239 NA
ATOM     25  C5  UNL     1      11.939   3.419  21.013  0.00  0.00    +0.133 A 
ATOM     26  C21 UNL     1      12.055   4.558  20.218  0.00  0.00    +0.080 A 
ATOM     27  S1  UNL     1      13.540   4.489  19.433  0.00  0.00    -0.080 S 
BRANCH  23  29
ATOM     28  C1  UNL     1      16.451   2.985  20.485  0.00  0.00    +0.014 C 
ATOM     29  C2  UNL     1      15.246   2.263  19.875  0.00  0.00    +0.038 C 
ATOM     30  C3  UNL     1      15.144   0.825  20.396  0.00  0.00    +0.014 C 
ENDBRANCH  23  29
ENDBRANCH   1  25
TORSDOF 4
ENDMDL
MODEL 9
REMARK VINA RESULT:    -6.165      6.109     11.141
REMARK INTER + INTRA:          -8.270
REMARK INTER:                  -7.614
REMARK INTRA:                  -0.656
REMARK UNBOUND:                -0.663
REMARK  Name = /home/qwerty/github/datacon2025hack/step_04_hit_selection/docking/ligands/lig_504.pdb
REMARK  6 active torsions:
REMARK  status: ('A' for Active; 'I' for Inactive)
REMARK    1  A    between atoms: C1_1  and  C2_2
REMARK    2  A    between atoms: C2_2  and  C3_3
REMARK    3  A    between atoms: C2_2  and  C4_4
REMARK    4  A    between atoms: C5_6  and  C6_7
REMARK    5  A    between atoms: C9_12  and  C10_13
REMARK    6  A    between atoms: C14_19  and  C15_20
REMARK                            x       y       z     vdW  Elec       q    Type
REMARK                         _______ _______ _______ _____ _____    ______ ____
ROOT
ATOM      1  C6  UNL     1      23.362   4.859  33.071  0.00  0.00    +0.265 C 
ATOM      2  O1  UNL     1      24.601   4.695  32.900  0.00  0.00    -0.268 OA
ATOM      3  N2  UNL     1      22.874   6.113  33.579  0.00  0.00    -0.296 N 
ATOM      4  C7  UNL     1      21.831   6.850  32.855  0.00  0.00    +0.109 C 
ATOM      5  C8  UNL     1      20.879   7.517  33.849  0.00  0.00    +0.032 C 
ATOM      6  C9  UNL     1      21.666   8.382  34.853  0.00  0.00    +0.078 C 
ATOM      7  C19 UNL     1      22.723   7.531  35.581  0.00  0.00    +0.032 C 
ATOM      8  C20 UNL     1      23.659   6.843  34.581  0.00  0.00    +0.109 C 
ENDROOT
BRANCH   6   9
ATOM      9  C10 UNL     1      20.729   9.027  35.851  0.00  0.00    +0.219 C 
ATOM     10  O2  UNL     1      20.553   8.469  36.970  0.00  0.00    -0.275 OA
ATOM     11  N3  UNL     1      20.037  10.259  35.560  0.00  0.00    -0.301 N 
ATOM     12  C11 UNL     1      20.576  11.227  34.591  0.00  0.00    +0.108 C 
ATOM     13  C12 UNL     1      20.200  12.659  34.990  0.00  0.00    +0.020 C 
ATOM     14  C13 UNL     1      18.681  12.853  35.170  0.00  0.00    +0.014 C 
ATOM     15  C14 UNL     1      17.921  11.540  35.459  0.00  0.00    +0.072 C 
ATOM     16  C18 UNL     1      18.780  10.552  36.267  0.00  0.00    +0.119 C 
BRANCH  15  17
ATOM     17  C15 UNL     1      16.617  11.821  36.155  0.00  0.00    +0.112 A 
ATOM     18  N4  UNL     1      15.750  10.857  36.536  0.00  0.00    -0.240 NA
ATOM     19  C16 UNL     1      14.758  11.532  37.149  0.00  0.00    +0.130 A 
ATOM     20  C17 UNL     1      15.043  12.880  37.137  0.00  0.00    +0.104 A 
ATOM     21  N5  UNL     1      16.217  13.056  36.516  0.00  0.00    -0.348 N 
ATOM     22  H22 UNL     1      16.715  13.960  36.353  0.00  0.00    +0.166 HD
ENDBRANCH  15  17
ENDBRANCH   6   9
BRANCH   1  25
ATOM     23  C4  UNL     1      21.567   2.068  31.562  0.00  0.00    +0.082 A 
ATOM     24  N1  UNL     1      22.524   3.018  31.637  0.00  0.00    -0.239 NA
ATOM     25  C5  UNL     1      22.434   3.750  32.782  0.00  0.00    +0.133 A 
ATOM     26  C21 UNL     1      21.394   3.383  33.633  0.00  0.00    +0.080 A 
ATOM     27  S1  UNL     1      20.581   2.091  32.928  0.00  0.00    -0.080 S 
BRANCH  23  29
ATOM     28  C1  UNL     1      20.048   1.016  29.892  0.00  0.00    +0.014 C 
ATOM     29  C2  UNL     1      21.479   1.079  30.432  0.00  0.00    +0.038 C 
ATOM     30  C3  UNL     1      22.474   1.424  29.318  0.00  0.00    +0.014 C 
ENDBRANCH  23  29
ENDBRANCH   1  25
TORSDOF 4
ENDMDL
