MODEL 1
REMARK VINA RESULT:    -6.126      0.000      0.000
REMARK INTER + INTRA:          -8.059
REMARK INTER:                  -7.200
REMARK INTRA:                  -0.859
REMARK UNBOUND:                -0.859
REMARK  Name = /home/qwerty/github/datacon2025hack/step_04_hit_selection/docking/ligands/lig_341.pdb
REMARK  4 active torsions:
REMARK  status: ('A' for Active; 'I' for Inactive)
REMARK    1  A    between atoms: C1_1  and  C2_2
REMARK    2  A    between atoms: C2_2  and  C3_3
REMARK    3  A    between atoms: C2_2  and  N2_15
REMARK    4  A    between atoms: N1_5  and  C4_6
REMARK                            x       y       z     vdW  Elec       q    Type
REMARK                         _______ _______ _______ _____ _____    ______ ____
ROOT
ATOM      1  C1  UNL     1      20.090   5.493  34.916  0.00  0.00    +0.038 C 
ATOM      2  C2  UNL     1      21.050   6.537  35.496  0.00  0.00    +0.168 C 
ENDROOT
BRANCH   2   3
ATOM      3  N2  UNL     1      21.866   7.158  34.446  0.00  0.00    -0.222 N 
ATOM      4  C11 UNL     1      21.468   8.130  33.468  0.00  0.00    +0.254 C 
ATOM      5  O4  UNL     1      20.274   8.450  33.221  0.00  0.00    -0.270 OA
ATOM      6  C12 UNL     1      22.642   8.709  32.827  0.00  0.00    +0.049 A 
ATOM      7  C13 UNL     1      22.749   9.665  31.818  0.00  0.00    +0.014 A 
ATOM      8  C14 UNL     1      24.038  10.040  31.398  0.00  0.00    +0.001 A 
ATOM      9  C15 UNL     1      25.181   9.460  31.991  0.00  0.00    +0.001 A 
ATOM     10  C16 UNL     1      25.046   8.501  33.011  0.00  0.00    +0.014 A 
ATOM     11  C17 UNL     1      23.758   8.143  33.406  0.00  0.00    +0.049 A 
ATOM     12  C18 UNL     1      23.297   7.199  34.417  0.00  0.00    +0.254 C 
ATOM     13  O5  UNL     1      24.041   6.522  35.177  0.00  0.00    -0.270 OA
ENDBRANCH   2   3
BRANCH   2  14
ATOM     14  C3  UNL     1      20.301   7.587  36.273  0.00  0.00    +0.238 C 
ATOM     15  O1  UNL     1      20.898   8.242  37.170  0.00  0.00    -0.273 OA
ATOM     16  N1  UNL     1      18.905   7.812  36.018  0.00  0.00    -0.284 N 
ATOM     17  H5  UNL     1      18.371   7.061  35.524  0.00  0.00    +0.155 HD
BRANCH  16  18
ATOM     18  C4  UNL     1      18.177   8.969  36.465  0.00  0.00    +0.037 A 
ATOM     19  C5  UNL     1      17.319   8.855  37.589  0.00  0.00    +0.027 A 
ATOM     20  C6  UNL     1      16.566   9.958  38.032  0.00  0.00    +0.051 A 
ATOM     21  C7  UNL     1      16.682  11.150  37.323  0.00  0.00    +0.166 A 
ATOM     22  C8  UNL     1      17.489  11.266  36.238  0.00  0.00    +0.168 A 
ATOM     23  C9  UNL     1      18.251  10.201  35.768  0.00  0.00    +0.072 A 
ATOM     24  O2  UNL     1      17.396  12.548  35.731  0.00  0.00    -0.453 OA
ATOM     25  C10 UNL     1      16.474  13.283  36.548  0.00  0.00    +0.466 C 
ATOM     26  O3  UNL     1      16.044  12.354  37.553  0.00  0.00    -0.453 OA
ENDBRANCH  16  18
ENDBRANCH   2  14
TORSDOF 3
ENDMDL
MODEL 2
REMARK VINA RESULT:    -6.103     12.002     15.183
REMARK INTER + INTRA:          -8.032
REMARK INTER:                  -7.551
REMARK INTRA:                  -0.482
REMARK UNBOUND:                -0.859
REMARK  Name = /home/qwerty/github/datacon2025hack/step_04_hit_selection/docking/ligands/lig_341.pdb
REMARK  4 active torsions:
REMARK  status: ('A' for Active; 'I' for Inactive)
REMARK    1  A    between atoms: C1_1  and  C2_2
REMARK    2  A    between atoms: C2_2  and  C3_3
REMARK    3  A    between atoms: C2_2  and  N2_15
REMARK    4  A    between atoms: N1_5  and  C4_6
REMARK                            x       y       z     vdW  Elec       q    Type
REMARK                         _______ _______ _______ _____ _____    ______ ____
ROOT
ATOM      1  C1  UNL     1      23.707  11.777  18.409  0.00  0.00    +0.038 C 
ATOM      2  C2  UNL     1      22.622  12.522  19.192  0.00  0.00    +0.168 C 
ENDROOT
BRANCH   2   3
ATOM      3  N2  UNL     1      21.303  11.908  19.000  0.00  0.00    -0.222 N 
ATOM      4  C11 UNL     1      20.956  10.516  19.046  0.00  0.00    +0.254 C 
ATOM      5  O4  UNL     1      21.788   9.570  19.049  0.00  0.00    -0.270 OA
ATOM      6  C12 UNL     1      19.508  10.361  19.117  0.00  0.00    +0.049 A 
ATOM      7  C13 UNL     1      18.717   9.214  19.160  0.00  0.00    +0.014 A 
ATOM      8  C14 UNL     1      17.321   9.376  19.234  0.00  0.00    +0.001 A 
ATOM      9  C15 UNL     1      16.752  10.669  19.266  0.00  0.00    +0.001 A 
ATOM     10  C16 UNL     1      17.573  11.810  19.225  0.00  0.00    +0.014 A 
ATOM     11  C17 UNL     1      18.952  11.622  19.148  0.00  0.00    +0.049 A 
ATOM     12  C18 UNL     1      20.045  12.585  19.095  0.00  0.00    +0.254 C 
ATOM     13  O5  UNL     1      19.918  13.838  19.143  0.00  0.00    -0.270 OA
ENDBRANCH   2   3
BRANCH   2  14
ATOM     14  C3  UNL     1      22.964  12.593  20.657  0.00  0.00    +0.238 C 
ATOM     15  O1  UNL     1      23.825  11.805  21.134  0.00  0.00    -0.273 OA
ATOM     16  N1  UNL     1      22.283  13.526  21.510  0.00  0.00    -0.284 N 
ATOM     17  H5  UNL     1      21.375  13.922  21.175  0.00  0.00    +0.155 HD
BRANCH  16  18
ATOM     18  C4  UNL     1      22.730  13.893  22.827  0.00  0.00    +0.037 A 
ATOM     19  C5  UNL     1      23.868  14.729  22.964  0.00  0.00    +0.027 A 
ATOM     20  C6  UNL     1      24.352  15.079  24.238  0.00  0.00    +0.051 A 
ATOM     21  C7  UNL     1      23.689  14.566  25.348  0.00  0.00    +0.166 A 
ATOM     22  C8  UNL     1      22.608  13.754  25.229  0.00  0.00    +0.168 A 
ATOM     23  C9  UNL     1      22.096  13.385  23.988  0.00  0.00    +0.072 A 
ATOM     24  O2  UNL     1      22.165  13.389  26.486  0.00  0.00    -0.453 OA
ATOM     25  C10 UNL     1      23.021  14.010  27.456  0.00  0.00    +0.466 C 
ATOM     26  O3  UNL     1      23.977  14.754  26.687  0.00  0.00    -0.453 OA
ENDBRANCH  16  18
ENDBRANCH   2  14
TORSDOF 3
ENDMDL
MODEL 3
REMARK VINA RESULT:    -5.905     16.289     17.150
REMARK INTER + INTRA:          -7.800
REMARK INTER:                  -7.129
REMARK INTRA:                  -0.671
REMARK UNBOUND:                -0.859
REMARK  Name = /home/qwerty/github/datacon2025hack/step_04_hit_selection/docking/ligands/lig_341.pdb
REMARK  4 active torsions:
REMARK  status: ('A' for Active; 'I' for Inactive)
REMARK    1  A    between atoms: C1_1  and  C2_2
REMARK    2  A    between atoms: C2_2  and  C3_3
REMARK    3  A    between atoms: C2_2  and  N2_15
REMARK    4  A    between atoms: N1_5  and  C4_6
REMARK                            x       y       z     vdW  Elec       q    Type
REMARK                         _______ _______ _______ _____ _____    ______ ____
ROOT
ATOM      1  C1  UNL     1       9.948   0.877  22.521  0.00  0.00    +0.038 C 
ATOM      2  C2  UNL     1      11.011   1.722  23.230  0.00  0.00    +0.168 C 
ENDROOT
BRANCH   2   3
ATOM      3  N2  UNL     1      12.357   1.427  22.726  0.00  0.00    -0.222 N 
ATOM      4  C11 UNL     1      13.310   0.482  23.236  0.00  0.00    +0.254 C 
ATOM      5  O4  UNL     1      13.215  -0.101  24.349  0.00  0.00    -0.270 OA
ATOM      6  C12 UNL     1      14.383   0.279  22.271  0.00  0.00    +0.049 A 
ATOM      7  C13 UNL     1      15.523  -0.521  22.333  0.00  0.00    +0.014 A 
ATOM      8  C14 UNL     1      16.392  -0.521  21.226  0.00  0.00    +0.001 A 
ATOM      9  C15 UNL     1      16.103   0.268  20.091  0.00  0.00    +0.001 A 
ATOM     10  C16 UNL     1      14.943   1.063  20.052  0.00  0.00    +0.014 A 
ATOM     11  C17 UNL     1      14.102   1.049  21.163  0.00  0.00    +0.049 A 
ATOM     12  C18 UNL     1      12.849   1.748  21.420  0.00  0.00    +0.254 C 
ATOM     13  O5  UNL     1      12.260   2.515  20.611  0.00  0.00    -0.270 OA
ENDBRANCH   2   3
BRANCH   2  14
ATOM     14  C3  UNL     1      10.709   3.192  23.099  0.00  0.00    +0.238 C 
ATOM     15  O1  UNL     1      11.261   4.013  23.880  0.00  0.00    -0.273 OA
ATOM     16  N1  UNL     1       9.768   3.648  22.113  0.00  0.00    -0.284 N 
ATOM     17  H5  UNL     1       9.100   2.949  21.716  0.00  0.00    +0.155 HD
BRANCH  16  18
ATOM     18  C4  UNL     1       9.635   5.018  21.695  0.00  0.00    +0.037 A 
ATOM     19  C5  UNL     1      10.453   5.503  20.643  0.00  0.00    +0.027 A 
ATOM     20  C6  UNL     1      10.373   6.846  20.232  0.00  0.00    +0.051 A 
ATOM     21  C7  UNL     1       9.480   7.678  20.901  0.00  0.00    +0.166 A 
ATOM     22  C8  UNL     1       8.703   7.227  21.919  0.00  0.00    +0.168 A 
ATOM     23  C9  UNL     1       8.750   5.907  22.355  0.00  0.00    +0.072 A 
ATOM     24  O2  UNL     1       7.929   8.266  22.402  0.00  0.00    -0.453 OA
ATOM     25  C10 UNL     1       8.240   9.441  21.639  0.00  0.00    +0.466 C 
ATOM     26  O3  UNL     1       9.231   9.021  20.692  0.00  0.00    -0.453 OA
ENDBRANCH  16  18
ENDBRANCH   2  14
TORSDOF 3
ENDMDL
MODEL 4
REMARK VINA RESULT:    -5.820      3.691      7.862
REMARK INTER + INTRA:          -7.700
REMARK INTER:                  -7.519
REMARK INTRA:                  -0.180
REMARK UNBOUND:                -0.859
REMARK  Name = /home/qwerty/github/datacon2025hack/step_04_hit_selection/docking/ligands/lig_341.pdb
REMARK  4 active torsions:
REMARK  status: ('A' for Active; 'I' for Inactive)
REMARK    1  A    between atoms: C1_1  and  C2_2
REMARK    2  A    between atoms: C2_2  and  C3_3
REMARK    3  A    between atoms: C2_2  and  N2_15
REMARK    4  A    between atoms: N1_5  and  C4_6
REMARK                            x       y       z     vdW  Elec       q    Type
REMARK                         _______ _______ _______ _____ _____    ______ ____
ROOT
ATOM      1  C1  UNL     1      24.533   7.701  33.399  0.00  0.00    +0.038 C 
ATOM      2  C2  UNL     1      23.495   6.962  34.250  0.00  0.00    +0.168 C 
ENDROOT
BRANCH   2   3
ATOM      3  N2  UNL     1      22.587   7.898  34.923  0.00  0.00    -0.222 N 
ATOM      4  C11 UNL     1      21.919   9.041  34.370  0.00  0.00    +0.254 C 
ATOM      5  O4  UNL     1      22.181   9.551  33.248  0.00  0.00    -0.270 OA
ATOM      6  C12 UNL     1      20.879   9.505  35.281  0.00  0.00    +0.049 A 
ATOM      7  C13 UNL     1      19.995  10.578  35.181  0.00  0.00    +0.014 A 
ATOM      8  C14 UNL     1      19.080  10.781  36.231  0.00  0.00    +0.001 A 
ATOM      9  C15 UNL     1      19.067   9.913  37.345  0.00  0.00    +0.001 A 
ATOM     10  C16 UNL     1      19.967   8.834  37.419  0.00  0.00    +0.014 A 
ATOM     11  C17 UNL     1      20.866   8.659  36.368  0.00  0.00    +0.049 A 
ATOM     12  C18 UNL     1      21.900   7.653  36.155  0.00  0.00    +0.254 C 
ATOM     13  O5  UNL     1      22.152   6.690  36.927  0.00  0.00    -0.270 OA
ENDBRANCH   2   3
BRANCH   2  14
ATOM     14  C3  UNL     1      22.717   5.977  33.418  0.00  0.00    +0.238 C 
ATOM     15  O1  UNL     1      22.349   6.297  32.255  0.00  0.00    -0.273 OA
ATOM     16  N1  UNL     1      22.362   4.696  33.965  0.00  0.00    -0.284 N 
ATOM     17  H5  UNL     1      22.387   4.584  35.004  0.00  0.00    +0.155 HD
BRANCH  16  18
ATOM     18  C4  UNL     1      21.902   3.582  33.181  0.00  0.00    +0.037 A 
ATOM     19  C5  UNL     1      20.851   2.771  33.680  0.00  0.00    +0.027 A 
ATOM     20  C6  UNL     1      20.400   1.653  32.954  0.00  0.00    +0.051 A 
ATOM     21  C7  UNL     1      21.029   1.365  31.747  0.00  0.00    +0.166 A 
ATOM     22  C8  UNL     1      22.045   2.125  31.267  0.00  0.00    +0.168 A 
ATOM     23  C9  UNL     1      22.521   3.240  31.952  0.00  0.00    +0.072 A 
ATOM     24  O2  UNL     1      22.484   1.602  30.066  0.00  0.00    -0.453 OA
ATOM     25  C10 UNL     1      21.694   0.441  29.773  0.00  0.00    +0.466 C 
ATOM     26  O3  UNL     1      20.776   0.327  30.870  0.00  0.00    -0.453 OA
ENDBRANCH  16  18
ENDBRANCH   2  14
TORSDOF 3
ENDMDL
MODEL 5
REMARK VINA RESULT:    -5.812     15.059     16.547
REMARK INTER + INTRA:          -7.691
REMARK INTER:                  -6.904
REMARK INTRA:                  -0.787
REMARK UNBOUND:                -0.859
REMARK  Name = /home/qwerty/github/datacon2025hack/step_04_hit_selection/docking/ligands/lig_341.pdb
REMARK  4 active torsions:
REMARK  status: ('A' for Active; 'I' for Inactive)
REMARK    1  A    between atoms: C1_1  and  C2_2
REMARK    2  A    between atoms: C2_2  and  C3_3
REMARK    3  A    between atoms: C2_2  and  N2_15
REMARK    4  A    between atoms: N1_5  and  C4_6
REMARK                            x       y       z     vdW  Elec       q    Type
REMARK                         _______ _______ _______ _____ _____    ______ ____
ROOT
ATOM      1  C1  UNL     1      16.536   2.911  20.253  0.00  0.00    +0.038 C 
ATOM      2  C2  UNL     1      15.743   1.623  20.495  0.00  0.00    +0.168 C 
ENDROOT
BRANCH   2   3
ATOM      3  N2  UNL     1      16.275   0.871  21.637  0.00  0.00    -0.222 N 
ATOM      4  C11 UNL     1      16.198   1.200  23.033  0.00  0.00    +0.254 C 
ATOM      5  O4  UNL     1      15.836   2.319  23.485  0.00  0.00    -0.270 OA
ATOM      6  C12 UNL     1      16.570   0.047  23.843  0.00  0.00    +0.049 A 
ATOM      7  C13 UNL     1      16.660  -0.102  25.226  0.00  0.00    +0.014 A 
ATOM      8  C14 UNL     1      17.046  -1.357  25.732  0.00  0.00    +0.001 A 
ATOM      9  C15 UNL     1      17.328  -2.426  24.853  0.00  0.00    +0.001 A 
ATOM     10  C16 UNL     1      17.226  -2.251  23.461  0.00  0.00    +0.014 A 
ATOM     11  C17 UNL     1      16.846  -0.996  22.985  0.00  0.00    +0.049 A 
ATOM     12  C18 UNL     1      16.652  -0.510  21.625  0.00  0.00    +0.254 C 
ATOM     13  O5  UNL     1      16.776  -1.201  20.578  0.00  0.00    -0.270 OA
ENDBRANCH   2   3
BRANCH   2  14
ATOM     14  C3  UNL     1      14.280   1.918  20.693  0.00  0.00    +0.238 C 
ATOM     15  O1  UNL     1      13.434   0.992  20.562  0.00  0.00    -0.273 OA
ATOM     16  N1  UNL     1      13.849   3.256  20.990  0.00  0.00    -0.284 N 
ATOM     17  H5  UNL     1      14.506   4.040  20.775  0.00  0.00    +0.155 HD
BRANCH  16  18
ATOM     18  C4  UNL     1      12.545   3.594  21.494  0.00  0.00    +0.037 A 
ATOM     19  C5  UNL     1      12.300   3.515  22.889  0.00  0.00    +0.027 A 
ATOM     20  C6  UNL     1      11.026   3.805  23.412  0.00  0.00    +0.051 A 
ATOM     21  C7  UNL     1      10.020   4.152  22.515  0.00  0.00    +0.166 A 
ATOM     22  C8  UNL     1      10.240   4.216  21.178  0.00  0.00    +0.168 A 
ATOM     23  C9  UNL     1      11.484   3.939  20.620  0.00  0.00    +0.072 A 
ATOM     24  O2  UNL     1       9.068   4.570  20.535  0.00  0.00    -0.453 OA
ATOM     25  C10 UNL     1       8.050   4.740  21.532  0.00  0.00    +0.466 C 
ATOM     26  O3  UNL     1       8.701   4.466  22.781  0.00  0.00    -0.453 OA
ENDBRANCH  16  18
ENDBRANCH   2  14
TORSDOF 3
ENDMDL
MODEL 6
REMARK VINA RESULT:    -5.768     11.896     15.626
REMARK INTER + INTRA:          -7.639
REMARK INTER:                  -6.894
REMARK INTRA:                  -0.744
REMARK UNBOUND:                -0.859
REMARK  Name = /home/qwerty/github/datacon2025hack/step_04_hit_selection/docking/ligands/lig_341.pdb
REMARK  4 active torsions:
REMARK  status: ('A' for Active; 'I' for Inactive)
REMARK    1  A    between atoms: C1_1  and  C2_2
REMARK    2  A    between atoms: C2_2  and  C3_3
REMARK    3  A    between atoms: C2_2  and  N2_15
REMARK    4  A    between atoms: N1_5  and  C4_6
REMARK                            x       y       z     vdW  Elec       q    Type
REMARK                         _______ _______ _______ _____ _____    ______ ____
ROOT
ATOM      1  C1  UNL     1      19.967  14.835  20.163  0.00  0.00    +0.038 C 
ATOM      2  C2  UNL     1      21.462  14.710  20.471  0.00  0.00    +0.168 C 
ENDROOT
BRANCH   2   3
ATOM      3  N2  UNL     1      21.720  14.774  21.914  0.00  0.00    -0.222 N 
ATOM      4  C11 UNL     1      21.346  13.829  22.928  0.00  0.00    +0.254 C 
ATOM      5  O4  UNL     1      20.535  12.879  22.757  0.00  0.00    -0.270 OA
ATOM      6  C12 UNL     1      22.060  14.111  24.167  0.00  0.00    +0.049 A 
ATOM      7  C13 UNL     1      22.008  13.482  25.410  0.00  0.00    +0.014 A 
ATOM      8  C14 UNL     1      22.831  13.980  26.437  0.00  0.00    +0.001 A 
ATOM      9  C15 UNL     1      23.681  15.083  26.201  0.00  0.00    +0.001 A 
ATOM     10  C16 UNL     1      23.717  15.697  24.936  0.00  0.00    +0.014 A 
ATOM     11  C17 UNL     1      22.889  15.188  23.937  0.00  0.00    +0.049 A 
ATOM     12  C18 UNL     1      22.704  15.597  22.550  0.00  0.00    +0.254 C 
ATOM     13  O5  UNL     1      23.329  16.527  21.974  0.00  0.00    -0.270 OA
ENDBRANCH   2   3
BRANCH   2  14
ATOM     14  C3  UNL     1      22.030  13.443  19.889  0.00  0.00    +0.238 C 
ATOM     15  O1  UNL     1      23.147  13.472  19.305  0.00  0.00    -0.273 OA
ATOM     16  N1  UNL     1      21.284  12.218  19.967  0.00  0.00    -0.284 N 
ATOM     17  H5  UNL     1      20.257  12.282  20.153  0.00  0.00    +0.155 HD
BRANCH  16  18
ATOM     18  C4  UNL     1      21.843  10.914  19.731  0.00  0.00    +0.037 A 
ATOM     19  C5  UNL     1      21.354  10.137  18.649  0.00  0.00    +0.027 A 
ATOM     20  C6  UNL     1      21.855   8.844  18.409  0.00  0.00    +0.051 A 
ATOM     21  C7  UNL     1      22.826   8.353  19.276  0.00  0.00    +0.166 A 
ATOM     22  C8  UNL     1      23.290   9.082  20.322  0.00  0.00    +0.168 A 
ATOM     23  C9  UNL     1      22.824  10.365  20.593  0.00  0.00    +0.072 A 
ATOM     24  O2  UNL     1      24.233   8.345  21.014  0.00  0.00    -0.453 OA
ATOM     25  C10 UNL     1      24.370   7.075  20.361  0.00  0.00    +0.466 C 
ATOM     26  O3  UNL     1      23.456   7.124  19.256  0.00  0.00    -0.453 OA
ENDBRANCH  16  18
ENDBRANCH   2  14
TORSDOF 3
ENDMDL
MODEL 7
REMARK VINA RESULT:    -5.713      3.148      5.461
REMARK INTER + INTRA:          -7.575
REMARK INTER:                  -6.741
REMARK INTRA:                  -0.833
REMARK UNBOUND:                -0.859
REMARK  Name = /home/qwerty/github/datacon2025hack/step_04_hit_selection/docking/ligands/lig_341.pdb
REMARK  4 active torsions:
REMARK  status: ('A' for Active; 'I' for Inactive)
REMARK    1  A    between atoms: C1_1  and  C2_2
REMARK    2  A    between atoms: C2_2  and  C3_3
REMARK    3  A    between atoms: C2_2  and  N2_15
REMARK    4  A    between atoms: N1_5  and  C4_6
REMARK                            x       y       z     vdW  Elec       q    Type
REMARK                         _______ _______ _______ _____ _____    ______ ____
ROOT
ATOM      1  C1  UNL     1      20.663  12.665  36.055  0.00  0.00    +0.038 C 
ATOM      2  C2  UNL     1      19.869  11.717  35.152  0.00  0.00    +0.168 C 
ENDROOT
BRANCH   2   3
ATOM      3  N2  UNL     1      19.866  10.348  35.679  0.00  0.00    -0.222 N 
ATOM      4  C11 UNL     1      19.256   9.860  36.883  0.00  0.00    +0.254 C 
ATOM      5  O4  UNL     1      18.800  10.592  37.802  0.00  0.00    -0.270 OA
ATOM      6  C12 UNL     1      19.220   8.402  36.874  0.00  0.00    +0.049 A 
ATOM      7  C13 UNL     1      18.745   7.499  37.823  0.00  0.00    +0.014 A 
ATOM      8  C14 UNL     1      18.837   6.125  37.531  0.00  0.00    +0.001 A 
ATOM      9  C15 UNL     1      19.392   5.690  36.308  0.00  0.00    +0.001 A 
ATOM     10  C16 UNL     1      19.860   6.623  35.365  0.00  0.00    +0.014 A 
ATOM     11  C17 UNL     1      19.762   7.977  35.680  0.00  0.00    +0.049 A 
ATOM     12  C18 UNL     1      20.148   9.163  34.926  0.00  0.00    +0.254 C 
ATOM     13  O5  UNL     1      20.644   9.162  33.767  0.00  0.00    -0.270 OA
ENDBRANCH   2   3
BRANCH   2  14
ATOM     14  C3  UNL     1      18.459  12.211  34.957  0.00  0.00    +0.238 C 
ATOM     15  O1  UNL     1      17.920  12.123  33.820  0.00  0.00    -0.273 OA
ATOM     16  N1  UNL     1      17.750  12.814  36.052  0.00  0.00    -0.284 N 
ATOM     17  H5  UNL     1      18.310  13.165  36.862  0.00  0.00    +0.155 HD
BRANCH  16  18
ATOM     18  C4  UNL     1      16.329  13.034  36.071  0.00  0.00    +0.037 A 
ATOM     19  C5  UNL     1      15.821  14.302  35.690  0.00  0.00    +0.027 A 
ATOM     20  C6  UNL     1      14.438  14.563  35.730  0.00  0.00    +0.051 A 
ATOM     21  C7  UNL     1      13.598  13.545  36.170  0.00  0.00    +0.166 A 
ATOM     22  C8  UNL     1      14.075  12.333  36.551  0.00  0.00    +0.168 A 
ATOM     23  C9  UNL     1      15.434  12.034  36.525  0.00  0.00    +0.072 A 
ATOM     24  O2  UNL     1      13.025  11.529  36.950  0.00  0.00    -0.453 OA
ATOM     25  C10 UNL     1      11.812  12.283  36.810  0.00  0.00    +0.466 C 
ATOM     26  O3  UNL     1      12.223  13.562  36.308  0.00  0.00    -0.453 OA
ENDBRANCH  16  18
ENDBRANCH   2  14
TORSDOF 3
ENDMDL
MODEL 8
REMARK VINA RESULT:    -5.698      2.247      3.617
REMARK INTER + INTRA:          -7.556
REMARK INTER:                  -6.838
REMARK INTRA:                  -0.718
REMARK UNBOUND:                -0.859
REMARK  Name = /home/qwerty/github/datacon2025hack/step_04_hit_selection/docking/ligands/lig_341.pdb
REMARK  4 active torsions:
REMARK  status: ('A' for Active; 'I' for Inactive)
REMARK    1  A    between atoms: C1_1  and  C2_2
REMARK    2  A    between atoms: C2_2  and  C3_3
REMARK    3  A    between atoms: C2_2  and  N2_15
REMARK    4  A    between atoms: N1_5  and  C4_6
REMARK                            x       y       z     vdW  Elec       q    Type
REMARK                         _______ _______ _______ _____ _____    ______ ____
ROOT
ATOM      1  C1  UNL     1      18.030   6.569  37.647  0.00  0.00    +0.038 C 
ATOM      2  C2  UNL     1      19.009   7.727  37.861  0.00  0.00    +0.168 C 
ENDROOT
BRANCH   2   3
ATOM      3  N2  UNL     1      20.173   7.618  36.974  0.00  0.00    -0.222 N 
ATOM      4  C11 UNL     1      21.487   7.130  37.286  0.00  0.00    +0.254 C 
ATOM      5  O4  UNL     1      21.911   6.912  38.452  0.00  0.00    -0.270 OA
ATOM      6  C12 UNL     1      22.241   6.899  36.060  0.00  0.00    +0.049 A 
ATOM      7  C13 UNL     1      23.547   6.451  35.867  0.00  0.00    +0.014 A 
ATOM      8  C14 UNL     1      24.011   6.316  34.545  0.00  0.00    +0.001 A 
ATOM      9  C15 UNL     1      23.167   6.626  33.456  0.00  0.00    +0.001 A 
ATOM     10  C16 UNL     1      21.851   7.072  33.679  0.00  0.00    +0.014 A 
ATOM     11  C17 UNL     1      21.418   7.202  34.997  0.00  0.00    +0.049 A 
ATOM     12  C18 UNL     1      20.135   7.629  35.542  0.00  0.00    +0.254 C 
ATOM     13  O5  UNL     1      19.122   7.948  34.864  0.00  0.00    -0.270 OA
ENDBRANCH   2   3
BRANCH   2  14
ATOM     14  C3  UNL     1      18.325   9.055  37.673  0.00  0.00    +0.238 C 
ATOM     15  O1  UNL     1      18.817  10.090  38.200  0.00  0.00    -0.273 OA
ATOM     16  N1  UNL     1      17.098   9.133  36.929  0.00  0.00    -0.284 N 
ATOM     17  H5  UNL     1      16.554   8.252  36.789  0.00  0.00    +0.155 HD
BRANCH  16  18
ATOM     18  C4  UNL     1      16.531  10.358  36.431  0.00  0.00    +0.037 A 
ATOM     19  C5  UNL     1      17.014  10.899  35.212  0.00  0.00    +0.027 A 
ATOM     20  C6  UNL     1      16.505  12.113  34.714  0.00  0.00    +0.051 A 
ATOM     21  C7  UNL     1      15.531  12.764  35.462  0.00  0.00    +0.166 A 
ATOM     22  C8  UNL     1      15.071  12.263  36.637  0.00  0.00    +0.168 A 
ATOM     23  C9  UNL     1      15.546  11.066  37.164  0.00  0.00    +0.072 A 
ATOM     24  O2  UNL     1      14.124  13.120  37.164  0.00  0.00    -0.453 OA
ATOM     25  C10 UNL     1      13.979  14.228  36.265  0.00  0.00    +0.466 C 
ATOM     26  O3  UNL     1      14.893  13.960  35.192  0.00  0.00    -0.453 OA
ENDBRANCH  16  18
ENDBRANCH   2  14
TORSDOF 3
ENDMDL
MODEL 9
REMARK VINA RESULT:    -5.626      0.933      2.001
REMARK INTER + INTRA:          -7.472
REMARK INTER:                  -6.758
REMARK INTRA:                  -0.714
REMARK UNBOUND:                -0.859
REMARK  Name = /home/qwerty/github/datacon2025hack/step_04_hit_selection/docking/ligands/lig_341.pdb
REMARK  4 active torsions:
REMARK  status: ('A' for Active; 'I' for Inactive)
REMARK    1  A    between atoms: C1_1  and  C2_2
REMARK    2  A    between atoms: C2_2  and  C3_3
REMARK    3  A    between atoms: C2_2  and  N2_15
REMARK    4  A    between atoms: N1_5  and  C4_6
REMARK                            x       y       z     vdW  Elec       q    Type
REMARK                         _______ _______ _______ _____ _____    ______ ____
ROOT
ATOM      1  C1  UNL     1      19.627   6.414  34.494  0.00  0.00    +0.038 C 
ATOM      2  C2  UNL     1      20.445   7.350  35.390  0.00  0.00    +0.168 C 
ENDROOT
BRANCH   2   3
ATOM      3  N2  UNL     1      21.474   8.062  34.624  0.00  0.00    -0.222 N 
ATOM      4  C11 UNL     1      22.887   7.813  34.587  0.00  0.00    +0.254 C 
ATOM      5  O4  UNL     1      23.502   7.060  35.388  0.00  0.00    -0.270 OA
ATOM      6  C12 UNL     1      23.496   8.534  33.475  0.00  0.00    +0.049 A 
ATOM      7  C13 UNL     1      24.824   8.610  33.060  0.00  0.00    +0.014 A 
ATOM      8  C14 UNL     1      25.118   9.392  31.927  0.00  0.00    +0.001 A 
ATOM      9  C15 UNL     1      24.088  10.071  31.240  0.00  0.00    +0.001 A 
ATOM     10  C16 UNL     1      22.754   9.974  31.678  0.00  0.00    +0.014 A 
ATOM     11  C17 UNL     1      22.490   9.197  32.805  0.00  0.00    +0.049 A 
ATOM     12  C18 UNL     1      21.237   8.903  33.489  0.00  0.00    +0.254 C 
ATOM     13  O5  UNL     1      20.098   9.308  33.133  0.00  0.00    -0.270 OA
ENDBRANCH   2   3
BRANCH   2  14
ATOM     14  C3  UNL     1      19.552   8.326  36.110  0.00  0.00    +0.238 C 
ATOM     15  O1  UNL     1      19.950   8.862  37.179  0.00  0.00    -0.273 OA
ATOM     16  N1  UNL     1      18.239   8.612  35.600  0.00  0.00    -0.284 N 
ATOM     17  H5  UNL     1      17.819   7.933  34.925  0.00  0.00    +0.155 HD
BRANCH  16  18
ATOM     18  C4  UNL     1      17.436   9.730  36.016  0.00  0.00    +0.037 A 
ATOM     19  C5  UNL     1      16.292   9.498  36.822  0.00  0.00    +0.027 A 
ATOM     20  C6  UNL     1      15.465  10.565  37.219  0.00  0.00    +0.051 A 
ATOM     21  C7  UNL     1      15.799  11.843  36.781  0.00  0.00    +0.166 A 
ATOM     22  C8  UNL     1      16.883  12.074  35.998  0.00  0.00    +0.168 A 
ATOM     23  C9  UNL     1      17.727  11.048  35.585  0.00  0.00    +0.072 A 
ATOM     24  O2  UNL     1      16.962  13.423  35.707  0.00  0.00    -0.453 OA
ATOM     25  C10 UNL     1      15.859  14.080  36.349  0.00  0.00    +0.466 C 
ATOM     26  O3  UNL     1      15.145  13.035  37.025  0.00  0.00    -0.453 OA
ENDBRANCH  16  18
ENDBRANCH   2  14
TORSDOF 3
ENDMDL
