REMARK  Name = /home/qwerty/github/datacon2025hack/step_04_hit_selection/docking/ligands/lig_731.pdb
REMARK  5 active torsions:
REMARK  status: ('A' for Active; 'I' for Inactive)
REMARK    1  A    between atoms: C1_2  and  C14_17
REMARK    2  A    between atoms: N1_3  and  C2_4
REMARK    3  A    between atoms: C2_4  and  C3_5
REMARK    4  A    between atoms: N2_9  and  C7_10
REMARK    5  A    between atoms: C7_10  and  C8_11
REMARK                            x       y       z     vdW  Elec       q    Type
REMARK                         _______ _______ _______ _____ _____    ______ ____
ROOT
ATOM      1  O1  UNL     1       1.637   0.037  -2.642  0.00  0.00    -0.270 OA
ATOM      2  C1  UNL     1       2.108  -0.139  -1.484  0.00  0.00    +0.244 C 
ATOM      3  N1  UNL     1       1.210  -0.324  -0.379  0.00  0.00    -0.310 N 
ATOM      4  H1  UNL     1       1.574  -0.708   0.521  0.00  0.00    +0.149 HD
ENDROOT
BRANCH   2   5
ATOM      5  C14 UNL     1       3.580  -0.153  -1.292  0.00  0.00    +0.039 A 
ATOM      6  C15 UNL     1       4.435  -0.361  -2.412  0.00  0.00    +0.014 A 
ATOM      7  C16 UNL     1       5.834  -0.354  -2.265  0.00  0.00    +0.011 A 
ATOM      8  C17 UNL     1       6.352  -0.131  -0.989  0.00  0.00    -0.000 A 
ATOM      9  C18 UNL     1       7.657  -0.046  -0.549  0.00  0.00    +0.027 A 
ATOM     10  C19 UNL     1       7.568   0.207   0.815  0.00  0.00    +0.083 A 
ATOM     11  N3  UNL     1       6.275   0.284   1.206  0.00  0.00    -0.361 N 
ATOM     12  C20 UNL     1       5.543   0.072   0.096  0.00  0.00    +0.047 A 
ATOM     13  C21 UNL     1       4.154   0.075  -0.014  0.00  0.00    +0.039 A 
ATOM     14  H22 UNL     1       5.922   0.471   2.172  0.00  0.00    +0.165 HD
ENDBRANCH   2   5
BRANCH   3  15
ATOM     15  C2  UNL     1      -0.218  -0.030  -0.510  0.00  0.00    +0.123 C 
BRANCH  15  16
ATOM     16  C3  UNL     1      -0.930  -0.081   0.852  0.00  0.00    +0.074 C 
ATOM     17  C4  UNL     1      -0.379   0.957   1.828  0.00  0.00    +0.022 C 
ATOM     18  C5  UNL     1      -1.579   1.347   2.652  0.00  0.00    +0.017 C 
ATOM     19  C6  UNL     1      -2.741   1.207   1.689  0.00  0.00    +0.085 C 
ATOM     20  N2  UNL     1      -2.368   0.206   0.670  0.00  0.00    -0.294 NA
BRANCH  20  21
ATOM     21  C7  UNL     1      -3.184  -1.022   0.764  0.00  0.00    +0.120 C 
BRANCH  21  22
ATOM     22  C8  UNL     1      -4.554  -0.781   0.187  0.00  0.00    -0.033 A 
ATOM     23  C9  UNL     1      -4.710  -0.600  -1.200  0.00  0.00    +0.005 A 
ATOM     24  C10 UNL     1      -5.977  -0.358  -1.741  0.00  0.00    +0.000 A 
ATOM     25  C11 UNL     1      -7.094  -0.288  -0.903  0.00  0.00    +0.000 A 
ATOM     26  C12 UNL     1      -6.946  -0.460   0.476  0.00  0.00    +0.000 A 
ATOM     27  C13 UNL     1      -5.682  -0.705   1.022  0.00  0.00    +0.005 A 
ENDBRANCH  21  22
ENDBRANCH  20  21
ENDBRANCH  15  16
ENDBRANCH   3  15
TORSDOF 5
