MODEL 1
REMARK VINA RESULT:    -7.028      0.000      0.000
REMARK INTER + INTRA:          -9.324
REMARK INTER:                  -8.671
REMARK INTRA:                  -0.653
REMARK UNBOUND:                -0.653
REMARK  Name = /home/qwerty/github/datacon2025hack/step_04_hit_selection/docking/ligands/lig_529.pdb
REMARK  5 active torsions:
REMARK  status: ('A' for Active; 'I' for Inactive)
REMARK    1  A    between atoms: C1_1  and  N1_2
REMARK    2  A    between atoms: C4_6  and  C5_8
REMARK    3  A    between atoms: C7_10  and  N3_11
REMARK    4  A    between atoms: N4_14  and  C9_15
REMARK    5  A    between atoms: N5_18  and  C12_19
REMARK                            x       y       z     vdW  Elec       q    Type
REMARK                         _______ _______ _______ _____ _____    ______ ____
ROOT
ATOM      1  N3  UNL     1      14.204  12.584  36.877  0.00  0.00    -0.269 N 
ATOM      2  C8  UNL     1      14.949  11.390  36.592  0.00  0.00    +0.304 C 
ATOM      3  O2  UNL     1      14.478  10.513  35.819  0.00  0.00    -0.253 OA
ATOM      4  N4  UNL     1      16.228  11.189  37.212  0.00  0.00    -0.296 N 
ATOM      5  H9  UNL     1      14.475  13.133  37.724  0.00  0.00    +0.156 HD
ATOM      6  H10 UNL     1      16.614  11.962  37.802  0.00  0.00    +0.151 HD
ENDROOT
BRANCH   1   9
ATOM      7  C5  UNL     1      12.105  13.953  34.103  0.00  0.00    +0.127 A 
ATOM      8  C6  UNL     1      13.226  13.568  34.857  0.00  0.00    +0.056 A 
ATOM      9  C7  UNL     1      13.052  13.013  36.131  0.00  0.00    +0.038 A 
ATOM     10  C18 UNL     1      11.749  12.833  36.624  0.00  0.00    +0.043 A 
ATOM     11  C19 UNL     1      10.661  13.244  35.855  0.00  0.00    +0.113 A 
ATOM     12  N8  UNL     1      10.859  13.792  34.628  0.00  0.00    -0.250 NA
BRANCH   7  18
ATOM     13  C1  UNL     1      10.314  13.952  27.828  0.00  0.00    +0.105 C 
ATOM     14  N1  UNL     1      11.147  13.536  28.968  0.00  0.00    -0.302 NA
ATOM     15  C2  UNL     1      10.294  13.280  30.148  0.00  0.00    +0.103 C 
ATOM     16  C3  UNL     1      11.145  12.800  31.327  0.00  0.00    +0.123 C 
ATOM     17  N2  UNL     1      12.224  13.764  31.566  0.00  0.00    -0.294 N 
ATOM     18  C4  UNL     1      12.249  14.561  32.765  0.00  0.00    +0.265 C 
ATOM     19  O1  UNL     1      12.391  15.811  32.675  0.00  0.00    -0.268 OA
ATOM     20  C20 UNL     1      13.054  14.126  30.415  0.00  0.00    +0.123 C 
ATOM     21  C21 UNL     1      12.151  14.579  29.266  0.00  0.00    +0.103 C 
ENDBRANCH   7  18
ENDBRANCH   1   9
BRANCH   4  22
ATOM     22  C9  UNL     1      17.023   9.977  36.996  0.00  0.00    +0.077 C 
ATOM     23  C10 UNL     1      17.864  10.112  35.715  0.00  0.00    +0.041 C 
ATOM     24  C11 UNL     1      18.717   8.862  35.491  0.00  0.00    +0.108 C 
ATOM     25  N5  UNL     1      19.510   8.558  36.689  0.00  0.00    -0.314 N 
ATOM     26  C16 UNL     1      18.816   8.487  37.983  0.00  0.00    +0.108 C 
ATOM     27  C17 UNL     1      17.946   9.730  38.200  0.00  0.00    +0.041 C 
BRANCH  25  28
ATOM     28  C12 UNL     1      20.852   8.052  36.539  0.00  0.00    +0.144 A 
ATOM     29  C13 UNL     1      21.424   7.195  37.492  0.00  0.00    +0.047 A 
ATOM     30  C14 UNL     1      22.722   6.725  37.296  0.00  0.00    +0.025 A 
ATOM     31  C15 UNL     1      23.421   7.112  36.156  0.00  0.00    +0.135 A 
ATOM     32  N6  UNL     1      22.826   7.937  35.257  0.00  0.00    -0.156 NA
ATOM     33  N7  UNL     1      21.584   8.390  35.442  0.00  0.00    -0.134 NA
ENDBRANCH  25  28
ENDBRANCH   4  22
TORSDOF 4
ENDMDL
MODEL 2
REMARK VINA RESULT:    -6.921     12.516     16.447
REMARK INTER + INTRA:          -9.193
REMARK INTER:                  -8.471
REMARK INTRA:                  -0.722
REMARK UNBOUND:                -0.653
REMARK  Name = /home/qwerty/github/datacon2025hack/step_04_hit_selection/docking/ligands/lig_529.pdb
REMARK  5 active torsions:
REMARK  status: ('A' for Active; 'I' for Inactive)
REMARK    1  A    between atoms: C1_1  and  N1_2
REMARK    2  A    between atoms: C4_6  and  C5_8
REMARK    3  A    between atoms: C7_10  and  N3_11
REMARK    4  A    between atoms: N4_14  and  C9_15
REMARK    5  A    between atoms: N5_18  and  C12_19
REMARK                            x       y       z     vdW  Elec       q    Type
REMARK                         _______ _______ _______ _____ _____    ______ ____
ROOT
ATOM      1  N3  UNL     1      18.790  12.648  19.227  0.00  0.00    -0.269 N 
ATOM      2  C8  UNL     1      18.864  11.274  19.638  0.00  0.00    +0.304 C 
ATOM      3  O2  UNL     1      19.942  10.801  20.090  0.00  0.00    -0.253 OA
ATOM      4  N4  UNL     1      17.709  10.433  19.510  0.00  0.00    -0.296 N 
ATOM      5  H9  UNL     1      18.002  12.923  18.599  0.00  0.00    +0.156 HD
ATOM      6  H10 UNL     1      16.817  10.871  19.185  0.00  0.00    +0.151 HD
ENDROOT
BRANCH   1   9
ATOM      7  C5  UNL     1      20.921  15.008  21.192  0.00  0.00    +0.127 A 
ATOM      8  C6  UNL     1      19.927  14.071  20.866  0.00  0.00    +0.056 A 
ATOM      9  C7  UNL     1      19.783  13.640  19.542  0.00  0.00    +0.038 A 
ATOM     10  C18 UNL     1      20.654  14.143  18.562  0.00  0.00    +0.043 A 
ATOM     11  C19 UNL     1      21.617  15.087  18.919  0.00  0.00    +0.113 A 
ATOM     12  N8  UNL     1      21.725  15.498  20.209  0.00  0.00    -0.250 NA
BRANCH   7  18
ATOM     13  C1  UNL     1      23.655  14.154  27.055  0.00  0.00    +0.105 C 
ATOM     14  N1  UNL     1      22.597  13.975  26.048  0.00  0.00    -0.302 NA
ATOM     15  C2  UNL     1      23.201  13.707  24.726  0.00  0.00    +0.103 C 
ATOM     16  C3  UNL     1      22.108  13.471  23.679  0.00  0.00    +0.123 C 
ATOM     17  N2  UNL     1      21.175  14.602  23.694  0.00  0.00    -0.294 N 
ATOM     18  C4  UNL     1      21.090  15.503  22.574  0.00  0.00    +0.265 C 
ATOM     19  O1  UNL     1      21.167  16.746  22.771  0.00  0.00    -0.268 OA
ATOM     20  C20 UNL     1      20.606  14.974  24.991  0.00  0.00    +0.123 C 
ATOM     21  C21 UNL     1      21.740  15.178  25.998  0.00  0.00    +0.103 C 
ENDBRANCH   7  18
ENDBRANCH   1   9
BRANCH   4  22
ATOM     22  C9  UNL     1      17.727   9.013  19.873  0.00  0.00    +0.077 C 
ATOM     23  C10 UNL     1      16.539   8.683  20.793  0.00  0.00    +0.041 C 
ATOM     24  C11 UNL     1      16.534   7.198  21.161  0.00  0.00    +0.108 C 
ATOM     25  N5  UNL     1      16.593   6.367  19.951  0.00  0.00    -0.314 N 
ATOM     26  C16 UNL     1      17.644   6.653  18.963  0.00  0.00    +0.108 C 
ATOM     27  C17 UNL     1      17.663   8.143  18.608  0.00  0.00    +0.041 C 
BRANCH  25  28
ATOM     28  C12 UNL     1      15.841   5.138  19.900  0.00  0.00    +0.144 A 
ATOM     29  C13 UNL     1      14.437   5.136  19.909  0.00  0.00    +0.047 A 
ATOM     30  C14 UNL     1      13.756   3.922  19.849  0.00  0.00    +0.025 A 
ATOM     31  C15 UNL     1      14.482   2.737  19.777  0.00  0.00    +0.135 A 
ATOM     32  N6  UNL     1      15.840   2.785  19.765  0.00  0.00    -0.156 NA
ATOM     33  N7  UNL     1      16.495   3.947  19.823  0.00  0.00    -0.134 NA
ENDBRANCH  25  28
ENDBRANCH   4  22
TORSDOF 4
ENDMDL
MODEL 3
REMARK VINA RESULT:    -6.821     12.790     17.640
REMARK INTER + INTRA:          -9.068
REMARK INTER:                  -9.041
REMARK INTRA:                  -0.027
REMARK UNBOUND:                -0.653
REMARK  Name = /home/qwerty/github/datacon2025hack/step_04_hit_selection/docking/ligands/lig_529.pdb
REMARK  5 active torsions:
REMARK  status: ('A' for Active; 'I' for Inactive)
REMARK    1  A    between atoms: C1_1  and  N1_2
REMARK    2  A    between atoms: C4_6  and  C5_8
REMARK    3  A    between atoms: C7_10  and  N3_11
REMARK    4  A    between atoms: N4_14  and  C9_15
REMARK    5  A    between atoms: N5_18  and  C12_19
REMARK                            x       y       z     vdW  Elec       q    Type
REMARK                         _______ _______ _______ _____ _____    ______ ____
ROOT
ATOM      1  N3  UNL     1      18.852  -0.092  24.043  0.00  0.00    -0.269 N 
ATOM      2  C8  UNL     1      17.652   0.328  23.376  0.00  0.00    +0.304 C 
ATOM      3  O2  UNL     1      17.153   1.461  23.615  0.00  0.00    -0.253 OA
ATOM      4  N4  UNL     1      17.007  -0.560  22.452  0.00  0.00    -0.296 N 
ATOM      5  H9  UNL     1      19.068  -1.115  24.052  0.00  0.00    +0.156 HD
ATOM      6  H10 UNL     1      17.478  -1.468  22.235  0.00  0.00    +0.151 HD
ENDROOT
BRANCH   1   9
ATOM      7  C5  UNL     1      20.926   1.308  26.820  0.00  0.00    +0.127 A 
ATOM      8  C6  UNL     1      20.049   0.477  26.104  0.00  0.00    +0.056 A 
ATOM      9  C7  UNL     1      19.717   0.789  24.780  0.00  0.00    +0.038 A 
ATOM     10  C18 UNL     1      20.288   1.926  24.184  0.00  0.00    +0.043 A 
ATOM     11  C19 UNL     1      21.140   2.738  24.931  0.00  0.00    +0.113 A 
ATOM     12  N8  UNL     1      21.434   2.419  26.218  0.00  0.00    -0.250 NA
BRANCH   7  18
ATOM     13  C1  UNL     1      18.929   0.723  33.004  0.00  0.00    +0.105 C 
ATOM     14  N1  UNL     1      19.442   1.467  31.843  0.00  0.00    -0.302 NA
ATOM     15  C2  UNL     1      18.720   1.053  30.621  0.00  0.00    +0.103 C 
ATOM     16  C3  UNL     1      19.214   1.855  29.414  0.00  0.00    +0.123 C 
ATOM     17  N2  UNL     1      20.672   1.734  29.318  0.00  0.00    -0.294 N 
ATOM     18  C4  UNL     1      21.283   1.024  28.225  0.00  0.00    +0.265 C 
ATOM     19  O1  UNL     1      22.142   0.133  28.467  0.00  0.00    -0.268 OA
ATOM     20  C20 UNL     1      21.442   2.048  30.524  0.00  0.00    +0.123 C 
ATOM     21  C21 UNL     1      20.895   1.233  31.697  0.00  0.00    +0.103 C 
ENDBRANCH   7  18
ENDBRANCH   1   9
BRANCH   4  22
ATOM     22  C9  UNL     1      15.759  -0.210  21.767  0.00  0.00    +0.077 C 
ATOM     23  C10 UNL     1      14.671   0.149  22.793  0.00  0.00    +0.041 C 
ATOM     24  C11 UNL     1      13.370   0.540  22.089  0.00  0.00    +0.108 C 
ATOM     25  N5  UNL     1      13.617   1.593  21.095  0.00  0.00    -0.314 N 
ATOM     26  C16 UNL     1      14.694   1.385  20.116  0.00  0.00    +0.108 C 
ATOM     27  C17 UNL     1      15.993   0.976  20.818  0.00  0.00    +0.041 C 
BRANCH  25  28
ATOM     28  C12 UNL     1      12.637   2.634  20.911  0.00  0.00    +0.144 A 
ATOM     29  C13 UNL     1      12.912   3.771  20.135  0.00  0.00    +0.047 A 
ATOM     30  C14 UNL     1      11.928   4.746  19.980  0.00  0.00    +0.025 A 
ATOM     31  C15 UNL     1      10.691   4.569  20.594  0.00  0.00    +0.135 A 
ATOM     32  N6  UNL     1      10.466   3.451  21.331  0.00  0.00    -0.156 NA
ATOM     33  N7  UNL     1      11.407   2.516  21.483  0.00  0.00    -0.134 NA
ENDBRANCH  25  28
ENDBRANCH   4  22
TORSDOF 4
ENDMDL
MODEL 4
REMARK VINA RESULT:    -6.741     15.102     17.221
REMARK INTER + INTRA:          -8.971
REMARK INTER:                  -8.349
REMARK INTRA:                  -0.622
REMARK UNBOUND:                -0.653
REMARK  Name = /home/qwerty/github/datacon2025hack/step_04_hit_selection/docking/ligands/lig_529.pdb
REMARK  5 active torsions:
REMARK  status: ('A' for Active; 'I' for Inactive)
REMARK    1  A    between atoms: C1_1  and  N1_2
REMARK    2  A    between atoms: C4_6  and  C5_8
REMARK    3  A    between atoms: C7_10  and  N3_11
REMARK    4  A    between atoms: N4_14  and  C9_15
REMARK    5  A    between atoms: N5_18  and  C12_19
REMARK                            x       y       z     vdW  Elec       q    Type
REMARK                         _______ _______ _______ _____ _____    ______ ____
ROOT
ATOM      1  N3  UNL     1      15.478   5.536  19.229  0.00  0.00    -0.269 N 
ATOM      2  C8  UNL     1      16.482   6.392  19.795  0.00  0.00    +0.304 C 
ATOM      3  O2  UNL     1      16.956   6.150  20.938  0.00  0.00    -0.253 OA
ATOM      4  N4  UNL     1      16.928   7.541  19.061  0.00  0.00    -0.296 N 
ATOM      5  H9  UNL     1      14.907   5.916  18.441  0.00  0.00    +0.156 HD
ATOM      6  H10 UNL     1      16.557   7.680  18.094  0.00  0.00    +0.151 HD
ENDROOT
BRANCH   1   9
ATOM      7  C5  UNL     1      13.501   2.725  20.701  0.00  0.00    +0.127 A 
ATOM      8  C6  UNL     1      13.852   4.003  20.235  0.00  0.00    +0.056 A 
ATOM      9  C7  UNL     1      15.143   4.235  19.743  0.00  0.00    +0.038 A 
ATOM     10  C18 UNL     1      16.061   3.173  19.708  0.00  0.00    +0.043 A 
ATOM     11  C19 UNL     1      15.683   1.923  20.197  0.00  0.00    +0.113 A 
ATOM     12  N8  UNL     1      14.429   1.729  20.680  0.00  0.00    -0.250 NA
BRANCH   7  18
ATOM     13  C1  UNL     1       9.752   1.934  25.982  0.00  0.00    +0.105 C 
ATOM     14  N1  UNL     1      10.649   1.469  24.914  0.00  0.00    -0.302 NA
ATOM     15  C2  UNL     1      11.757   2.430  24.732  0.00  0.00    +0.103 C 
ATOM     16  C3  UNL     1      12.724   1.931  23.654  0.00  0.00    +0.123 C 
ATOM     17  N2  UNL     1      11.973   1.645  22.428  0.00  0.00    -0.294 N 
ATOM     18  C4  UNL     1      12.157   2.446  21.246  0.00  0.00    +0.265 C 
ATOM     19  O1  UNL     1      11.150   2.928  20.661  0.00  0.00    -0.268 OA
ATOM     20  C20 UNL     1      10.809   0.765  22.556  0.00  0.00    +0.123 C 
ATOM     21  C21 UNL     1       9.891   1.301  23.656  0.00  0.00    +0.103 C 
ENDBRANCH   7  18
ENDBRANCH   1   9
BRANCH   4  22
ATOM     22  C9  UNL     1      17.922   8.478  19.596  0.00  0.00    +0.077 C 
ATOM     23  C10 UNL     1      19.229   8.386  18.790  0.00  0.00    +0.041 C 
ATOM     24  C11 UNL     1      20.266   9.376  19.324  0.00  0.00    +0.108 C 
ATOM     25  N5  UNL     1      19.702  10.731  19.384  0.00  0.00    -0.314 N 
ATOM     26  C16 UNL     1      18.411  10.917  20.061  0.00  0.00    +0.108 C 
ATOM     27  C17 UNL     1      17.376   9.913  19.541  0.00  0.00    +0.041 C 
BRANCH  25  28
ATOM     28  C12 UNL     1      20.539  11.859  19.058  0.00  0.00    +0.144 A 
ATOM     29  C13 UNL     1      19.993  13.123  18.784  0.00  0.00    +0.047 A 
ATOM     30  C14 UNL     1      20.844  14.184  18.484  0.00  0.00    +0.025 A 
ATOM     31  C15 UNL     1      22.219  13.969  18.467  0.00  0.00    +0.135 A 
ATOM     32  N6  UNL     1      22.705  12.732  18.744  0.00  0.00    -0.156 NA
ATOM     33  N7  UNL     1      21.892  11.713  19.031  0.00  0.00    -0.134 NA
ENDBRANCH  25  28
ENDBRANCH   4  22
TORSDOF 4
ENDMDL
MODEL 5
REMARK VINA RESULT:    -6.730     13.043     15.090
REMARK INTER + INTRA:          -8.956
REMARK INTER:                  -8.201
REMARK INTRA:                  -0.755
REMARK UNBOUND:                -0.653
REMARK  Name = /home/qwerty/github/datacon2025hack/step_04_hit_selection/docking/ligands/lig_529.pdb
REMARK  5 active torsions:
REMARK  status: ('A' for Active; 'I' for Inactive)
REMARK    1  A    between atoms: C1_1  and  N1_2
REMARK    2  A    between atoms: C4_6  and  C5_8
REMARK    3  A    between atoms: C7_10  and  N3_11
REMARK    4  A    between atoms: N4_14  and  C9_15
REMARK    5  A    between atoms: N5_18  and  C12_19
REMARK                            x       y       z     vdW  Elec       q    Type
REMARK                         _______ _______ _______ _____ _____    ______ ____
ROOT
ATOM      1  N3  UNL     1      23.067   6.879  22.681  0.00  0.00    -0.269 N 
ATOM      2  C8  UNL     1      22.180   5.909  23.259  0.00  0.00    +0.304 C 
ATOM      3  O2  UNL     1      21.115   5.586  22.666  0.00  0.00    -0.253 OA
ATOM      4  N4  UNL     1      22.501   5.324  24.529  0.00  0.00    -0.296 N 
ATOM      5  H9  UNL     1      23.764   7.334  23.313  0.00  0.00    +0.156 HD
ATOM      6  H10 UNL     1      23.419   5.572  24.965  0.00  0.00    +0.151 HD
ENDROOT
BRANCH   1   9
ATOM      7  C5  UNL     1      22.214   8.974  19.705  0.00  0.00    +0.127 A 
ATOM      8  C6  UNL     1      22.263   8.496  21.025  0.00  0.00    +0.056 A 
ATOM      9  C7  UNL     1      22.988   7.335  21.319  0.00  0.00    +0.038 A 
ATOM     10  C18 UNL     1      23.673   6.678  20.284  0.00  0.00    +0.043 A 
ATOM     11  C19 UNL     1      23.586   7.170  18.982  0.00  0.00    +0.113 A 
ATOM     12  N8  UNL     1      22.864   8.291  18.723  0.00  0.00    -0.250 NA
BRANCH   7  18
ATOM     13  C1  UNL     1      22.278  15.371  18.418  0.00  0.00    +0.105 C 
ATOM     14  N1  UNL     1      22.185  14.199  19.303  0.00  0.00    -0.302 NA
ATOM     15  C2  UNL     1      23.194  13.191  18.911  0.00  0.00    +0.103 C 
ATOM     16  C3  UNL     1      23.138  11.987  19.856  0.00  0.00    +0.123 C 
ATOM     17  N2  UNL     1      21.766  11.473  19.901  0.00  0.00    -0.294 N 
ATOM     18  C4  UNL     1      21.442  10.183  19.351  0.00  0.00    +0.265 C 
ATOM     19  O1  UNL     1      20.481  10.077  18.542  0.00  0.00    -0.268 OA
ATOM     20  C20 UNL     1      20.708  12.441  20.200  0.00  0.00    +0.123 C 
ATOM     21  C21 UNL     1      20.823  13.626  19.241  0.00  0.00    +0.103 C 
ENDBRANCH   7  18
ENDBRANCH   1   9
BRANCH   4  22
ATOM     22  C9  UNL     1      21.621   4.358  25.193  0.00  0.00    +0.077 C 
ATOM     23  C10 UNL     1      22.392   3.065  25.509  0.00  0.00    +0.041 C 
ATOM     24  C11 UNL     1      21.491   2.056  26.224  0.00  0.00    +0.108 C 
ATOM     25  N5  UNL     1      20.861   2.671  27.400  0.00  0.00    -0.314 N 
ATOM     26  C16 UNL     1      20.166   3.955  27.225  0.00  0.00    +0.108 C 
ATOM     27  C17 UNL     1      21.061   4.960  26.491  0.00  0.00    +0.041 C 
BRANCH  25  28
ATOM     28  C12 UNL     1      20.679   1.886  28.596  0.00  0.00    +0.144 A 
ATOM     29  C13 UNL     1      19.526   2.011  29.387  0.00  0.00    +0.047 A 
ATOM     30  C14 UNL     1      19.393   1.222  30.528  0.00  0.00    +0.025 A 
ATOM     31  C15 UNL     1      20.404   0.324  30.856  0.00  0.00    +0.135 A 
ATOM     32  N6  UNL     1      21.499   0.231  30.059  0.00  0.00    -0.156 NA
ATOM     33  N7  UNL     1      21.630   0.986  28.966  0.00  0.00    -0.134 NA
ENDBRANCH  25  28
ENDBRANCH   4  22
TORSDOF 4
ENDMDL
MODEL 6
REMARK VINA RESULT:    -6.703      4.131     11.317
REMARK INTER + INTRA:          -8.923
REMARK INTER:                  -8.200
REMARK INTRA:                  -0.723
REMARK UNBOUND:                -0.653
REMARK  Name = /home/qwerty/github/datacon2025hack/step_04_hit_selection/docking/ligands/lig_529.pdb
REMARK  5 active torsions:
REMARK  status: ('A' for Active; 'I' for Inactive)
REMARK    1  A    between atoms: C1_1  and  N1_2
REMARK    2  A    between atoms: C4_6  and  C5_8
REMARK    3  A    between atoms: C7_10  and  N3_11
REMARK    4  A    between atoms: N4_14  and  C9_15
REMARK    5  A    between atoms: N5_18  and  C12_19
REMARK                            x       y       z     vdW  Elec       q    Type
REMARK                         _______ _______ _______ _____ _____    ______ ____
ROOT
ATOM      1  N3  UNL     1      19.941   7.496  36.686  0.00  0.00    -0.269 N 
ATOM      2  C8  UNL     1      19.196   8.636  36.234  0.00  0.00    +0.304 C 
ATOM      3  O2  UNL     1      19.658   9.383  35.329  0.00  0.00    -0.253 OA
ATOM      4  N4  UNL     1      17.928   8.936  36.835  0.00  0.00    -0.296 N 
ATOM      5  H9  UNL     1      19.682   7.084  37.611  0.00  0.00    +0.156 HD
ATOM      6  H10 UNL     1      17.548   8.265  37.541  0.00  0.00    +0.151 HD
ENDROOT
BRANCH   1   9
ATOM      7  C5  UNL     1      21.994   5.732  34.108  0.00  0.00    +0.127 A 
ATOM      8  C6  UNL     1      20.887   6.233  34.811  0.00  0.00    +0.056 A 
ATOM      9  C7  UNL     1      21.080   6.951  35.997  0.00  0.00    +0.038 A 
ATOM     10  C18 UNL     1      22.390   7.174  36.454  0.00  0.00    +0.043 A 
ATOM     11  C19 UNL     1      23.465   6.645  35.739  0.00  0.00    +0.113 A 
ATOM     12  N8  UNL     1      23.247   5.941  34.599  0.00  0.00    -0.250 NA
BRANCH   7  18
ATOM     13  C1  UNL     1      19.785   0.289  31.268  0.00  0.00    +0.105 C 
ATOM     14  N1  UNL     1      20.796   1.107  31.955  0.00  0.00    -0.302 NA
ATOM     15  C2  UNL     1      20.165   1.869  33.054  0.00  0.00    +0.103 C 
ATOM     16  C3  UNL     1      21.218   2.688  33.806  0.00  0.00    +0.123 C 
ATOM     17  N2  UNL     1      21.957   3.518  32.849  0.00  0.00    -0.294 N 
ATOM     18  C4  UNL     1      21.830   4.952  32.864  0.00  0.00    +0.265 C 
ATOM     19  O1  UNL     1      21.567   5.562  31.793  0.00  0.00    -0.268 OA
ATOM     20  C20 UNL     1      22.535   2.834  31.690  0.00  0.00    +0.123 C 
ATOM     21  C21 UNL     1      21.445   2.021  30.991  0.00  0.00    +0.103 C 
ENDBRANCH   7  18
ENDBRANCH   1   9
BRANCH   4  22
ATOM     22  C9  UNL     1      17.133  10.106  36.449  0.00  0.00    +0.077 C 
ATOM     23  C10 UNL     1      16.014   9.694  35.477  0.00  0.00    +0.041 C 
ATOM     24  C11 UNL     1      15.163  10.903  35.085  0.00  0.00    +0.108 C 
ATOM     25  N5  UNL     1      14.678  11.602  36.282  0.00  0.00    -0.314 N 
ATOM     26  C16 UNL     1      15.657  11.970  37.316  0.00  0.00    +0.108 C 
ATOM     27  C17 UNL     1      16.523  10.765  37.696  0.00  0.00    +0.041 C 
BRANCH  25  28
ATOM     28  C12 UNL     1      13.351  12.165  36.283  0.00  0.00    +0.144 A 
ATOM     29  C13 UNL     1      12.276  11.509  36.903  0.00  0.00    +0.047 A 
ATOM     30  C14 UNL     1      11.014  12.100  36.884  0.00  0.00    +0.025 A 
ATOM     31  C15 UNL     1      10.847  13.330  36.255  0.00  0.00    +0.135 A 
ATOM     32  N6  UNL     1      11.916  13.932  35.672  0.00  0.00    -0.156 NA
ATOM     33  N7  UNL     1      13.126  13.369  35.688  0.00  0.00    -0.134 NA
ENDBRANCH  25  28
ENDBRANCH   4  22
TORSDOF 4
ENDMDL
MODEL 7
REMARK VINA RESULT:    -6.678      2.747      5.331
REMARK INTER + INTRA:          -8.892
REMARK INTER:                  -8.836
REMARK INTRA:                  -0.056
REMARK UNBOUND:                -0.653
REMARK  Name = /home/qwerty/github/datacon2025hack/step_04_hit_selection/docking/ligands/lig_529.pdb
REMARK  5 active torsions:
REMARK  status: ('A' for Active; 'I' for Inactive)
REMARK    1  A    between atoms: C1_1  and  N1_2
REMARK    2  A    between atoms: C4_6  and  C5_8
REMARK    3  A    between atoms: C7_10  and  N3_11
REMARK    4  A    between atoms: N4_14  and  C9_15
REMARK    5  A    between atoms: N5_18  and  C12_19
REMARK                            x       y       z     vdW  Elec       q    Type
REMARK                         _______ _______ _______ _____ _____    ______ ____
ROOT
ATOM      1  N3  UNL     1      11.904  14.857  32.961  0.00  0.00    -0.269 N 
ATOM      2  C8  UNL     1      12.802  14.201  33.869  0.00  0.00    +0.304 C 
ATOM      3  O2  UNL     1      13.327  13.097  33.561  0.00  0.00    -0.253 OA
ATOM      4  N4  UNL     1      13.081  14.799  35.143  0.00  0.00    -0.296 N 
ATOM      5  H9  UNL     1      11.273  15.593  33.351  0.00  0.00    +0.156 HD
ATOM      6  H10 UNL     1      12.675  15.741  35.343  0.00  0.00    +0.151 HD
ENDROOT
BRANCH   1   9
ATOM      7  C5  UNL     1      10.425  13.475  29.818  0.00  0.00    +0.127 A 
ATOM      8  C6  UNL     1      10.607  13.796  31.173  0.00  0.00    +0.056 A 
ATOM      9  C7  UNL     1      11.750  14.497  31.577  0.00  0.00    +0.038 A 
ATOM     10  C18 UNL     1      12.690  14.884  30.608  0.00  0.00    +0.043 A 
ATOM     11  C19 UNL     1      12.486  14.532  29.274  0.00  0.00    +0.113 A 
ATOM     12  N8  UNL     1      11.374  13.840  28.913  0.00  0.00    -0.250 NA
BRANCH   7  18
ATOM     13  C1  UNL     1       7.171   7.820  29.781  0.00  0.00    +0.105 C 
ATOM     14  N1  UNL     1       8.158   8.783  29.269  0.00  0.00    -0.302 NA
ATOM     15  C2  UNL     1       8.905   9.384  30.394  0.00  0.00    +0.103 C 
ATOM     16  C3  UNL     1       9.969  10.353  29.869  0.00  0.00    +0.123 C 
ATOM     17  N2  UNL     1       9.333  11.332  28.982  0.00  0.00    -0.294 N 
ATOM     18  C4  UNL     1       9.243  12.719  29.357  0.00  0.00    +0.265 C 
ATOM     19  O1  UNL     1       8.129  13.307  29.296  0.00  0.00    -0.268 OA
ATOM     20  C20 UNL     1       8.507  10.800  27.895  0.00  0.00    +0.123 C 
ATOM     21  C21 UNL     1       7.478   9.828  28.474  0.00  0.00    +0.103 C 
ENDBRANCH   7  18
ENDBRANCH   1   9
BRANCH   4  22
ATOM     22  C9  UNL     1      13.957  14.164  36.133  0.00  0.00    +0.077 C 
ATOM     23  C10 UNL     1      13.689  12.651  36.190  0.00  0.00    +0.041 C 
ATOM     24  C11 UNL     1      14.614  11.973  37.203  0.00  0.00    +0.108 C 
ATOM     25  N5  UNL     1      16.016  12.315  36.930  0.00  0.00    -0.314 N 
ATOM     26  C16 UNL     1      16.368  13.734  36.775  0.00  0.00    +0.108 C 
ATOM     27  C17 UNL     1      15.430  14.418  35.775  0.00  0.00    +0.041 C 
BRANCH  25  28
ATOM     28  C12 UNL     1      17.036  11.313  37.116  0.00  0.00    +0.144 A 
ATOM     29  C13 UNL     1      16.889  10.282  38.057  0.00  0.00    +0.047 A 
ATOM     30  C14 UNL     1      17.900   9.333  38.192  0.00  0.00    +0.025 A 
ATOM     31  C15 UNL     1      19.032   9.424  37.388  0.00  0.00    +0.135 A 
ATOM     32  N6  UNL     1      19.130  10.435  36.486  0.00  0.00    -0.156 NA
ATOM     33  N7  UNL     1      18.164  11.346  36.355  0.00  0.00    -0.134 NA
ENDBRANCH  25  28
ENDBRANCH   4  22
TORSDOF 4
ENDMDL
MODEL 8
REMARK VINA RESULT:    -6.536     12.877     18.047
REMARK INTER + INTRA:          -8.717
REMARK INTER:                  -8.643
REMARK INTRA:                  -0.074
REMARK UNBOUND:                -0.653
REMARK  Name = /home/qwerty/github/datacon2025hack/step_04_hit_selection/docking/ligands/lig_529.pdb
REMARK  5 active torsions:
REMARK  status: ('A' for Active; 'I' for Inactive)
REMARK    1  A    between atoms: C1_1  and  N1_2
REMARK    2  A    between atoms: C4_6  and  C5_8
REMARK    3  A    between atoms: C7_10  and  N3_11
REMARK    4  A    between atoms: N4_14  and  C9_15
REMARK    5  A    between atoms: N5_18  and  C12_19
REMARK                            x       y       z     vdW  Elec       q    Type
REMARK                         _______ _______ _______ _____ _____    ______ ____
ROOT
ATOM      1  N3  UNL     1      12.388   3.660  19.584  0.00  0.00    -0.269 N 
ATOM      2  C8  UNL     1      11.540   4.494  20.389  0.00  0.00    +0.304 C 
ATOM      3  O2  UNL     1      11.916   4.872  21.531  0.00  0.00    -0.253 OA
ATOM      4  N4  UNL     1      10.249   4.876  19.894  0.00  0.00    -0.296 N 
ATOM      5  H9  UNL     1      11.944   3.133  18.799  0.00  0.00    +0.156 HD
ATOM      6  H10 UNL     1       9.992   4.593  18.921  0.00  0.00    +0.151 HD
ENDROOT
BRANCH   1   9
ATOM      7  C5  UNL     1      15.564   1.902  20.479  0.00  0.00    +0.127 A 
ATOM      8  C6  UNL     1      14.200   2.152  20.254  0.00  0.00    +0.056 A 
ATOM      9  C7  UNL     1      13.782   3.427  19.853  0.00  0.00    +0.038 A 
ATOM     10  C18 UNL     1      14.744   4.433  19.665  0.00  0.00    +0.043 A 
ATOM     11  C19 UNL     1      16.087   4.153  19.916  0.00  0.00    +0.113 A 
ATOM     12  N8  UNL     1      16.463   2.912  20.317  0.00  0.00    -0.250 NA
BRANCH   7  18
ATOM     13  C1  UNL     1      15.294  -2.839  24.954  0.00  0.00    +0.105 C 
ATOM     14  N1  UNL     1      15.818  -1.592  24.377  0.00  0.00    -0.302 NA
ATOM     15  C2  UNL     1      14.703  -0.759  23.878  0.00  0.00    +0.103 C 
ATOM     16  C3  UNL     1      15.234   0.563  23.317  0.00  0.00    +0.123 C 
ATOM     17  N2  UNL     1      16.265   0.281  22.314  0.00  0.00    -0.294 N 
ATOM     18  C4  UNL     1      16.042   0.577  20.923  0.00  0.00    +0.265 C 
ATOM     19  O1  UNL     1      16.253  -0.315  20.058  0.00  0.00    -0.268 OA
ATOM     20  C20 UNL     1      17.356  -0.608  22.720  0.00  0.00    +0.123 C 
ATOM     21  C21 UNL     1      16.768  -1.901  23.286  0.00  0.00    +0.103 C 
ENDBRANCH   7  18
ENDBRANCH   1   9
BRANCH   4  22
ATOM     22  C9  UNL     1       9.318   5.693  20.679  0.00  0.00    +0.077 C 
ATOM     23  C10 UNL     1       9.214   5.152  22.115  0.00  0.00    +0.041 C 
ATOM     24  C11 UNL     1       8.263   6.011  22.951  0.00  0.00    +0.108 C 
ATOM     25  N5  UNL     1       8.649   7.426  22.879  0.00  0.00    -0.314 N 
ATOM     26  C16 UNL     1       8.856   8.024  21.552  0.00  0.00    +0.108 C 
ATOM     27  C17 UNL     1       9.793   7.155  20.707  0.00  0.00    +0.041 C 
BRANCH  25  28
ATOM     28  C12 UNL     1       8.524   8.253  24.054  0.00  0.00    +0.144 A 
ATOM     29  C13 UNL     1       8.978   7.818  25.309  0.00  0.00    +0.047 A 
ATOM     30  C14 UNL     1       8.843   8.658  26.412  0.00  0.00    +0.025 A 
ATOM     31  C15 UNL     1       8.264   9.913  26.246  0.00  0.00    +0.135 A 
ATOM     32  N6  UNL     1       7.844  10.296  25.012  0.00  0.00    -0.156 NA
ATOM     33  N7  UNL     1       7.972   9.493  23.953  0.00  0.00    -0.134 NA
ENDBRANCH  25  28
ENDBRANCH   4  22
TORSDOF 4
ENDMDL
MODEL 9
REMARK VINA RESULT:    -6.513      8.788     13.148
REMARK INTER + INTRA:          -8.689
REMARK INTER:                  -7.986
REMARK INTRA:                  -0.703
REMARK UNBOUND:                -0.653
REMARK  Name = /home/qwerty/github/datacon2025hack/step_04_hit_selection/docking/ligands/lig_529.pdb
REMARK  5 active torsions:
REMARK  status: ('A' for Active; 'I' for Inactive)
REMARK    1  A    between atoms: C1_1  and  N1_2
REMARK    2  A    between atoms: C4_6  and  C5_8
REMARK    3  A    between atoms: C7_10  and  N3_11
REMARK    4  A    between atoms: N4_14  and  C9_15
REMARK    5  A    between atoms: N5_18  and  C12_19
REMARK                            x       y       z     vdW  Elec       q    Type
REMARK                         _______ _______ _______ _____ _____    ______ ____
ROOT
ATOM      1  N3  UNL     1      19.627  15.282  28.207  0.00  0.00    -0.269 N 
ATOM      2  C8  UNL     1      18.438  14.580  27.815  0.00  0.00    +0.304 C 
ATOM      3  O2  UNL     1      18.494  13.661  26.954  0.00  0.00    -0.253 OA
ATOM      4  N4  UNL     1      17.177  14.948  28.393  0.00  0.00    -0.296 N 
ATOM      5  H9  UNL     1      19.510  16.206  28.680  0.00  0.00    +0.156 HD
ATOM      6  H10 UNL     1      17.174  15.674  29.144  0.00  0.00    +0.151 HD
ENDROOT
BRANCH   1   9
ATOM      7  C5  UNL     1      22.856  14.814  26.382  0.00  0.00    +0.127 A 
ATOM      8  C6  UNL     1      21.538  15.202  26.675  0.00  0.00    +0.056 A 
ATOM      9  C7  UNL     1      20.962  14.843  27.899  0.00  0.00    +0.038 A 
ATOM     10  C18 UNL     1      21.725  14.112  28.824  0.00  0.00    +0.043 A 
ATOM     11  C19 UNL     1      23.024  13.728  28.491  0.00  0.00    +0.113 A 
ATOM     12  N8  UNL     1      23.554  14.079  27.291  0.00  0.00    -0.250 NA
BRANCH   7  18
ATOM     13  C1  UNL     1      22.834  14.182  19.887  0.00  0.00    +0.105 C 
ATOM     14  N1  UNL     1      23.208  13.789  21.255  0.00  0.00    -0.302 NA
ATOM     15  C2  UNL     1      22.039  13.911  22.151  0.00  0.00    +0.103 C 
ATOM     16  C3  UNL     1      22.405  13.458  23.568  0.00  0.00    +0.123 C 
ATOM     17  N2  UNL     1      23.587  14.200  24.020  0.00  0.00    -0.294 N 
ATOM     18  C4  UNL     1      23.492  15.156  25.093  0.00  0.00    +0.265 C 
ATOM     19  O1  UNL     1      23.956  16.317  24.931  0.00  0.00    -0.268 OA
ATOM     20  C20 UNL     1      24.753  14.190  23.134  0.00  0.00    +0.123 C 
ATOM     21  C21 UNL     1      24.325  14.632  21.734  0.00  0.00    +0.103 C 
ENDBRANCH   7  18
ENDBRANCH   1   9
BRANCH   4  22
ATOM     22  C9  UNL     1      15.919  14.299  28.009  0.00  0.00    +0.077 C 
ATOM     23  C10 UNL     1      15.360  13.482  29.187  0.00  0.00    +0.041 C 
ATOM     24  C11 UNL     1      14.034  12.820  28.806  0.00  0.00    +0.108 C 
ATOM     25  N5  UNL     1      13.093  13.816  28.278  0.00  0.00    -0.314 N 
ATOM     26  C16 UNL     1      13.554  14.706  27.203  0.00  0.00    +0.108 C 
ATOM     27  C17 UNL     1      14.891  15.356  27.575  0.00  0.00    +0.041 C 
BRANCH  25  28
ATOM     28  C12 UNL     1      11.691  13.703  28.598  0.00  0.00    +0.144 A 
ATOM     29  C13 UNL     1      10.721  13.543  27.596  0.00  0.00    +0.047 A 
ATOM     30  C14 UNL     1       9.380  13.429  27.957  0.00  0.00    +0.025 A 
ATOM     31  C15 UNL     1       9.032  13.471  29.304  0.00  0.00    +0.135 A 
ATOM     32  N6  UNL     1      10.004  13.620  30.241  0.00  0.00    -0.156 NA
ATOM     33  N7  UNL     1      11.289  13.731  29.898  0.00  0.00    -0.134 NA
ENDBRANCH  25  28
ENDBRANCH   4  22
TORSDOF 4
ENDMDL
