REMARK  Name = /home/qwerty/github/datacon2025hack/step_04_hit_selection/docking/ligands/lig_77.pdb
REMARK  3 active torsions:
REMARK  status: ('A' for Active; 'I' for Inactive)
REMARK    1  A    between atoms: C1_1  and  C2_2
REMARK    2  A    between atoms: C5_5  and  C6_6
REMARK    3  A    between atoms: N6_23  and  C17_24
REMARK                            x       y       z     vdW  Elec       q    Type
REMARK                         _______ _______ _______ _____ _____    ______ ____
ROOT
ATOM      1  C6  UNL     1       2.901   0.056   1.063  0.00  0.00    +0.172 A 
ATOM      2  N1  UNL     1       2.375  -0.181   2.282  0.00  0.00    -0.127 NA
ATOM      3  N2  UNL     1       1.061  -0.059   2.176  0.00  0.00    -0.113 NA
ATOM      4  C7  UNL     1       0.802   0.249   0.891  0.00  0.00    +0.220 A 
ATOM      5  N3  UNL     1      -0.530   0.431   0.383  0.00  0.00    -0.297 N 
ATOM      6  C8  UNL     1      -0.940  -0.187  -0.884  0.00  0.00    +0.127 C 
ATOM      7  C9  UNL     1      -2.301  -0.869  -0.722  0.00  0.00    +0.125 C 
ATOM      8  N4  UNL     1      -3.286   0.033  -0.105  0.00  0.00    -0.310 N 
ATOM      9  C10 UNL     1      -4.674  -0.356  -0.106  0.00  0.00    +0.157 A 
ATOM     10  N5  UNL     1      -4.998  -1.671   0.057  0.00  0.00    -0.237 NA
ATOM     11  C11 UNL     1      -6.286  -2.106   0.060  0.00  0.00    +0.113 A 
ATOM     12  C12 UNL     1      -7.330  -1.198  -0.112  0.00  0.00    +0.023 A 
ATOM     13  C13 UNL     1      -7.035   0.153  -0.297  0.00  0.00    +0.043 A 
ATOM     14  C14 UNL     1      -5.706   0.584  -0.301  0.00  0.00    +0.163 A 
ATOM     15  F1  UNL     1      -5.436   1.893  -0.536  0.00  0.00    -0.202 F 
ATOM     16  C15 UNL     1      -2.854   1.302   0.499  0.00  0.00    +0.125 C 
ATOM     17  C16 UNL     1      -1.514   1.127   1.222  0.00  0.00    +0.127 C 
ATOM     18  N6  UNL     1       1.936   0.349   0.162  0.00  0.00    -0.298 N 
ATOM     19  C17 UNL     1       2.085   0.812  -1.218  0.00  0.00    +0.154 C 
ENDROOT
BRANCH   1  24
ATOM     20  C1  UNL     1       7.895  -0.418  -0.951  0.00  0.00    +0.051 C 
ATOM     21  C2  UNL     1       6.667  -0.306  -0.112  0.00  0.00    -0.013 A 
ATOM     22  C3  UNL     1       6.637  -0.140   1.267  0.00  0.00    +0.011 A 
ATOM     23  C4  UNL     1       5.342   0.002   1.777  0.00  0.00    +0.019 A 
ATOM     24  C5  UNL     1       4.352  -0.020   0.798  0.00  0.00    +0.057 A 
ATOM     25  S1  UNL     1       5.094  -0.245  -0.700  0.00  0.00    -0.090 S 
ENDBRANCH   1  24
TORSDOF 1
