REMARK  Name = /home/qwerty/github/datacon2025hack/step_04_hit_selection/docking/ligands/lig_377.pdb
REMARK  5 active torsions:
REMARK  status: ('A' for Active; 'I' for Inactive)
REMARK    1  A    between atoms: C1_1  and  C2_2
REMARK    2  A    between atoms: C7_8  and  N1_9
REMARK    3  A    between atoms: N2_12  and  C9_13
REMARK    4  A    between atoms: C12_16  and  N3_17
REMARK    5  A    between atoms: N4_20  and  C15_21
REMARK                            x       y       z     vdW  Elec       q    Type
REMARK                         _______ _______ _______ _____ _____    ______ ____
ROOT
ATOM      1  N1  UNL     1       4.367  -1.065  -0.589  0.00  0.00    -0.269 N 
ATOM      2  C8  UNL     1       3.039  -0.637  -0.259  0.00  0.00    +0.308 C 
ATOM      3  O1  UNL     1       2.846   0.514   0.220  0.00  0.00    -0.252 OA
ATOM      4  N2  UNL     1       1.937  -1.534  -0.460  0.00  0.00    -0.269 N 
ATOM      5  H7  UNL     1       4.477  -1.909  -1.195  0.00  0.00    +0.156 HD
ATOM      6  H8  UNL     1       2.158  -2.548  -0.589  0.00  0.00    +0.156 HD
ENDROOT
BRANCH   1  14
ATOM      7  C1  UNL     1       5.156  -0.342   2.172  0.00  0.00    +0.048 C 
ATOM      8  C2  UNL     1       5.912   0.130   0.958  0.00  0.00    +0.006 A 
ATOM      9  C3  UNL     1       7.028   0.973   1.125  0.00  0.00    +0.128 A 
ATOM     10  F1  UNL     1       7.405   1.385   2.363  0.00  0.00    -0.205 F 
ATOM     11  C4  UNL     1       7.773   1.388   0.017  0.00  0.00    +0.039 A 
ATOM     12  C5  UNL     1       7.414   0.972  -1.265  0.00  0.00    +0.005 A 
ATOM     13  C6  UNL     1       6.296   0.157  -1.449  0.00  0.00    +0.024 A 
ATOM     14  C7  UNL     1       5.522  -0.246  -0.352  0.00  0.00    +0.040 A 
ENDBRANCH   1  14
BRANCH   4  15
ATOM     15  C9  UNL     1       0.554  -1.148  -0.371  0.00  0.00    +0.035 A 
ATOM     16  C10 UNL     1      -0.389  -2.072   0.098  0.00  0.00    +0.025 A 
ATOM     17  C11 UNL     1      -1.742  -1.731   0.172  0.00  0.00    +0.025 A 
ATOM     18  C12 UNL     1      -2.182  -0.459  -0.235  0.00  0.00    +0.030 A 
ATOM     19  C18 UNL     1      -1.237   0.456  -0.733  0.00  0.00    +0.025 A 
ATOM     20  C19 UNL     1       0.116   0.114  -0.806  0.00  0.00    +0.025 A 
BRANCH  18  21
ATOM     21  N3  UNL     1      -3.582  -0.109  -0.165  0.00  0.00    -0.327 N 
ATOM     22  C13 UNL     1      -4.606  -1.109  -0.495  0.00  0.00    +0.120 C 
ATOM     23  C14 UNL     1      -5.942  -0.431  -0.808  0.00  0.00    +0.103 C 
ATOM     24  N4  UNL     1      -6.378   0.420   0.318  0.00  0.00    -0.302 NA
ATOM     25  C15 UNL     1      -7.573   1.190  -0.062  0.00  0.00    +0.105 C 
ATOM     26  C16 UNL     1      -5.317   1.301   0.878  0.00  0.00    +0.103 C 
ATOM     27  C17 UNL     1      -3.997   1.276   0.091  0.00  0.00    +0.120 C 
ENDBRANCH  18  21
ENDBRANCH   4  15
TORSDOF 3
