MODEL 1
REMARK VINA RESULT:    -7.637      0.000      0.000
REMARK INTER + INTRA:         -10.928
REMARK INTER:                  -9.869
REMARK INTRA:                  -1.059
REMARK UNBOUND:                -1.059
REMARK  Name = /home/qwerty/github/datacon2025hack/step_04_hit_selection/docking/ligands/lig_382.pdb
REMARK  6 active torsions:
REMARK  status: ('A' for Active; 'I' for Inactive)
REMARK    1  A    between atoms: C1_1  and  C2_2
REMARK    2  A    between atoms: C6_6  and  N1_7
REMARK    3  A    between atoms: C11_14  and  C12_15
REMARK    4  A    between atoms: N3_17  and  C13_18
REMARK    5  A    between atoms: C16_21  and  N4_22
REMARK    6  A    between atoms: C19_25  and  N5_26
REMARK                            x       y       z     vdW  Elec       q    Type
REMARK                         _______ _______ _______ _____ _____    ______ ____
ROOT
ATOM      1  C12 UNL     1      17.570   6.202  20.433  0.00  0.00    +0.222 C 
ATOM      2  O2  UNL     1      18.079   6.598  21.515  0.00  0.00    -0.275 OA
ATOM      3  N3  UNL     1      17.522   7.071  19.286  0.00  0.00    -0.285 N 
ATOM      4  H15 UNL     1      16.906   6.791  18.491  0.00  0.00    +0.155 HD
ENDROOT
BRANCH   1  12
ATOM      5  N1  UNL     1      15.007   0.948  22.529  0.00  0.00    -0.269 N 
ATOM      6  C7  UNL     1      15.761   2.169  22.636  0.00  0.00    +0.306 C 
ATOM      7  O1  UNL     1      16.599   2.294  23.572  0.00  0.00    -0.252 OA
ATOM      8  N2  UNL     1      15.554   3.258  21.709  0.00  0.00    -0.285 N 
ATOM      9  C8  UNL     1      14.480   3.185  20.704  0.00  0.00    +0.109 C 
ATOM     10  C9  UNL     1      14.448   4.432  19.810  0.00  0.00    +0.020 C 
ATOM     11  C10 UNL     1      15.846   4.745  19.267  0.00  0.00    +0.016 C 
ATOM     12  C11 UNL     1      16.923   4.840  20.385  0.00  0.00    +0.093 C 
ATOM     13  C28 UNL     1      16.388   4.468  21.783  0.00  0.00    +0.122 C 
ATOM     14  H7  UNL     1      14.064   0.975  22.082  0.00  0.00    +0.156 HD
BRANCH   5  20
ATOM     15  C1  UNL     1      14.246  -2.721  25.833  0.00  0.00    +0.044 C 
ATOM     16  C2  UNL     1      15.082  -2.076  24.768  0.00  0.00    -0.049 A 
ATOM     17  C3  UNL     1      16.257  -2.694  24.319  0.00  0.00    +0.003 A 
ATOM     18  C4  UNL     1      17.024  -2.100  23.315  0.00  0.00    +0.002 A 
ATOM     19  C5  UNL     1      16.611  -0.898  22.734  0.00  0.00    +0.023 A 
ATOM     20  C6  UNL     1      15.415  -0.287  23.140  0.00  0.00    +0.035 A 
ATOM     21  C29 UNL     1      14.660  -0.876  24.171  0.00  0.00    +0.026 A 
ENDBRANCH   5  20
ENDBRANCH   1  12
BRANCH   3  22
ATOM     22  C13 UNL     1      18.118   8.380  19.237  0.00  0.00    +0.034 A 
ATOM     23  C14 UNL     1      19.450   8.569  18.827  0.00  0.00    +0.025 A 
ATOM     24  C15 UNL     1      20.005   9.852  18.802  0.00  0.00    +0.025 A 
ATOM     25  C16 UNL     1      19.234  10.971  19.158  0.00  0.00    +0.030 A 
ATOM     26  C26 UNL     1      17.895  10.781  19.537  0.00  0.00    +0.025 A 
ATOM     27  C27 UNL     1      17.342   9.498  19.568  0.00  0.00    +0.025 A 
BRANCH  25  28
ATOM     28  N4  UNL     1      19.816  12.290  19.178  0.00  0.00    -0.330 N 
ATOM     29  C17 UNL     1      19.170  13.366  19.943  0.00  0.00    +0.106 C 
ATOM     30  C18 UNL     1      20.178  14.459  20.337  0.00  0.00    +0.038 C 
ATOM     31  C19 UNL     1      21.543  13.827  20.703  0.00  0.00    +0.060 C 
ATOM     32  C24 UNL     1      22.135  13.105  19.456  0.00  0.00    +0.038 C 
ATOM     33  C25 UNL     1      21.071  12.581  18.475  0.00  0.00    +0.106 C 
BRANCH  31  34
ATOM     34  N5  UNL     1      22.488  14.854  21.217  0.00  0.00    -0.299 NA
ATOM     35  C20 UNL     1      23.471  15.266  20.207  0.00  0.00    +0.085 C 
ATOM     36  C21 UNL     1      24.672  15.801  20.960  0.00  0.00    +0.017 C 
ATOM     37  C22 UNL     1      24.644  15.085  22.295  0.00  0.00    +0.017 C 
ATOM     38  C23 UNL     1      23.297  14.372  22.349  0.00  0.00    +0.085 C 
ENDBRANCH  31  34
ENDBRANCH  25  28
ENDBRANCH   3  22
TORSDOF 5
ENDMDL
MODEL 2
REMARK VINA RESULT:    -7.613      3.464      5.053
REMARK INTER + INTRA:         -10.897
REMARK INTER:                  -9.982
REMARK INTRA:                  -0.915
REMARK UNBOUND:                -1.059
REMARK  Name = /home/qwerty/github/datacon2025hack/step_04_hit_selection/docking/ligands/lig_382.pdb
REMARK  6 active torsions:
REMARK  status: ('A' for Active; 'I' for Inactive)
REMARK    1  A    between atoms: C1_1  and  C2_2
REMARK    2  A    between atoms: C6_6  and  N1_7
REMARK    3  A    between atoms: C11_14  and  C12_15
REMARK    4  A    between atoms: N3_17  and  C13_18
REMARK    5  A    between atoms: C16_21  and  N4_22
REMARK    6  A    between atoms: C19_25  and  N5_26
REMARK                            x       y       z     vdW  Elec       q    Type
REMARK                         _______ _______ _______ _____ _____    ______ ____
ROOT
ATOM      1  C12 UNL     1      16.597   6.503  20.956  0.00  0.00    +0.222 C 
ATOM      2  O2  UNL     1      17.477   6.617  21.851  0.00  0.00    -0.275 OA
ATOM      3  N3  UNL     1      16.589   7.390  19.822  0.00  0.00    -0.285 N 
ATOM      4  H15 UNL     1      15.732   7.408  19.227  0.00  0.00    +0.155 HD
ENDROOT
BRANCH   1  12
ATOM      5  N1  UNL     1      10.906   4.039  20.640  0.00  0.00    -0.269 N 
ATOM      6  C7  UNL     1      11.877   5.099  20.581  0.00  0.00    +0.306 C 
ATOM      7  O1  UNL     1      11.500   6.290  20.762  0.00  0.00    -0.252 OA
ATOM      8  N2  UNL     1      13.266   4.823  20.292  0.00  0.00    -0.285 N 
ATOM      9  C8  UNL     1      13.695   3.460  19.936  0.00  0.00    +0.109 C 
ATOM     10  C9  UNL     1      15.207   3.382  19.690  0.00  0.00    +0.020 C 
ATOM     11  C10 UNL     1      15.977   4.043  20.840  0.00  0.00    +0.016 C 
ATOM     12  C11 UNL     1      15.495   5.490  21.140  0.00  0.00    +0.093 C 
ATOM     13  C28 UNL     1      14.261   5.907  20.313  0.00  0.00    +0.122 C 
ATOM     14  H7  UNL     1      11.079   3.165  20.098  0.00  0.00    +0.156 HD
BRANCH   5  20
ATOM     15  C1  UNL     1       6.287   5.939  20.781  0.00  0.00    +0.044 C 
ATOM     16  C2  UNL     1       7.380   5.115  21.396  0.00  0.00    -0.049 A 
ATOM     17  C3  UNL     1       7.155   4.425  22.595  0.00  0.00    +0.003 A 
ATOM     18  C4  UNL     1       8.168   3.644  23.156  0.00  0.00    +0.002 A 
ATOM     19  C5  UNL     1       9.402   3.526  22.512  0.00  0.00    +0.023 A 
ATOM     20  C6  UNL     1       9.630   4.175  21.288  0.00  0.00    +0.035 A 
ATOM     21  C29 UNL     1       8.615   4.981  20.741  0.00  0.00    +0.026 A 
ENDBRANCH   5  20
ENDBRANCH   1  12
BRANCH   3  22
ATOM     22  C13 UNL     1      17.601   8.379  19.559  0.00  0.00    +0.034 A 
ATOM     23  C14 UNL     1      18.812   8.045  18.928  0.00  0.00    +0.025 A 
ATOM     24  C15 UNL     1      19.782   9.026  18.699  0.00  0.00    +0.025 A 
ATOM     25  C16 UNL     1      19.549  10.361  19.070  0.00  0.00    +0.030 A 
ATOM     26  C26 UNL     1      18.325  10.695  19.672  0.00  0.00    +0.025 A 
ATOM     27  C27 UNL     1      17.358   9.714  19.907  0.00  0.00    +0.025 A 
BRANCH  25  28
ATOM     28  N4  UNL     1      20.565  11.366  18.876  0.00  0.00    -0.330 N 
ATOM     29  C17 UNL     1      20.214  12.790  18.967  0.00  0.00    +0.106 C 
ATOM     30  C18 UNL     1      21.438  13.649  19.328  0.00  0.00    +0.038 C 
ATOM     31  C19 UNL     1      22.336  12.906  20.347  0.00  0.00    +0.060 C 
ATOM     32  C24 UNL     1      22.885  11.599  19.702  0.00  0.00    +0.038 C 
ATOM     33  C25 UNL     1      21.963  11.000  18.625  0.00  0.00    +0.106 C 
BRANCH  31  34
ATOM     34  N5  UNL     1      23.450  13.775  20.812  0.00  0.00    -0.299 NA
ATOM     35  C20 UNL     1      23.958  13.376  22.131  0.00  0.00    +0.085 C 
ATOM     36  C21 UNL     1      24.607  14.604  22.737  0.00  0.00    +0.017 C 
ATOM     37  C22 UNL     1      23.889  15.777  22.102  0.00  0.00    +0.017 C 
ATOM     38  C23 UNL     1      23.048  15.182  20.978  0.00  0.00    +0.085 C 
ENDBRANCH  31  34
ENDBRANCH  25  28
ENDBRANCH   3  22
TORSDOF 5
ENDMDL
MODEL 3
REMARK VINA RESULT:    -7.574     11.470     16.656
REMARK INTER + INTRA:         -10.847
REMARK INTER:                  -9.949
REMARK INTRA:                  -0.898
REMARK UNBOUND:                -1.059
REMARK  Name = /home/qwerty/github/datacon2025hack/step_04_hit_selection/docking/ligands/lig_382.pdb
REMARK  6 active torsions:
REMARK  status: ('A' for Active; 'I' for Inactive)
REMARK    1  A    between atoms: C1_1  and  C2_2
REMARK    2  A    between atoms: C6_6  and  N1_7
REMARK    3  A    between atoms: C11_14  and  C12_15
REMARK    4  A    between atoms: N3_17  and  C13_18
REMARK    5  A    between atoms: C16_21  and  N4_22
REMARK    6  A    between atoms: C19_25  and  N5_26
REMARK                            x       y       z     vdW  Elec       q    Type
REMARK                         _______ _______ _______ _____ _____    ______ ____
ROOT
ATOM      1  C12 UNL     1      20.377  13.097  30.057  0.00  0.00    +0.222 C 
ATOM      2  O2  UNL     1      19.208  13.339  29.653  0.00  0.00    -0.275 OA
ATOM      3  N3  UNL     1      20.675  13.080  31.465  0.00  0.00    -0.285 N 
ATOM      4  H15 UNL     1      21.680  13.095  31.748  0.00  0.00    +0.155 HD
ENDROOT
BRANCH   1  12
ATOM      5  N1  UNL     1      24.221  14.547  25.401  0.00  0.00    -0.269 N 
ATOM      6  C7  UNL     1      23.062  14.708  26.238  0.00  0.00    +0.306 C 
ATOM      7  O1  UNL     1      22.065  15.342  25.794  0.00  0.00    -0.252 OA
ATOM      8  N2  UNL     1      23.035  14.181  27.584  0.00  0.00    -0.285 N 
ATOM      9  C8  UNL     1      24.240  13.569  28.168  0.00  0.00    +0.109 C 
ATOM     10  C9  UNL     1      23.990  13.058  29.592  0.00  0.00    +0.020 C 
ATOM     11  C10 UNL     1      22.718  12.203  29.644  0.00  0.00    +0.016 C 
ATOM     12  C11 UNL     1      21.479  12.923  29.042  0.00  0.00    +0.093 C 
ATOM     13  C28 UNL     1      21.815  14.285  28.400  0.00  0.00    +0.122 C 
ATOM     14  H7  UNL     1      25.157  14.433  25.850  0.00  0.00    +0.156 HD
BRANCH   5  20
ATOM     15  C1  UNL     1      23.039  12.751  20.892  0.00  0.00    +0.044 C 
ATOM     16  C2  UNL     1      23.646  13.817  21.754  0.00  0.00    -0.049 A 
ATOM     17  C3  UNL     1      24.149  14.992  21.178  0.00  0.00    +0.003 A 
ATOM     18  C4  UNL     1      24.697  15.992  21.985  0.00  0.00    +0.002 A 
ATOM     19  C5  UNL     1      24.724  15.837  23.374  0.00  0.00    +0.023 A 
ATOM     20  C6  UNL     1      24.186  14.686  23.971  0.00  0.00    +0.035 A 
ATOM     21  C29 UNL     1      23.659  13.671  23.151  0.00  0.00    +0.026 A 
ENDBRANCH   5  20
ENDBRANCH   1  12
BRANCH   3  22
ATOM     22  C13 UNL     1      19.690  13.228  32.504  0.00  0.00    +0.034 A 
ATOM     23  C14 UNL     1      18.896  14.383  32.608  0.00  0.00    +0.025 A 
ATOM     24  C15 UNL     1      17.956  14.503  33.636  0.00  0.00    +0.025 A 
ATOM     25  C16 UNL     1      17.773  13.461  34.562  0.00  0.00    +0.030 A 
ATOM     26  C26 UNL     1      18.547  12.297  34.436  0.00  0.00    +0.025 A 
ATOM     27  C27 UNL     1      19.491  12.179  33.411  0.00  0.00    +0.025 A 
BRANCH  25  28
ATOM     28  N4  UNL     1      16.837  13.600  35.650  0.00  0.00    -0.330 N 
ATOM     29  C17 UNL     1      15.832  14.671  35.621  0.00  0.00    +0.106 C 
ATOM     30  C18 UNL     1      14.610  14.319  36.487  0.00  0.00    +0.038 C 
ATOM     31  C19 UNL     1      14.281  12.811  36.367  0.00  0.00    +0.060 C 
ATOM     32  C24 UNL     1      15.473  11.972  36.918  0.00  0.00    +0.038 C 
ATOM     33  C25 UNL     1      16.840  12.666  36.782  0.00  0.00    +0.106 C 
BRANCH  31  34
ATOM     34  N5  UNL     1      13.024  12.479  37.088  0.00  0.00    -0.299 NA
ATOM     35  C20 UNL     1      12.795  11.030  37.177  0.00  0.00    +0.085 C 
ATOM     36  C21 UNL     1      11.303  10.835  37.357  0.00  0.00    +0.017 C 
ATOM     37  C22 UNL     1      10.670  12.049  36.708  0.00  0.00    +0.017 C 
ATOM     38  C23 UNL     1      11.823  13.004  36.416  0.00  0.00    +0.085 C 
ENDBRANCH  31  34
ENDBRANCH  25  28
ENDBRANCH   3  22
TORSDOF 5
ENDMDL
MODEL 4
REMARK VINA RESULT:    -7.420      9.620     10.707
REMARK INTER + INTRA:         -10.647
REMARK INTER:                  -9.553
REMARK INTRA:                  -1.094
REMARK UNBOUND:                -1.059
REMARK  Name = /home/qwerty/github/datacon2025hack/step_04_hit_selection/docking/ligands/lig_382.pdb
REMARK  6 active torsions:
REMARK  status: ('A' for Active; 'I' for Inactive)
REMARK    1  A    between atoms: C1_1  and  C2_2
REMARK    2  A    between atoms: C6_6  and  N1_7
REMARK    3  A    between atoms: C11_14  and  C12_15
REMARK    4  A    between atoms: N3_17  and  C13_18
REMARK    5  A    between atoms: C16_21  and  N4_22
REMARK    6  A    between atoms: C19_25  and  N5_26
REMARK                            x       y       z     vdW  Elec       q    Type
REMARK                         _______ _______ _______ _____ _____    ______ ____
ROOT
ATOM      1  C12 UNL     1      12.410  13.289  28.257  0.00  0.00    +0.222 C 
ATOM      2  O2  UNL     1      12.697  13.782  29.380  0.00  0.00    -0.275 OA
ATOM      3  N3  UNL     1      13.322  13.412  27.150  0.00  0.00    -0.285 N 
ATOM      4  H15 UNL     1      12.960  13.190  26.196  0.00  0.00    +0.155 HD
ENDROOT
BRANCH   1  12
ATOM      5  N1  UNL     1       7.666   9.392  29.190  0.00  0.00    -0.269 N 
ATOM      6  C7  UNL     1       9.024   9.852  29.312  0.00  0.00    +0.306 C 
ATOM      7  O1  UNL     1       9.938   9.016  29.558  0.00  0.00    -0.252 OA
ATOM      8  N2  UNL     1       9.352  11.254  29.184  0.00  0.00    -0.285 N 
ATOM      9  C8  UNL     1       8.282  12.257  29.043  0.00  0.00    +0.109 C 
ATOM     10  C9  UNL     1       8.846  13.677  28.901  0.00  0.00    +0.020 C 
ATOM     11  C10 UNL     1       9.943  13.719  27.832  0.00  0.00    +0.016 C 
ATOM     12  C11 UNL     1      11.054  12.657  28.061  0.00  0.00    +0.093 C 
ATOM     13  C28 UNL     1      10.753  11.699  29.232  0.00  0.00    +0.122 C 
ATOM     14  H7  UNL     1       6.888  10.049  29.416  0.00  0.00    +0.156 HD
BRANCH   5  20
ATOM     15  C1  UNL     1       5.957   4.956  30.728  0.00  0.00    +0.044 C 
ATOM     16  C2  UNL     1       6.516   5.838  29.651  0.00  0.00    -0.049 A 
ATOM     17  C3  UNL     1       6.668   5.351  28.346  0.00  0.00    +0.003 A 
ATOM     18  C4  UNL     1       7.172   6.179  27.341  0.00  0.00    +0.002 A 
ATOM     19  C5  UNL     1       7.506   7.506  27.626  0.00  0.00    +0.023 A 
ATOM     20  C6  UNL     1       7.319   8.023  28.917  0.00  0.00    +0.035 A 
ATOM     21  C29 UNL     1       6.836   7.177  29.932  0.00  0.00    +0.026 A 
ENDBRANCH   5  20
ENDBRANCH   1  12
BRANCH   3  22
ATOM     22  C13 UNL     1      14.636  13.991  27.243  0.00  0.00    +0.034 A 
ATOM     23  C14 UNL     1      14.854  15.364  27.036  0.00  0.00    +0.025 A 
ATOM     24  C15 UNL     1      16.144  15.895  27.121  0.00  0.00    +0.025 A 
ATOM     25  C16 UNL     1      17.236  15.071  27.441  0.00  0.00    +0.030 A 
ATOM     26  C26 UNL     1      17.010  13.706  27.678  0.00  0.00    +0.025 A 
ATOM     27  C27 UNL     1      15.721  13.174  27.587  0.00  0.00    +0.025 A 
BRANCH  25  28
ATOM     28  N4  UNL     1      18.575  15.606  27.484  0.00  0.00    -0.330 N 
ATOM     29  C17 UNL     1      19.504  15.173  28.537  0.00  0.00    +0.106 C 
ATOM     30  C18 UNL     1      20.968  15.350  28.102  0.00  0.00    +0.038 C 
ATOM     31  C19 UNL     1      21.130  15.007  26.601  0.00  0.00    +0.060 C 
ATOM     32  C24 UNL     1      20.289  16.000  25.745  0.00  0.00    +0.038 C 
ATOM     33  C25 UNL     1      19.050  16.555  26.471  0.00  0.00    +0.106 C 
BRANCH  31  34
ATOM     34  N5  UNL     1      22.561  15.041  26.196  0.00  0.00    -0.299 NA
ATOM     35  C20 UNL     1      22.892  16.235  25.407  0.00  0.00    +0.085 C 
ATOM     36  C21 UNL     1      24.114  15.888  24.582  0.00  0.00    +0.017 C 
ATOM     37  C22 UNL     1      24.044  14.386  24.396  0.00  0.00    +0.017 C 
ATOM     38  C23 UNL     1      22.938  13.909  25.332  0.00  0.00    +0.085 C 
ENDBRANCH  31  34
ENDBRANCH  25  28
ENDBRANCH   3  22
TORSDOF 5
ENDMDL
MODEL 5
REMARK VINA RESULT:    -7.380      7.074      8.829
REMARK INTER + INTRA:         -10.596
REMARK INTER:                  -9.516
REMARK INTRA:                  -1.080
REMARK UNBOUND:                -1.059
REMARK  Name = /home/qwerty/github/datacon2025hack/step_04_hit_selection/docking/ligands/lig_382.pdb
REMARK  6 active torsions:
REMARK  status: ('A' for Active; 'I' for Inactive)
REMARK    1  A    between atoms: C1_1  and  C2_2
REMARK    2  A    between atoms: C6_6  and  N1_7
REMARK    3  A    between atoms: C11_14  and  C12_15
REMARK    4  A    between atoms: N3_17  and  C13_18
REMARK    5  A    between atoms: C16_21  and  N4_22
REMARK    6  A    between atoms: C19_25  and  N5_26
REMARK                            x       y       z     vdW  Elec       q    Type
REMARK                         _______ _______ _______ _____ _____    ______ ____
ROOT
ATOM      1  C12 UNL     1      20.820   3.888  27.195  0.00  0.00    +0.222 C 
ATOM      2  O2  UNL     1      19.915   4.761  27.111  0.00  0.00    -0.275 OA
ATOM      3  N3  UNL     1      21.602   3.532  26.040  0.00  0.00    -0.285 N 
ATOM      4  H15 UNL     1      22.180   2.665  26.095  0.00  0.00    +0.155 HD
ENDROOT
BRANCH   1  12
ATOM      5  N1  UNL     1      19.268   0.797  32.353  0.00  0.00    -0.269 N 
ATOM      6  C7  UNL     1      19.025   1.627  31.202  0.00  0.00    +0.306 C 
ATOM      7  O1  UNL     1      18.024   2.396  31.198  0.00  0.00    -0.252 OA
ATOM      8  N2  UNL     1      19.892   1.572  30.046  0.00  0.00    -0.285 N 
ATOM      9  C8  UNL     1      20.975   0.578  29.977  0.00  0.00    +0.109 C 
ATOM     10  C9  UNL     1      21.786   0.705  28.680  0.00  0.00    +0.020 C 
ATOM     11  C10 UNL     1      22.202   2.161  28.443  0.00  0.00    +0.016 C 
ATOM     12  C11 UNL     1      21.005   3.151  28.498  0.00  0.00    +0.093 C 
ATOM     13  C28 UNL     1      19.678   2.482  28.911  0.00  0.00    +0.122 C 
ATOM     14  H7  UNL     1      19.780  -0.103  32.227  0.00  0.00    +0.156 HD
BRANCH   5  20
ATOM     15  C1  UNL     1      16.053  -0.312  36.013  0.00  0.00    +0.044 C 
ATOM     16  C2  UNL     1      17.128   0.564  35.439  0.00  0.00    -0.049 A 
ATOM     17  C3  UNL     1      17.638   1.637  36.183  0.00  0.00    +0.003 A 
ATOM     18  C4  UNL     1      18.651   2.440  35.654  0.00  0.00    +0.002 A 
ATOM     19  C5  UNL     1      19.178   2.163  34.390  0.00  0.00    +0.023 A 
ATOM     20  C6  UNL     1      18.710   1.067  33.650  0.00  0.00    +0.035 A 
ATOM     21  C29 UNL     1      17.671   0.277  34.176  0.00  0.00    +0.026 A 
ENDBRANCH   5  20
ENDBRANCH   1  12
BRANCH   3  22
ATOM     22  C13 UNL     1      21.502   4.185  24.762  0.00  0.00    +0.034 A 
ATOM     23  C14 UNL     1      22.288   5.305  24.441  0.00  0.00    +0.025 A 
ATOM     24  C15 UNL     1      22.159   5.925  23.195  0.00  0.00    +0.025 A 
ATOM     25  C16 UNL     1      21.262   5.423  22.237  0.00  0.00    +0.030 A 
ATOM     26  C26 UNL     1      20.501   4.286  22.550  0.00  0.00    +0.025 A 
ATOM     27  C27 UNL     1      20.626   3.669  23.797  0.00  0.00    +0.025 A 
BRANCH  25  28
ATOM     28  N4  UNL     1      21.093   6.087  20.968  0.00  0.00    -0.330 N 
ATOM     29  C17 UNL     1      19.795   6.036  20.281  0.00  0.00    +0.106 C 
ATOM     30  C18 UNL     1      19.618   7.225  19.323  0.00  0.00    +0.038 C 
ATOM     31  C19 UNL     1      20.228   8.508  19.938  0.00  0.00    +0.060 C 
ATOM     32  C24 UNL     1      21.762   8.317  20.130  0.00  0.00    +0.038 C 
ATOM     33  C25 UNL     1      22.184   6.854  20.356  0.00  0.00    +0.106 C 
BRANCH  31  34
ATOM     34  N5  UNL     1      19.946   9.696  19.088  0.00  0.00    -0.299 NA
ATOM     35  C20 UNL     1      21.011  10.706  19.166  0.00  0.00    +0.085 C 
ATOM     36  C21 UNL     1      20.381  12.031  18.790  0.00  0.00    +0.017 C 
ATOM     37  C22 UNL     1      18.919  11.888  19.163  0.00  0.00    +0.017 C 
ATOM     38  C23 UNL     1      18.724  10.412  19.491  0.00  0.00    +0.085 C 
ENDBRANCH  31  34
ENDBRANCH  25  28
ENDBRANCH   3  22
TORSDOF 5
ENDMDL
MODEL 6
REMARK VINA RESULT:    -7.265      8.183     12.588
REMARK INTER + INTRA:         -10.447
REMARK INTER:                  -9.435
REMARK INTRA:                  -1.012
REMARK UNBOUND:                -1.059
REMARK  Name = /home/qwerty/github/datacon2025hack/step_04_hit_selection/docking/ligands/lig_382.pdb
REMARK  6 active torsions:
REMARK  status: ('A' for Active; 'I' for Inactive)
REMARK    1  A    between atoms: C1_1  and  C2_2
REMARK    2  A    between atoms: C6_6  and  N1_7
REMARK    3  A    between atoms: C11_14  and  C12_15
REMARK    4  A    between atoms: N3_17  and  C13_18
REMARK    5  A    between atoms: C16_21  and  N4_22
REMARK    6  A    between atoms: C19_25  and  N5_26
REMARK                            x       y       z     vdW  Elec       q    Type
REMARK                         _______ _______ _______ _____ _____    ______ ____
ROOT
ATOM      1  C12 UNL     1      19.759   2.684  26.936  0.00  0.00    +0.222 C 
ATOM      2  O2  UNL     1      18.593   2.993  27.301  0.00  0.00    -0.275 OA
ATOM      3  N3  UNL     1      20.000   2.179  25.609  0.00  0.00    -0.285 N 
ATOM      4  H15 UNL     1      20.925   1.734  25.421  0.00  0.00    +0.155 HD
ENDROOT
BRANCH   1  12
ATOM      5  N1  UNL     1      22.609   3.775  32.344  0.00  0.00    -0.269 N 
ATOM      6  C7  UNL     1      21.541   3.876  31.385  0.00  0.00    +0.306 C 
ATOM      7  O1  UNL     1      20.745   4.853  31.451  0.00  0.00    -0.252 OA
ATOM      8  N2  UNL     1      21.353   2.866  30.368  0.00  0.00    -0.285 N 
ATOM      9  C8  UNL     1      22.181   1.648  30.368  0.00  0.00    +0.109 C 
ATOM     10  C9  UNL     1      21.834   0.721  29.196  0.00  0.00    +0.020 C 
ATOM     11  C10 UNL     1      21.800   1.503  27.879  0.00  0.00    +0.016 C 
ATOM     12  C11 UNL     1      20.882   2.756  27.941  0.00  0.00    +0.093 C 
ATOM     13  C28 UNL     1      20.306   3.023  29.346  0.00  0.00    +0.122 C 
ATOM     14  H7  UNL     1      22.984   2.831  32.585  0.00  0.00    +0.156 HD
BRANCH   5  20
ATOM     15  C1  UNL     1      22.323   6.741  36.354  0.00  0.00    +0.044 C 
ATOM     16  C2  UNL     1      22.953   6.375  35.042  0.00  0.00    -0.049 A 
ATOM     17  C3  UNL     1      24.055   7.096  34.561  0.00  0.00    +0.003 A 
ATOM     18  C4  UNL     1      24.650   6.742  33.349  0.00  0.00    +0.002 A 
ATOM     19  C5  UNL     1      24.166   5.653  32.620  0.00  0.00    +0.023 A 
ATOM     20  C6  UNL     1      23.091   4.893  33.108  0.00  0.00    +0.035 A 
ATOM     21  C29 UNL     1      22.478   5.270  34.317  0.00  0.00    +0.026 A 
ENDBRANCH   5  20
ENDBRANCH   1  12
BRANCH   3  22
ATOM     22  C13 UNL     1      18.995   2.083  24.584  0.00  0.00    +0.034 A 
ATOM     23  C14 UNL     1      18.712   3.160  23.725  0.00  0.00    +0.025 A 
ATOM     24  C15 UNL     1      17.721   3.040  22.747  0.00  0.00    +0.025 A 
ATOM     25  C16 UNL     1      17.013   1.837  22.590  0.00  0.00    +0.030 A 
ATOM     26  C26 UNL     1      17.320   0.754  23.430  0.00  0.00    +0.025 A 
ATOM     27  C27 UNL     1      18.307   0.875  24.412  0.00  0.00    +0.025 A 
BRANCH  25  28
ATOM     28  N4  UNL     1      15.958   1.725  21.613  0.00  0.00    -0.330 N 
ATOM     29  C17 UNL     1      14.786   0.883  21.892  0.00  0.00    +0.106 C 
ATOM     30  C18 UNL     1      13.563   1.335  21.077  0.00  0.00    +0.038 C 
ATOM     31  C19 UNL     1      13.523   2.879  20.976  0.00  0.00    +0.060 C 
ATOM     32  C24 UNL     1      14.780   3.385  20.207  0.00  0.00    +0.038 C 
ATOM     33  C25 UNL     1      16.008   2.467  20.348  0.00  0.00    +0.106 C 
BRANCH  31  34
ATOM     34  N5  UNL     1      12.275   3.339  20.309  0.00  0.00    -0.299 NA
ATOM     35  C20 UNL     1      12.271   4.789  20.069  0.00  0.00    +0.085 C 
ATOM     36  C21 UNL     1      10.818   5.209  19.970  0.00  0.00    +0.017 C 
ATOM     37  C22 UNL     1      10.061   4.191  20.798  0.00  0.00    +0.017 C 
ATOM     38  C23 UNL     1      11.070   3.093  21.118  0.00  0.00    +0.085 C 
ENDBRANCH  31  34
ENDBRANCH  25  28
ENDBRANCH   3  22
TORSDOF 5
ENDMDL
MODEL 7
REMARK VINA RESULT:    -7.210      3.453     13.081
REMARK INTER + INTRA:         -10.377
REMARK INTER:                  -9.473
REMARK INTRA:                  -0.903
REMARK UNBOUND:                -1.059
REMARK  Name = /home/qwerty/github/datacon2025hack/step_04_hit_selection/docking/ligands/lig_382.pdb
REMARK  6 active torsions:
REMARK  status: ('A' for Active; 'I' for Inactive)
REMARK    1  A    between atoms: C1_1  and  C2_2
REMARK    2  A    between atoms: C6_6  and  N1_7
REMARK    3  A    between atoms: C11_14  and  C12_15
REMARK    4  A    between atoms: N3_17  and  C13_18
REMARK    5  A    between atoms: C16_21  and  N4_22
REMARK    6  A    between atoms: C19_25  and  N5_26
REMARK                            x       y       z     vdW  Elec       q    Type
REMARK                         _______ _______ _______ _____ _____    ______ ____
ROOT
ATOM      1  C12 UNL     1      17.609  10.256  20.112  0.00  0.00    +0.222 C 
ATOM      2  O2  UNL     1      16.656  10.380  19.297  0.00  0.00    -0.275 OA
ATOM      3  N3  UNL     1      17.779   9.037  20.859  0.00  0.00    -0.285 N 
ATOM      4  H15 UNL     1      18.435   9.054  21.670  0.00  0.00    +0.155 HD
ENDROOT
BRANCH   1  12
ATOM      5  N1  UNL     1      22.083  13.640  22.775  0.00  0.00    -0.269 N 
ATOM      6  C7  UNL     1      21.151  12.549  22.679  0.00  0.00    +0.306 C 
ATOM      7  O1  UNL     1      20.774  11.967  23.734  0.00  0.00    -0.252 OA
ATOM      8  N2  UNL     1      20.663  12.093  21.397  0.00  0.00    -0.285 N 
ATOM      9  C8  UNL     1      21.204  12.663  20.151  0.00  0.00    +0.109 C 
ATOM     10  C9  UNL     1      20.538  12.058  18.909  0.00  0.00    +0.020 C 
ATOM     11  C10 UNL     1      19.011  12.086  19.046  0.00  0.00    +0.016 C 
ATOM     12  C11 UNL     1      18.509  11.439  20.368  0.00  0.00    +0.093 C 
ATOM     13  C28 UNL     1      19.651  11.029  21.320  0.00  0.00    +0.122 C 
ATOM     14  H7  UNL     1      22.714  13.838  21.967  0.00  0.00    +0.156 HD
BRANCH   5  20
ATOM     15  C1  UNL     1      23.888  13.942  27.424  0.00  0.00    +0.044 C 
ATOM     16  C2  UNL     1      23.148  14.549  26.268  0.00  0.00    -0.049 A 
ATOM     17  C3  UNL     1      22.696  15.874  26.334  0.00  0.00    +0.003 A 
ATOM     18  C4  UNL     1      22.024  16.442  25.250  0.00  0.00    +0.002 A 
ATOM     19  C5  UNL     1      21.819  15.700  24.084  0.00  0.00    +0.023 A 
ATOM     20  C6  UNL     1      22.303  14.386  23.984  0.00  0.00    +0.035 A 
ATOM     21  C29 UNL     1      22.956  13.810  25.089  0.00  0.00    +0.026 A 
ENDBRANCH   5  20
ENDBRANCH   1  12
BRANCH   3  22
ATOM     22  C13 UNL     1      16.976   7.857  20.677  0.00  0.00    +0.034 A 
ATOM     23  C14 UNL     1      17.298   6.887  19.713  0.00  0.00    +0.025 A 
ATOM     24  C15 UNL     1      16.491   5.757  19.551  0.00  0.00    +0.025 A 
ATOM     25  C16 UNL     1      15.364   5.562  20.367  0.00  0.00    +0.030 A 
ATOM     26  C26 UNL     1      15.063   6.518  21.349  0.00  0.00    +0.025 A 
ATOM     27  C27 UNL     1      15.866   7.651  21.507  0.00  0.00    +0.025 A 
BRANCH  25  28
ATOM     28  N4  UNL     1      14.503   4.421  20.172  0.00  0.00    -0.330 N 
ATOM     29  C17 UNL     1      14.792   3.158  20.864  0.00  0.00    +0.106 C 
ATOM     30  C18 UNL     1      13.524   2.301  21.024  0.00  0.00    +0.038 C 
ATOM     31  C19 UNL     1      12.301   3.201  21.327  0.00  0.00    +0.060 C 
ATOM     32  C24 UNL     1      12.044   4.154  20.123  0.00  0.00    +0.038 C 
ATOM     33  C25 UNL     1      13.311   4.501  19.320  0.00  0.00    +0.106 C 
BRANCH  31  34
ATOM     34  N5  UNL     1      11.095   2.382  21.620  0.00  0.00    -0.299 NA
ATOM     35  C20 UNL     1      10.248   2.984  22.660  0.00  0.00    +0.085 C 
ATOM     36  C21 UNL     1       9.448   1.856  23.276  0.00  0.00    +0.017 C 
ATOM     37  C22 UNL     1      10.301   0.620  23.080  0.00  0.00    +0.017 C 
ATOM     38  C23 UNL     1      11.423   1.043  22.138  0.00  0.00    +0.085 C 
ENDBRANCH  31  34
ENDBRANCH  25  28
ENDBRANCH   3  22
TORSDOF 5
ENDMDL
MODEL 8
REMARK VINA RESULT:    -7.185     11.054     13.058
REMARK INTER + INTRA:         -10.343
REMARK INTER:                  -9.245
REMARK INTRA:                  -1.099
REMARK UNBOUND:                -1.059
REMARK  Name = /home/qwerty/github/datacon2025hack/step_04_hit_selection/docking/ligands/lig_382.pdb
REMARK  6 active torsions:
REMARK  status: ('A' for Active; 'I' for Inactive)
REMARK    1  A    between atoms: C1_1  and  C2_2
REMARK    2  A    between atoms: C6_6  and  N1_7
REMARK    3  A    between atoms: C11_14  and  C12_15
REMARK    4  A    between atoms: N3_17  and  C13_18
REMARK    5  A    between atoms: C16_21  and  N4_22
REMARK    6  A    between atoms: C19_25  and  N5_26
REMARK                            x       y       z     vdW  Elec       q    Type
REMARK                         _______ _______ _______ _____ _____    ______ ____
ROOT
ATOM      1  C12 UNL     1      20.405   1.958  31.395  0.00  0.00    +0.222 C 
ATOM      2  O2  UNL     1      20.494   1.358  32.500  0.00  0.00    -0.275 OA
ATOM      3  N3  UNL     1      20.064   3.356  31.349  0.00  0.00    -0.285 N 
ATOM      4  H15 UNL     1      19.787   3.757  30.426  0.00  0.00    +0.155 HD
ENDROOT
BRANCH   1  12
ATOM      5  N1  UNL     1      19.396   0.216  25.521  0.00  0.00    -0.269 N 
ATOM      6  C7  UNL     1      19.096   0.894  26.753  0.00  0.00    +0.306 C 
ATOM      7  O1  UNL     1      17.898   1.198  27.013  0.00  0.00    -0.252 OA
ATOM      8  N2  UNL     1      20.144   1.256  27.681  0.00  0.00    -0.285 N 
ATOM      9  C8  UNL     1      21.557   1.040  27.327  0.00  0.00    +0.109 C 
ATOM     10  C9  UNL     1      22.502   1.471  28.456  0.00  0.00    +0.020 C 
ATOM     11  C10 UNL     1      22.053   0.874  29.795  0.00  0.00    +0.016 C 
ATOM     12  C11 UNL     1      20.561   1.168  30.120  0.00  0.00    +0.093 C 
ATOM     13  C28 UNL     1      19.814   1.878  28.973  0.00  0.00    +0.122 C 
ATOM     14  H7  UNL     1      20.341   0.338  25.094  0.00  0.00    +0.156 HD
BRANCH   5  20
ATOM     15  C1  UNL     1      16.214  -0.046  21.678  0.00  0.00    +0.044 C 
ATOM     16  C2  UNL     1      16.830  -0.646  22.907  0.00  0.00    -0.049 A 
ATOM     17  C3  UNL     1      16.487  -1.945  23.307  0.00  0.00    +0.003 A 
ATOM     18  C4  UNL     1      17.075  -2.510  24.441  0.00  0.00    +0.002 A 
ATOM     19  C5  UNL     1      18.026  -1.791  25.170  0.00  0.00    +0.023 A 
ATOM     20  C6  UNL     1      18.414  -0.506  24.759  0.00  0.00    +0.035 A 
ATOM     21  C29 UNL     1      17.799   0.068  23.631  0.00  0.00    +0.026 A 
ENDBRANCH   5  20
ENDBRANCH   1  12
BRANCH   3  22
ATOM     22  C13 UNL     1      19.904   4.190  32.511  0.00  0.00    +0.034 A 
ATOM     23  C14 UNL     1      18.654   4.359  33.131  0.00  0.00    +0.025 A 
ATOM     24  C15 UNL     1      18.528   5.186  34.251  0.00  0.00    +0.025 A 
ATOM     25  C16 UNL     1      19.651   5.837  34.788  0.00  0.00    +0.030 A 
ATOM     26  C26 UNL     1      20.903   5.641  34.184  0.00  0.00    +0.025 A 
ATOM     27  C27 UNL     1      21.028   4.819  33.061  0.00  0.00    +0.025 A 
BRANCH  25  28
ATOM     28  N4  UNL     1      19.517   6.727  35.915  0.00  0.00    -0.330 N 
ATOM     29  C17 UNL     1      20.563   7.721  36.193  0.00  0.00    +0.106 C 
ATOM     30  C18 UNL     1      20.008   8.912  36.994  0.00  0.00    +0.038 C 
ATOM     31  C19 UNL     1      18.577   9.262  36.518  0.00  0.00    +0.060 C 
ATOM     32  C24 UNL     1      17.627   8.060  36.794  0.00  0.00    +0.038 C 
ATOM     33  C25 UNL     1      18.331   6.691  36.779  0.00  0.00    +0.106 C 
BRANCH  31  34
ATOM     34  N5  UNL     1      18.079  10.494  37.185  0.00  0.00    -0.299 NA
ATOM     35  C20 UNL     1      16.635  10.441  37.452  0.00  0.00    +0.085 C 
ATOM     36  C21 UNL     1      16.157  11.876  37.550  0.00  0.00    +0.017 C 
ATOM     37  C22 UNL     1      17.128  12.668  36.699  0.00  0.00    +0.017 C 
ATOM     38  C23 UNL     1      18.261  11.703  36.365  0.00  0.00    +0.085 C 
ENDBRANCH  31  34
ENDBRANCH  25  28
ENDBRANCH   3  22
TORSDOF 5
ENDMDL
MODEL 9
REMARK VINA RESULT:    -7.091     10.795     14.568
REMARK INTER + INTRA:         -10.222
REMARK INTER:                  -9.110
REMARK INTRA:                  -1.112
REMARK UNBOUND:                -1.059
REMARK  Name = /home/qwerty/github/datacon2025hack/step_04_hit_selection/docking/ligands/lig_382.pdb
REMARK  6 active torsions:
REMARK  status: ('A' for Active; 'I' for Inactive)
REMARK    1  A    between atoms: C1_1  and  C2_2
REMARK    2  A    between atoms: C6_6  and  N1_7
REMARK    3  A    between atoms: C11_14  and  C12_15
REMARK    4  A    between atoms: N3_17  and  C13_18
REMARK    5  A    between atoms: C16_21  and  N4_22
REMARK    6  A    between atoms: C19_25  and  N5_26
REMARK                            x       y       z     vdW  Elec       q    Type
REMARK                         _______ _______ _______ _____ _____    ______ ____
ROOT
ATOM      1  C12 UNL     1       9.803   9.616  27.654  0.00  0.00    +0.222 C 
ATOM      2  O2  UNL     1      10.452   8.562  27.891  0.00  0.00    -0.275 OA
ATOM      3  N3  UNL     1       9.357   9.915  26.318  0.00  0.00    -0.285 N 
ATOM      4  H15 UNL     1       9.023  10.885  26.125  0.00  0.00    +0.155 HD
ENDROOT
BRANCH   1  12
ATOM      5  N1  UNL     1      11.236  13.712  32.096  0.00  0.00    -0.269 N 
ATOM      6  C7  UNL     1      11.504  12.662  31.149  0.00  0.00    +0.306 C 
ATOM      7  O1  UNL     1      12.502  11.910  31.331  0.00  0.00    -0.252 OA
ATOM      8  N2  UNL     1      10.668  12.475  29.985  0.00  0.00    -0.285 N 
ATOM      9  C8  UNL     1       9.590  13.432  29.683  0.00  0.00    +0.109 C 
ATOM     10  C9  UNL     1       8.813  13.037  28.420  0.00  0.00    +0.020 C 
ATOM     11  C10 UNL     1       8.397  11.563  28.480  0.00  0.00    +0.016 C 
ATOM     12  C11 UNL     1       9.588  10.608  28.770  0.00  0.00    +0.093 C 
ATOM     13  C28 UNL     1      10.907  11.349  29.069  0.00  0.00    +0.122 C 
ATOM     14  H7  UNL     1      10.731  14.567  31.773  0.00  0.00    +0.156 HD
BRANCH   5  20
ATOM     15  C1  UNL     1      11.065  12.132  36.833  0.00  0.00    +0.044 C 
ATOM     16  C2  UNL     1      11.678  12.986  35.762  0.00  0.00    -0.049 A 
ATOM     17  C3  UNL     1      12.804  13.772  36.042  0.00  0.00    +0.003 A 
ATOM     18  C4  UNL     1      13.384  14.552  35.039  0.00  0.00    +0.002 A 
ATOM     19  C5  UNL     1      12.859  14.534  33.744  0.00  0.00    +0.023 A 
ATOM     20  C6  UNL     1      11.759  13.719  33.435  0.00  0.00    +0.035 A 
ATOM     21  C29 UNL     1      11.163  12.956  34.455  0.00  0.00    +0.026 A 
ENDBRANCH   5  20
ENDBRANCH   1  12
BRANCH   3  22
ATOM     22  C13 UNL     1       9.509   9.029  25.196  0.00  0.00    +0.034 A 
ATOM     23  C14 UNL     1       8.581   8.007  24.931  0.00  0.00    +0.025 A 
ATOM     24  C15 UNL     1       8.763   7.152  23.840  0.00  0.00    +0.025 A 
ATOM     25  C16 UNL     1       9.860   7.319  22.977  0.00  0.00    +0.030 A 
ATOM     26  C26 UNL     1      10.768   8.360  23.228  0.00  0.00    +0.025 A 
ATOM     27  C27 UNL     1      10.589   9.211  24.322  0.00  0.00    +0.025 A 
BRANCH  25  28
ATOM     28  N4  UNL     1      10.076   6.412  21.878  0.00  0.00    -0.330 N 
ATOM     29  C17 UNL     1      11.029   6.761  20.815  0.00  0.00    +0.106 C 
ATOM     30  C18 UNL     1      11.563   5.507  20.104  0.00  0.00    +0.038 C 
ATOM     31  C19 UNL     1      11.775   4.359  21.122  0.00  0.00    +0.060 C 
ATOM     32  C24 UNL     1      10.408   3.963  21.753  0.00  0.00    +0.038 C 
ATOM     33  C25 UNL     1       9.390   5.116  21.811  0.00  0.00    +0.106 C 
BRANCH  31  34
ATOM     34  N5  UNL     1      12.420   3.184  20.476  0.00  0.00    -0.299 NA
ATOM     35  C20 UNL     1      12.556   2.046  21.395  0.00  0.00    +0.085 C 
ATOM     36  C21 UNL     1      13.695   1.197  20.869  0.00  0.00    +0.017 C 
ATOM     37  C22 UNL     1      14.586   2.163  20.116  0.00  0.00    +0.017 C 
ATOM     38  C23 UNL     1      13.793   3.462  20.022  0.00  0.00    +0.085 C 
ENDBRANCH  31  34
ENDBRANCH  25  28
ENDBRANCH   3  22
TORSDOF 5
ENDMDL
