REMARK  Name = /home/qwerty/github/datacon2025hack/step_04_hit_selection/docking/ligands/lig_714.pdb
REMARK  6 active torsions:
REMARK  status: ('A' for Active; 'I' for Inactive)
REMARK    1  A    between atoms: C1_2  and  C12_18
REMARK    2  A    between atoms: N1_3  and  C2_4
REMARK    3  A    between atoms: C2_4  and  C3_5
REMARK    4  A    between atoms: C3_5  and  C4_6
REMARK    5  A    between atoms: C3_5  and  N2_8
REMARK    6  A    between atoms: C4_6  and  O2_7
REMARK                            x       y       z     vdW  Elec       q    Type
REMARK                         _______ _______ _______ _____ _____    ______ ____
ROOT
ATOM      1  C3  UNL     1       0.219   2.390   0.841  0.00  0.00    +0.114 C 
ENDROOT
BRANCH   1   2
ATOM      2  N2  UNL     1       1.146   1.475   0.158  0.00  0.00    -0.322 N 
ATOM      3  C5  UNL     1       1.797   0.345   0.769  0.00  0.00    +0.126 A 
ATOM      4  N3  UNL     1       1.670   0.095   2.104  0.00  0.00    -0.221 NA
ATOM      5  C6  UNL     1       2.281  -0.974   2.692  0.00  0.00    +0.223 A 
ATOM      6  N4  UNL     1       3.040  -1.824   1.947  0.00  0.00    -0.240 NA
ATOM      7  C7  UNL     1       3.181  -1.596   0.617  0.00  0.00    +0.049 A 
ATOM      8  C8  UNL     1       2.580  -0.532   0.008  0.00  0.00    +0.014 A 
ATOM      9  C9  UNL     1       2.872  -0.493  -1.445  0.00  0.00    +0.041 C 
ATOM     10  C10 UNL     1       3.770  -1.726  -1.679  0.00  0.00    +0.011 C 
ATOM     11  C11 UNL     1       3.964  -2.428  -0.320  0.00  0.00    +0.056 C 
ATOM     12  H8  UNL     1       1.315   1.656  -0.857  0.00  0.00    +0.148 HD
ENDBRANCH   1   2
BRANCH   1  13
ATOM     13  C2  UNL     1      -1.021   1.649   1.377  0.00  0.00    +0.129 C 
BRANCH  13  16
ATOM     14  O1  UNL     1      -3.213  -0.084   1.786  0.00  0.00    -0.270 OA
ATOM     15  C1  UNL     1      -2.865   0.110   0.589  0.00  0.00    +0.246 C 
ATOM     16  N1  UNL     1      -1.712   0.920   0.311  0.00  0.00    -0.309 N 
ATOM     17  H1  UNL     1      -1.332   0.952  -0.661  0.00  0.00    +0.149 HD
BRANCH  15  18
ATOM     18  C12 UNL     1      -3.643  -0.521  -0.504  0.00  0.00    +0.057 A 
ATOM     19  C13 UNL     1      -3.653   0.016  -1.805  0.00  0.00    +0.124 A 
ATOM     20  N5  UNL     1      -4.381  -0.579  -2.787  0.00  0.00    -0.260 NA
ATOM     21  C14 UNL     1      -5.117  -1.698  -2.556  0.00  0.00    +0.149 A 
ATOM     22  C15 UNL     1      -5.149  -2.261  -1.281  0.00  0.00    +0.142 A 
ATOM     23  F1  UNL     1      -5.886  -3.373  -1.042  0.00  0.00    -0.204 F 
ATOM     24  C16 UNL     1      -4.414  -1.668  -0.252  0.00  0.00    +0.054 A 
ENDBRANCH  15  18
ENDBRANCH  13  16
ENDBRANCH   1  13
BRANCH   1  25
ATOM     25  C4  UNL     1       0.929   3.184   1.951  0.00  0.00    +0.179 C 
BRANCH  25  26
ATOM     26  O2  UNL     1       2.084   3.804   1.454  0.00  0.00    -0.393 OA
ATOM     27  H7  UNL     1       1.780   4.572   0.903  0.00  0.00    +0.209 HD
ENDBRANCH  25  26
ENDBRANCH   1  25
TORSDOF 6
