REMARK  Name = /home/qwerty/github/datacon2025hack/step_04_hit_selection/docking/ligands/lig_95.pdb
REMARK  9 active torsions:
REMARK  status: ('A' for Active; 'I' for Inactive)
REMARK    1  A    between atoms: C1_1  and  C2_2
REMARK    2  A    between atoms: C2_2  and  C3_3
REMARK    3  A    between atoms: C3_3  and  C4_4
REMARK    4  A    between atoms: C3_3  and  N1_9
REMARK    5  A    between atoms: C4_4  and  C5_5
REMARK    6  A    between atoms: C6_10  and  C7_12
REMARK    7  A    between atoms: N2_14  and  C8_15
REMARK    8  A    between atoms: C10_17  and  C11_18
REMARK    9  A    between atoms: C18_27  and  C19_28
REMARK                            x       y       z     vdW  Elec       q    Type
REMARK                         _______ _______ _______ _____ _____    ______ ____
ROOT
ATOM      1  C7  UNL     1      -0.506   0.935   0.140  0.00  0.00    +0.303 C 
ATOM      2  O2  UNL     1       0.008   0.684  -0.984  0.00  0.00    -0.265 OA
ATOM      3  N2  UNL     1       0.317   1.419   1.216  0.00  0.00    -0.277 N 
ATOM      4  H10 UNL     1      -0.153   1.847   2.045  0.00  0.00    +0.155 HD
ENDROOT
BRANCH   3   5
ATOM      5  C8  UNL     1       1.756   1.417   1.171  0.00  0.00    +0.037 A 
ATOM      6  C9  UNL     1       2.443   0.302   0.659  0.00  0.00    +0.032 A 
ATOM      7  C10 UNL     1       3.847   0.263   0.638  0.00  0.00    -0.015 A 
ATOM      8  C16 UNL     1       4.565   1.353   1.154  0.00  0.00    +0.009 A 
ATOM      9  C17 UNL     1       3.894   2.459   1.679  0.00  0.00    +0.006 A 
ATOM     10  C18 UNL     1       2.492   2.506   1.689  0.00  0.00    -0.029 A 
ATOM     11  C19 UNL     1       1.797   3.712   2.262  0.00  0.00    +0.045 C 
BRANCH   7  12
ATOM     12  C11 UNL     1       4.560  -0.918   0.087  0.00  0.00    +0.003 A 
ATOM     13  C12 UNL     1       5.718  -1.419   0.709  0.00  0.00    +0.119 A 
ATOM     14  N3  UNL     1       6.361  -2.502   0.195  0.00  0.00    -0.260 NA
ATOM     15  C13 UNL     1       5.919  -3.132  -0.924  0.00  0.00    +0.149 A 
ATOM     16  C14 UNL     1       4.775  -2.674  -1.578  0.00  0.00    +0.142 A 
ATOM     17  F4  UNL     1       4.330  -3.296  -2.697  0.00  0.00    -0.204 F 
ATOM     18  C15 UNL     1       4.094  -1.565  -1.071  0.00  0.00    +0.050 A 
ENDBRANCH   7  12
ENDBRANCH   3   5
BRANCH   1  20
ATOM     19  N1  UNL     1      -2.789   0.311  -0.752  0.00  0.00    -0.304 N 
ATOM     20  C6  UNL     1      -1.957   0.754   0.333  0.00  0.00    +0.300 C 
ATOM     21  O1  UNL     1      -2.468   0.990   1.462  0.00  0.00    -0.265 OA
ATOM     22  H9  UNL     1      -2.356   0.178  -1.695  0.00  0.00    +0.149 HD
BRANCH  19  23
ATOM     23  C3  UNL     1      -4.223   0.040  -0.587  0.00  0.00    +0.082 C 
BRANCH  23  25
ATOM     24  C1  UNL     1      -3.882  -2.515  -0.612  0.00  0.00    +0.006 C 
ATOM     25  C2  UNL     1      -4.425  -1.304   0.151  0.00  0.00    +0.019 C 
ENDBRANCH  23  25
BRANCH  23  26
ATOM     26  C4  UNL     1      -4.933   0.123  -1.962  0.00  0.00    +0.135 C 
BRANCH  26  27
ATOM     27  C5  UNL     1      -6.463   0.007  -1.900  0.00  0.00    +0.392 C 
ATOM     28  F1  UNL     1      -6.995   0.396  -3.116  0.00  0.00    -0.171 F 
ATOM     29  F2  UNL     1      -6.978   0.826  -0.910  0.00  0.00    -0.171 F 
ATOM     30  F3  UNL     1      -6.844  -1.300  -1.660  0.00  0.00    -0.171 F 
ENDBRANCH  26  27
ENDBRANCH  23  26
ENDBRANCH  19  23
ENDBRANCH   1  20
TORSDOF 7
