REMARK  Name = /home/qwerty/github/datacon2025hack/step_04_hit_selection/docking/ligands/lig_679.pdb
REMARK  4 active torsions:
REMARK  status: ('A' for Active; 'I' for Inactive)
REMARK    1  A    between atoms: N1_3  and  C2_4
REMARK    2  A    between atoms: C11_14  and  C12_15
REMARK    3  A    between atoms: C12_15  and  C13_16
REMARK    4  A    between atoms: C14_18  and  C15_19
REMARK                            x       y       z     vdW  Elec       q    Type
REMARK                         _______ _______ _______ _____ _____    ______ ____
ROOT
ATOM      1  O1  UNL     1       5.488   1.877   0.773  0.00  0.00    -0.253 OA
ATOM      2  C1  UNL     1       5.204   0.650   0.843  0.00  0.00    +0.302 C 
ATOM      3  N1  UNL     1       6.237  -0.298   1.147  0.00  0.00    -0.296 N 
ATOM      4  N2  UNL     1       3.847   0.220   0.623  0.00  0.00    -0.285 N 
ATOM      5  C5  UNL     1       3.558  -1.150   0.183  0.00  0.00    +0.112 C 
ATOM      6  C6  UNL     1       2.358  -1.172  -0.773  0.00  0.00    +0.054 C 
ATOM      7  C7  UNL     1       1.128  -0.445  -0.179  0.00  0.00    +0.073 C 
ATOM      8  C8  UNL     1       1.566   1.013   0.146  0.00  0.00    +0.054 C 
ATOM      9  C9  UNL     1       2.737   1.037   1.130  0.00  0.00    +0.112 C 
ATOM     10  C10 UNL     1       0.001  -0.464  -1.251  0.00  0.00    +0.039 C 
ATOM     11  C11 UNL     1      -1.350  -0.008  -0.679  0.00  0.00    +0.003 C 
ATOM     12  C20 UNL     1      -1.647  -0.816   0.591  0.00  0.00    +0.032 C 
ATOM     13  C21 UNL     1      -0.473  -0.705   1.564  0.00  0.00    +0.161 C 
ATOM     14  O3  UNL     1       0.738  -1.168   0.989  0.00  0.00    -0.373 OA
ATOM     15  H1  UNL     1       5.981  -1.277   1.402  0.00  0.00    +0.151 HD
ENDROOT
BRANCH   3  16
ATOM     16  C2  UNL     1       7.626   0.118   1.309  0.00  0.00    +0.075 C 
ATOM     17  C3  UNL     1       8.636  -0.867   0.748  0.00  0.00    +0.024 C 
ATOM     18  C4  UNL     1       8.319   0.412  -0.010  0.00  0.00    +0.024 C 
ENDBRANCH   3  16
BRANCH  11  19
ATOM     19  C12 UNL     1      -2.464  -0.170  -1.731  0.00  0.00    +0.102 C 
BRANCH  19  20
ATOM     20  C13 UNL     1      -3.752   0.434  -1.262  0.00  0.00    +0.228 A 
ATOM     21  N3  UNL     1      -4.865  -0.275  -0.993  0.00  0.00    -0.191 NA
ATOM     22  C14 UNL     1      -5.712   0.701  -0.599  0.00  0.00    +0.204 A 
ATOM     23  N5  UNL     1      -5.140   1.922  -0.631  0.00  0.00    -0.056 NA
ATOM     24  O2  UNL     1      -3.929   1.713  -1.046  0.00  0.00    -0.338 OA
BRANCH  22  25
ATOM     25  C15 UNL     1      -7.112   0.459  -0.190  0.00  0.00    +0.041 A 
ATOM     26  C16 UNL     1      -7.940   1.524   0.199  0.00  0.00    +0.014 A 
ATOM     27  C17 UNL     1      -9.262   1.281   0.577  0.00  0.00    +0.020 A 
ATOM     28  C18 UNL     1      -9.748  -0.026   0.566  0.00  0.00    +0.111 A 
ATOM     29  N4  UNL     1      -8.937  -1.049   0.189  0.00  0.00    -0.263 NA
ATOM     30  C19 UNL     1      -7.645  -0.840  -0.183  0.00  0.00    +0.122 A 
ENDBRANCH  22  25
ENDBRANCH  19  20
ENDBRANCH  11  19
TORSDOF 4
