MODEL 1
REMARK VINA RESULT:    -6.961      0.000      0.000
REMARK INTER + INTRA:         -11.988
REMARK INTER:                 -10.217
REMARK INTRA:                  -1.771
REMARK UNBOUND:                -1.771
REMARK  Name = /home/qwerty/github/datacon2025hack/step_04_hit_selection/docking/ligands/lig_472.pdb
REMARK  10 active torsions:
REMARK  status: ('A' for Active; 'I' for Inactive)
REMARK    1  A    between atoms: C1_1  and  C2_2
REMARK    2  A    between atoms: C2_2  and  C3_3
REMARK    3  A    between atoms: C2_2  and  O1_4
REMARK    4  A    between atoms: O1_4  and  C4_5
REMARK    5  A    between atoms: C6_7  and  N1_8
REMARK    6  A    between atoms: C7_9  and  C8_11
REMARK    7  A    between atoms: N2_13  and  C9_14
REMARK    8  A    between atoms: C9_14  and  C10_15
REMARK    9  A    between atoms: C20_26  and  C21_27
REMARK   10  A    between atoms: N3_29  and  C22_30
REMARK                            x       y       z     vdW  Elec       q    Type
REMARK                         _______ _______ _______ _____ _____    ______ ____
ROOT
ATOM      1  C4  UNL     1      11.935  12.515  29.821  0.00  0.00    +0.135 A 
ATOM      2  C5  UNL     1      11.215  11.979  28.734  0.00  0.00    +0.069 A 
ATOM      3  C6  UNL     1       9.838  12.219  28.596  0.00  0.00    +0.037 A 
ATOM      4  C18 UNL     1       9.191  13.048  29.520  0.00  0.00    +0.024 A 
ATOM      5  C19 UNL     1       9.891  13.581  30.601  0.00  0.00    +0.018 A 
ATOM      6  C20 UNL     1      11.256  13.300  30.778  0.00  0.00    +0.079 A 
ENDROOT
BRANCH   3   7
ATOM      7  N1  UNL     1       9.092  11.673  27.494  0.00  0.00    -0.278 N 
ATOM      8  C7  UNL     1       8.419  10.402  27.540  0.00  0.00    +0.303 C 
ATOM      9  O2  UNL     1       8.325   9.772  28.626  0.00  0.00    -0.265 OA
ATOM     10  H9  UNL     1       8.913  12.295  26.674  0.00  0.00    +0.155 HD
BRANCH   8  11
ATOM     11  C8  UNL     1       7.806   9.841  26.320  0.00  0.00    +0.299 C 
ATOM     12  O3  UNL     1       7.186   8.746  26.382  0.00  0.00    -0.265 OA
ATOM     13  N2  UNL     1       7.919  10.531  25.065  0.00  0.00    -0.304 N 
ATOM     14  H10 UNL     1       8.521  11.382  24.998  0.00  0.00    +0.149 HD
BRANCH  13  15
ATOM     15  C9  UNL     1       7.286  10.043  23.841  0.00  0.00    +0.149 C 
BRANCH  15  16
ATOM     16  C10 UNL     1       8.246   9.139  23.054  0.00  0.00    +0.195 C 
ATOM     17  C11 UNL     1       8.203   9.416  21.521  0.00  0.00    +0.085 C 
ATOM     18  C12 UNL     1       9.604   9.814  21.224  0.00  0.00    -0.002 A 
ATOM     19  C13 UNL     1      10.167  10.188  20.002  0.00  0.00    +0.007 A 
ATOM     20  C14 UNL     1      11.528  10.539  19.973  0.00  0.00    +0.000 A 
ATOM     21  C15 UNL     1      12.294  10.507  21.157  0.00  0.00    +0.004 A 
ATOM     22  C16 UNL     1      11.700  10.126  22.372  0.00  0.00    +0.046 A 
ATOM     23  C17 UNL     1      10.348   9.788  22.369  0.00  0.00    +0.124 A 
ATOM     24  O4  UNL     1       9.592   9.402  23.454  0.00  0.00    -0.487 OA
ENDBRANCH  15  16
ENDBRANCH  13  15
ENDBRANCH   8  11
ENDBRANCH   3   7
BRANCH   6  25
ATOM     25  C21 UNL     1      11.959  13.840  31.963  0.00  0.00    +0.252 C 
ATOM     26  O5  UNL     1      12.100  15.087  32.088  0.00  0.00    -0.270 OA
ATOM     27  N3  UNL     1      12.434  12.961  32.995  0.00  0.00    -0.280 N 
ATOM     28  H22 UNL     1      11.967  12.031  33.100  0.00  0.00    +0.155 HD
BRANCH  27  29
ATOM     29  C22 UNL     1      13.302  13.400  34.050  0.00  0.00    +0.054 A 
ATOM     30  C23 UNL     1      14.688  13.398  33.835  0.00  0.00    +0.044 A 
ATOM     31  C24 UNL     1      15.562  13.828  34.839  0.00  0.00    +0.043 A 
ATOM     32 CL1  UNL     1      17.294  13.808  34.564  0.00  0.00    -0.083 Cl
ATOM     33  C25 UNL     1      15.053  14.278  36.060  0.00  0.00    +0.021 A 
ATOM     34  C26 UNL     1      13.672  14.311  36.273  0.00  0.00    +0.023 A 
ATOM     35  C27 UNL     1      12.791  13.883  35.273  0.00  0.00    +0.062 A 
ATOM     36 CL2  UNL     1      11.062  14.049  35.549  0.00  0.00    -0.082 Cl
ENDBRANCH  27  29
ENDBRANCH   6  25
BRANCH   1  37
ATOM     37  O1  UNL     1      13.321  12.322  29.965  0.00  0.00    -0.489 OA
BRANCH  37  39
ATOM     38  C1  UNL     1      15.448  11.857  28.894  0.00  0.00    +0.051 C 
ATOM     39  C2  UNL     1      14.345  12.887  29.147  0.00  0.00    +0.167 C 
ATOM     40  C3  UNL     1      14.917  14.107  29.865  0.00  0.00    +0.051 C 
ENDBRANCH  37  39
ENDBRANCH   1  37
TORSDOF 8
ENDMDL
MODEL 2
REMARK VINA RESULT:    -6.939     12.043     13.337
REMARK INTER + INTRA:         -11.956
REMARK INTER:                  -9.968
REMARK INTRA:                  -1.988
REMARK UNBOUND:                -1.771
REMARK  Name = /home/qwerty/github/datacon2025hack/step_04_hit_selection/docking/ligands/lig_472.pdb
REMARK  10 active torsions:
REMARK  status: ('A' for Active; 'I' for Inactive)
REMARK    1  A    between atoms: C1_1  and  C2_2
REMARK    2  A    between atoms: C2_2  and  C3_3
REMARK    3  A    between atoms: C2_2  and  O1_4
REMARK    4  A    between atoms: O1_4  and  C4_5
REMARK    5  A    between atoms: C6_7  and  N1_8
REMARK    6  A    between atoms: C7_9  and  C8_11
REMARK    7  A    between atoms: N2_13  and  C9_14
REMARK    8  A    between atoms: C9_14  and  C10_15
REMARK    9  A    between atoms: C20_26  and  C21_27
REMARK   10  A    between atoms: N3_29  and  C22_30
REMARK                            x       y       z     vdW  Elec       q    Type
REMARK                         _______ _______ _______ _____ _____    ______ ____
ROOT
ATOM      1  C4  UNL     1      19.839   1.963  29.556  0.00  0.00    +0.135 A 
ATOM      2  C5  UNL     1      19.249   1.409  28.401  0.00  0.00    +0.069 A 
ATOM      3  C6  UNL     1      19.955   1.360  27.188  0.00  0.00    +0.037 A 
ATOM      4  C18 UNL     1      21.278   1.814  27.146  0.00  0.00    +0.024 A 
ATOM      5  C19 UNL     1      21.871   2.367  28.280  0.00  0.00    +0.018 A 
ATOM      6  C20 UNL     1      21.154   2.472  29.482  0.00  0.00    +0.079 A 
ENDROOT
BRANCH   3   7
ATOM      7  N1  UNL     1      19.361   0.802  26.001  0.00  0.00    -0.278 N 
ATOM      8  C7  UNL     1      18.624   1.577  25.040  0.00  0.00    +0.303 C 
ATOM      9  O2  UNL     1      18.600   2.834  25.122  0.00  0.00    -0.265 OA
ATOM     10  H9  UNL     1      19.601  -0.185  25.758  0.00  0.00    +0.155 HD
BRANCH   8  11
ATOM     11  C8  UNL     1      17.915   0.908  23.932  0.00  0.00    +0.299 C 
ATOM     12  O3  UNL     1      17.245   1.596  23.116  0.00  0.00    -0.265 OA
ATOM     13  N2  UNL     1      17.980  -0.520  23.784  0.00  0.00    -0.304 N 
ATOM     14  H10 UNL     1      18.448  -1.092  24.520  0.00  0.00    +0.149 HD
BRANCH  13  15
ATOM     15  C9  UNL     1      17.338  -1.223  22.674  0.00  0.00    +0.149 C 
BRANCH  15  16
ATOM     16  C10 UNL     1      16.002  -1.836  23.116  0.00  0.00    +0.195 C 
ATOM     17  C11 UNL     1      16.046  -2.373  24.578  0.00  0.00    +0.085 C 
ATOM     18  C12 UNL     1      14.990  -1.572  25.250  0.00  0.00    -0.002 A 
ATOM     19  C13 UNL     1      14.578  -1.612  26.583  0.00  0.00    +0.007 A 
ATOM     20  C14 UNL     1      13.555  -0.738  26.992  0.00  0.00    +0.000 A 
ATOM     21  C15 UNL     1      12.968   0.149  26.067  0.00  0.00    +0.004 A 
ATOM     22  C16 UNL     1      13.403   0.166  24.731  0.00  0.00    +0.046 A 
ATOM     23  C17 UNL     1      14.421  -0.709  24.357  0.00  0.00    +0.124 A 
ATOM     24  O4  UNL     1      14.985  -0.832  23.107  0.00  0.00    -0.487 OA
ENDBRANCH  15  16
ENDBRANCH  13  15
ENDBRANCH   8  11
ENDBRANCH   3   7
BRANCH   6  25
ATOM     25  C21 UNL     1      21.794   3.110  30.655  0.00  0.00    +0.252 C 
ATOM     26  O5  UNL     1      22.634   2.460  31.335  0.00  0.00    -0.270 OA
ATOM     27  N3  UNL     1      21.507   4.476  30.991  0.00  0.00    -0.280 N 
ATOM     28  H22 UNL     1      21.171   5.109  30.229  0.00  0.00    +0.155 HD
BRANCH  27  29
ATOM     29  C22 UNL     1      21.926   5.076  32.226  0.00  0.00    +0.054 A 
ATOM     30  C23 UNL     1      23.083   5.868  32.238  0.00  0.00    +0.044 A 
ATOM     31  C24 UNL     1      23.514   6.474  33.423  0.00  0.00    +0.043 A 
ATOM     32 CL1  UNL     1      24.971   7.451  33.430  0.00  0.00    -0.083 Cl
ATOM     33  C25 UNL     1      22.781   6.303  34.600  0.00  0.00    +0.021 A 
ATOM     34  C26 UNL     1      21.611   5.539  34.591  0.00  0.00    +0.023 A 
ATOM     35  C27 UNL     1      21.173   4.930  33.409  0.00  0.00    +0.062 A 
ATOM     36 CL2  UNL     1      19.637   4.072  33.426  0.00  0.00    -0.082 Cl
ENDBRANCH  27  29
ENDBRANCH   6  25
BRANCH   1  37
ATOM     37  O1  UNL     1      19.170   1.992  30.793  0.00  0.00    -0.489 OA
BRANCH  37  39
ATOM     38  C1  UNL     1      17.652   1.274  32.545  0.00  0.00    +0.051 C 
ATOM     39  C2  UNL     1      18.742   0.862  31.553  0.00  0.00    +0.167 C 
ATOM     40  C3  UNL     1      19.949   0.298  32.298  0.00  0.00    +0.051 C 
ENDBRANCH  37  39
ENDBRANCH   1  37
TORSDOF 8
ENDMDL
MODEL 3
REMARK VINA RESULT:    -6.807      6.251     12.378
REMARK INTER + INTRA:         -11.761
REMARK INTER:                 -10.316
REMARK INTRA:                  -1.446
REMARK UNBOUND:                -1.771
REMARK  Name = /home/qwerty/github/datacon2025hack/step_04_hit_selection/docking/ligands/lig_472.pdb
REMARK  10 active torsions:
REMARK  status: ('A' for Active; 'I' for Inactive)
REMARK    1  A    between atoms: C1_1  and  C2_2
REMARK    2  A    between atoms: C2_2  and  C3_3
REMARK    3  A    between atoms: C2_2  and  O1_4
REMARK    4  A    between atoms: O1_4  and  C4_5
REMARK    5  A    between atoms: C6_7  and  N1_8
REMARK    6  A    between atoms: C7_9  and  C8_11
REMARK    7  A    between atoms: N2_13  and  C9_14
REMARK    8  A    between atoms: C9_14  and  C10_15
REMARK    9  A    between atoms: C20_26  and  C21_27
REMARK   10  A    between atoms: N3_29  and  C22_30
REMARK                            x       y       z     vdW  Elec       q    Type
REMARK                         _______ _______ _______ _____ _____    ______ ____
ROOT
ATOM      1  C4  UNL     1      13.717  12.495  34.156  0.00  0.00    +0.135 A 
ATOM      2  C5  UNL     1      14.618  11.915  35.073  0.00  0.00    +0.069 A 
ATOM      3  C6  UNL     1      15.996  11.884  34.802  0.00  0.00    +0.037 A 
ATOM      4  C18 UNL     1      16.479  12.488  33.636  0.00  0.00    +0.024 A 
ATOM      5  C19 UNL     1      15.597  13.062  32.720  0.00  0.00    +0.018 A 
ATOM      6  C20 UNL     1      14.213  13.048  32.956  0.00  0.00    +0.079 A 
ENDROOT
BRANCH   3   7
ATOM      7  N1  UNL     1      16.925  11.290  35.726  0.00  0.00    -0.278 N 
ATOM      8  C7  UNL     1      17.248   9.889  35.741  0.00  0.00    +0.303 C 
ATOM      9  O2  UNL     1      16.836   9.133  34.821  0.00  0.00    -0.265 OA
ATOM     10  H9  UNL     1      17.496  11.933  36.318  0.00  0.00    +0.155 HD
BRANCH   8  11
ATOM     11  C8  UNL     1      18.090   9.331  36.816  0.00  0.00    +0.299 C 
ATOM     12  O3  UNL     1      17.921   9.717  38.004  0.00  0.00    -0.265 OA
ATOM     13  N2  UNL     1      19.105   8.359  36.516  0.00  0.00    -0.304 N 
ATOM     14  H10 UNL     1      19.311   8.121  35.520  0.00  0.00    +0.149 HD
BRANCH  13  15
ATOM     15  C9  UNL     1      19.930   7.740  37.552  0.00  0.00    +0.149 C 
BRANCH  15  16
ATOM     16  C10 UNL     1      21.406   8.123  37.376  0.00  0.00    +0.195 C 
ATOM     17  C11 UNL     1      22.339   6.878  37.281  0.00  0.00    +0.085 C 
ATOM     18  C12 UNL     1      22.961   7.041  35.941  0.00  0.00    -0.002 A 
ATOM     19  C13 UNL     1      23.888   6.215  35.302  0.00  0.00    +0.007 A 
ATOM     20  C14 UNL     1      24.326   6.575  34.015  0.00  0.00    +0.000 A 
ATOM     21  C15 UNL     1      23.835   7.745  33.400  0.00  0.00    +0.004 A 
ATOM     22  C16 UNL     1      22.904   8.557  34.068  0.00  0.00    +0.046 A 
ATOM     23  C17 UNL     1      22.485   8.171  35.341  0.00  0.00    +0.124 A 
ATOM     24  O4  UNL     1      21.577   8.826  36.144  0.00  0.00    -0.487 OA
ENDBRANCH  15  16
ENDBRANCH  13  15
ENDBRANCH   8  11
ENDBRANCH   3   7
BRANCH   6  25
ATOM     25  C21 UNL     1      13.299  13.620  31.942  0.00  0.00    +0.252 C 
ATOM     26  O5  UNL     1      12.802  14.763  32.127  0.00  0.00    -0.270 OA
ATOM     27  N3  UNL     1      13.018  12.907  30.727  0.00  0.00    -0.280 N 
ATOM     28  H22 UNL     1      13.720  12.207  30.394  0.00  0.00    +0.155 HD
BRANCH  27  29
ATOM     29  C22 UNL     1      11.985  13.307  29.815  0.00  0.00    +0.054 A 
ATOM     30  C23 UNL     1      10.658  12.947  30.090  0.00  0.00    +0.044 A 
ATOM     31  C24 UNL     1       9.625  13.329  29.226  0.00  0.00    +0.043 A 
ATOM     32 CL1  UNL     1       7.971  12.860  29.573  0.00  0.00    -0.083 Cl
ATOM     33  C25 UNL     1       9.914  14.087  28.088  0.00  0.00    +0.021 A 
ATOM     34  C26 UNL     1      11.229  14.475  27.820  0.00  0.00    +0.023 A 
ATOM     35  C27 UNL     1      12.267  14.098  28.681  0.00  0.00    +0.062 A 
ATOM     36 CL2  UNL     1      13.887  14.705  28.360  0.00  0.00    -0.082 Cl
ENDBRANCH  27  29
ENDBRANCH   6  25
BRANCH   1  37
ATOM     37  O1  UNL     1      12.337  12.574  34.418  0.00  0.00    -0.489 OA
BRANCH  37  39
ATOM     38  C1  UNL     1      11.204  12.121  36.516  0.00  0.00    +0.051 C 
ATOM     39  C2  UNL     1      11.721  13.189  35.549  0.00  0.00    +0.167 C 
ATOM     40  C3  UNL     1      10.566  14.057  35.055  0.00  0.00    +0.051 C 
ENDBRANCH  37  39
ENDBRANCH   1  37
TORSDOF 8
ENDMDL
MODEL 4
REMARK VINA RESULT:    -6.791      8.027     12.581
REMARK INTER + INTRA:         -11.739
REMARK INTER:                 -10.143
REMARK INTRA:                  -1.596
REMARK UNBOUND:                -1.771
REMARK  Name = /home/qwerty/github/datacon2025hack/step_04_hit_selection/docking/ligands/lig_472.pdb
REMARK  10 active torsions:
REMARK  status: ('A' for Active; 'I' for Inactive)
REMARK    1  A    between atoms: C1_1  and  C2_2
REMARK    2  A    between atoms: C2_2  and  C3_3
REMARK    3  A    between atoms: C2_2  and  O1_4
REMARK    4  A    between atoms: O1_4  and  C4_5
REMARK    5  A    between atoms: C6_7  and  N1_8
REMARK    6  A    between atoms: C7_9  and  C8_11
REMARK    7  A    between atoms: N2_13  and  C9_14
REMARK    8  A    between atoms: C9_14  and  C10_15
REMARK    9  A    between atoms: C20_26  and  C21_27
REMARK   10  A    between atoms: N3_29  and  C22_30
REMARK                            x       y       z     vdW  Elec       q    Type
REMARK                         _______ _______ _______ _____ _____    ______ ____
ROOT
ATOM      1  C4  UNL     1      16.596  10.193  35.369  0.00  0.00    +0.135 A 
ATOM      2  C5  UNL     1      17.687   9.309  35.498  0.00  0.00    +0.069 A 
ATOM      3  C6  UNL     1      18.157   8.929  36.766  0.00  0.00    +0.037 A 
ATOM      4  C18 UNL     1      17.493   9.390  37.908  0.00  0.00    +0.024 A 
ATOM      5  C19 UNL     1      16.415  10.266  37.794  0.00  0.00    +0.018 A 
ATOM      6  C20 UNL     1      15.974  10.696  36.532  0.00  0.00    +0.079 A 
ENDROOT
BRANCH   3   7
ATOM      7  N1  UNL     1      19.273   8.033  36.910  0.00  0.00    -0.278 N 
ATOM      8  C7  UNL     1      20.640   8.421  36.684  0.00  0.00    +0.303 C 
ATOM      9  O2  UNL     1      20.934   9.631  36.496  0.00  0.00    -0.265 OA
ATOM     10  H9  UNL     1      19.091   7.098  37.337  0.00  0.00    +0.155 HD
BRANCH   8  11
ATOM     11  C8  UNL     1      21.713   7.408  36.701  0.00  0.00    +0.299 C 
ATOM     12  O3  UNL     1      22.131   6.963  37.804  0.00  0.00    -0.265 OA
ATOM     13  N2  UNL     1      22.286   6.933  35.472  0.00  0.00    -0.304 N 
ATOM     14  H10 UNL     1      22.009   7.379  34.570  0.00  0.00    +0.149 HD
BRANCH  13  15
ATOM     15  C9  UNL     1      23.314   5.894  35.436  0.00  0.00    +0.149 C 
BRANCH  15  16
ATOM     16  C10 UNL     1      24.104   5.954  34.121  0.00  0.00    +0.195 C 
ATOM     17  C11 UNL     1      23.177   6.047  32.871  0.00  0.00    +0.085 C 
ATOM     18  C12 UNL     1      23.593   7.333  32.254  0.00  0.00    -0.002 A 
ATOM     19  C13 UNL     1      23.101   7.948  31.101  0.00  0.00    +0.007 A 
ATOM     20  C14 UNL     1      23.651   9.186  30.719  0.00  0.00    +0.000 A 
ATOM     21  C15 UNL     1      24.674   9.775  31.489  0.00  0.00    +0.004 A 
ATOM     22  C16 UNL     1      25.150   9.132  32.644  0.00  0.00    +0.046 A 
ATOM     23  C17 UNL     1      24.582   7.909  32.999  0.00  0.00    +0.124 A 
ATOM     24  O4  UNL     1      24.904   7.138  34.094  0.00  0.00    -0.487 OA
ENDBRANCH  15  16
ENDBRANCH  13  15
ENDBRANCH   8  11
ENDBRANCH   3   7
BRANCH   6  25
ATOM     25  C21 UNL     1      14.859  11.666  36.446  0.00  0.00    +0.252 C 
ATOM     26  O5  UNL     1      14.902  12.726  37.127  0.00  0.00    -0.270 OA
ATOM     27  N3  UNL     1      13.757  11.435  35.554  0.00  0.00    -0.280 N 
ATOM     28  H22 UNL     1      13.918  10.818  34.725  0.00  0.00    +0.155 HD
BRANCH  27  29
ATOM     29  C22 UNL     1      12.557  12.221  35.584  0.00  0.00    +0.054 A 
ATOM     30  C23 UNL     1      12.312  13.127  34.542  0.00  0.00    +0.044 A 
ATOM     31  C24 UNL     1      11.148  13.903  34.536  0.00  0.00    +0.043 A 
ATOM     32 CL1  UNL     1      10.859  15.043  33.235  0.00  0.00    -0.083 Cl
ATOM     33  C25 UNL     1      10.213  13.764  35.566  0.00  0.00    +0.021 A 
ATOM     34  C26 UNL     1      10.435  12.844  36.593  0.00  0.00    +0.023 A 
ATOM     35  C27 UNL     1      11.597  12.063  36.606  0.00  0.00    +0.062 A 
ATOM     36 CL2  UNL     1      11.775  10.841  37.859  0.00  0.00    -0.082 Cl
ENDBRANCH  27  29
ENDBRANCH   6  25
BRANCH   1  37
ATOM     37  O1  UNL     1      16.080  10.562  34.113  0.00  0.00    -0.489 OA
BRANCH  37  39
ATOM     38  C1  UNL     1      15.708  10.585  31.715  0.00  0.00    +0.051 C 
ATOM     39  C2  UNL     1      15.996   9.733  32.954  0.00  0.00    +0.167 C 
ATOM     40  C3  UNL     1      14.877   8.718  33.168  0.00  0.00    +0.051 C 
ENDBRANCH  37  39
ENDBRANCH   1  37
TORSDOF 8
ENDMDL
MODEL 5
REMARK VINA RESULT:    -6.738     11.777     13.314
REMARK INTER + INTRA:         -11.661
REMARK INTER:                  -9.968
REMARK INTRA:                  -1.693
REMARK UNBOUND:                -1.771
REMARK  Name = /home/qwerty/github/datacon2025hack/step_04_hit_selection/docking/ligands/lig_472.pdb
REMARK  10 active torsions:
REMARK  status: ('A' for Active; 'I' for Inactive)
REMARK    1  A    between atoms: C1_1  and  C2_2
REMARK    2  A    between atoms: C2_2  and  C3_3
REMARK    3  A    between atoms: C2_2  and  O1_4
REMARK    4  A    between atoms: O1_4  and  C4_5
REMARK    5  A    between atoms: C6_7  and  N1_8
REMARK    6  A    between atoms: C7_9  and  C8_11
REMARK    7  A    between atoms: N2_13  and  C9_14
REMARK    8  A    between atoms: C9_14  and  C10_15
REMARK    9  A    between atoms: C20_26  and  C21_27
REMARK   10  A    between atoms: N3_29  and  C22_30
REMARK                            x       y       z     vdW  Elec       q    Type
REMARK                         _______ _______ _______ _____ _____    ______ ____
ROOT
ATOM      1  C4  UNL     1      20.144  10.779  18.949  0.00  0.00    +0.135 A 
ATOM      2  C5  UNL     1      19.413   9.588  18.766  0.00  0.00    +0.069 A 
ATOM      3  C6  UNL     1      18.037   9.540  19.046  0.00  0.00    +0.037 A 
ATOM      4  C18 UNL     1      17.380  10.706  19.454  0.00  0.00    +0.024 A 
ATOM      5  C19 UNL     1      18.093  11.890  19.641  0.00  0.00    +0.018 A 
ATOM      6  C20 UNL     1      19.479  11.932  19.419  0.00  0.00    +0.079 A 
ENDROOT
BRANCH   3   7
ATOM      7  N1  UNL     1      17.281   8.329  18.869  0.00  0.00    -0.278 N 
ATOM      8  C7  UNL     1      17.191   7.294  19.863  0.00  0.00    +0.303 C 
ATOM      9  O2  UNL     1      17.655   7.482  21.019  0.00  0.00    -0.265 OA
ATOM     10  H9  UNL     1      16.655   8.266  18.035  0.00  0.00    +0.155 HD
BRANCH   8  11
ATOM     11  C8  UNL     1      16.524   6.016  19.548  0.00  0.00    +0.299 C 
ATOM     12  O3  UNL     1      17.192   5.073  19.043  0.00  0.00    -0.265 OA
ATOM     13  N2  UNL     1      15.121   5.844  19.804  0.00  0.00    -0.304 N 
ATOM     14  H10 UNL     1      14.553   6.659  20.124  0.00  0.00    +0.149 HD
BRANCH  13  15
ATOM     15  C9  UNL     1      14.427   4.581  19.557  0.00  0.00    +0.149 C 
BRANCH  15  16
ATOM     16  C10 UNL     1      14.168   3.833  20.873  0.00  0.00    +0.195 C 
ATOM     17  C11 UNL     1      13.778   2.342  20.645  0.00  0.00    +0.085 C 
ATOM     18  C12 UNL     1      14.853   1.612  21.367  0.00  0.00    -0.002 A 
ATOM     19  C13 UNL     1      15.033   0.234  21.505  0.00  0.00    +0.007 A 
ATOM     20  C14 UNL     1      16.147  -0.224  22.233  0.00  0.00    +0.000 A 
ATOM     21  C15 UNL     1      17.047   0.698  22.805  0.00  0.00    +0.004 A 
ATOM     22  C16 UNL     1      16.839   2.079  22.651  0.00  0.00    +0.046 A 
ATOM     23  C17 UNL     1      15.729   2.501  21.920  0.00  0.00    +0.124 A 
ATOM     24  O4  UNL     1      15.366   3.802  21.652  0.00  0.00    -0.487 OA
ENDBRANCH  15  16
ENDBRANCH  13  15
ENDBRANCH   8  11
ENDBRANCH   3   7
BRANCH   6  25
ATOM     25  C21 UNL     1      20.215  13.190  19.675  0.00  0.00    +0.252 C 
ATOM     26  O5  UNL     1      19.881  14.242  19.066  0.00  0.00    -0.270 OA
ATOM     27  N3  UNL     1      21.271  13.234  20.649  0.00  0.00    -0.280 N 
ATOM     28  H22 UNL     1      21.261  12.523  21.415  0.00  0.00    +0.155 HD
BRANCH  27  29
ATOM     29  C22 UNL     1      22.154  14.356  20.785  0.00  0.00    +0.054 A 
ATOM     30  C23 UNL     1      23.245  14.473  19.911  0.00  0.00    +0.044 A 
ATOM     31  C24 UNL     1      24.121  15.559  20.011  0.00  0.00    +0.043 A 
ATOM     32 CL1  UNL     1      25.490  15.687  18.922  0.00  0.00    -0.083 Cl
ATOM     33  C25 UNL     1      23.901  16.545  20.977  0.00  0.00    +0.021 A 
ATOM     34  C26 UNL     1      22.801  16.452  21.833  0.00  0.00    +0.023 A 
ATOM     35  C27 UNL     1      21.920  15.368  21.739  0.00  0.00    +0.062 A 
ATOM     36 CL2  UNL     1      20.490  15.356  22.764  0.00  0.00    -0.082 Cl
ENDBRANCH  27  29
ENDBRANCH   6  25
BRANCH   1  37
ATOM     37  O1  UNL     1      21.514  10.867  18.643  0.00  0.00    -0.489 OA
BRANCH  37  39
ATOM     38  C1  UNL     1      22.275   9.847  20.710  0.00  0.00    +0.051 C 
ATOM     39  C2  UNL     1      22.565  10.098  19.228  0.00  0.00    +0.167 C 
ATOM     40  C3  UNL     1      23.872  10.871  19.070  0.00  0.00    +0.051 C 
ENDBRANCH  37  39
ENDBRANCH   1  37
TORSDOF 8
ENDMDL
MODEL 6
REMARK VINA RESULT:    -6.717     10.670     12.663
REMARK INTER + INTRA:         -11.630
REMARK INTER:                  -9.954
REMARK INTRA:                  -1.675
REMARK UNBOUND:                -1.771
REMARK  Name = /home/qwerty/github/datacon2025hack/step_04_hit_selection/docking/ligands/lig_472.pdb
REMARK  10 active torsions:
REMARK  status: ('A' for Active; 'I' for Inactive)
REMARK    1  A    between atoms: C1_1  and  C2_2
REMARK    2  A    between atoms: C2_2  and  C3_3
REMARK    3  A    between atoms: C2_2  and  O1_4
REMARK    4  A    between atoms: O1_4  and  C4_5
REMARK    5  A    between atoms: C6_7  and  N1_8
REMARK    6  A    between atoms: C7_9  and  C8_11
REMARK    7  A    between atoms: N2_13  and  C9_14
REMARK    8  A    between atoms: C9_14  and  C10_15
REMARK    9  A    between atoms: C20_26  and  C21_27
REMARK   10  A    between atoms: N3_29  and  C22_30
REMARK                            x       y       z     vdW  Elec       q    Type
REMARK                         _______ _______ _______ _____ _____    ______ ____
ROOT
ATOM      1  C4  UNL     1      20.086  10.689  19.149  0.00  0.00    +0.135 A 
ATOM      2  C5  UNL     1      19.334   9.498  19.078  0.00  0.00    +0.069 A 
ATOM      3  C6  UNL     1      17.940   9.518  19.253  0.00  0.00    +0.037 A 
ATOM      4  C18 UNL     1      17.291  10.743  19.441  0.00  0.00    +0.024 A 
ATOM      5  C19 UNL     1      18.024  11.927  19.516  0.00  0.00    +0.018 A 
ATOM      6  C20 UNL     1      19.423  11.909  19.399  0.00  0.00    +0.079 A 
ENDROOT
BRANCH   3   7
ATOM      7  N1  UNL     1      17.163   8.309  19.188  0.00  0.00    -0.278 N 
ATOM      8  C7  UNL     1      16.815   7.523  20.342  0.00  0.00    +0.303 C 
ATOM      9  O2  UNL     1      17.052   7.957  21.500  0.00  0.00    -0.265 OA
ATOM     10  H9  UNL     1      16.712   8.072  18.276  0.00  0.00    +0.155 HD
BRANCH   8  11
ATOM     11  C8  UNL     1      16.149   6.217  20.178  0.00  0.00    +0.299 C 
ATOM     12  O3  UNL     1      16.694   5.323  19.476  0.00  0.00    -0.265 OA
ATOM     13  N2  UNL     1      14.881   5.963  20.806  0.00  0.00    -0.304 N 
ATOM     14  H10 UNL     1      14.386   6.739  21.298  0.00  0.00    +0.149 HD
BRANCH  13  15
ATOM     15  C9  UNL     1      14.206   4.669  20.715  0.00  0.00    +0.149 C 
BRANCH  15  16
ATOM     16  C10 UNL     1      12.974   4.759  19.805  0.00  0.00    +0.195 C 
ATOM     17  C11 UNL     1      11.830   3.799  20.251  0.00  0.00    +0.085 C 
ATOM     18  C12 UNL     1      10.709   4.734  20.525  0.00  0.00    -0.002 A 
ATOM     19  C13 UNL     1       9.417   4.445  20.967  0.00  0.00    +0.007 A 
ATOM     20  C14 UNL     1       8.525   5.514  21.169  0.00  0.00    +0.000 A 
ATOM     21  C15 UNL     1       8.940   6.839  20.924  0.00  0.00    +0.004 A 
ATOM     22  C16 UNL     1      10.246   7.100  20.478  0.00  0.00    +0.046 A 
ATOM     23  C17 UNL     1      11.108   6.020  20.292  0.00  0.00    +0.124 A 
ATOM     24  O4  UNL     1      12.419   6.074  19.874  0.00  0.00    -0.487 OA
ENDBRANCH  15  16
ENDBRANCH  13  15
ENDBRANCH   8  11
ENDBRANCH   3   7
BRANCH   6  25
ATOM     25  C21 UNL     1      20.177  13.176  19.534  0.00  0.00    +0.252 C 
ATOM     26  O5  UNL     1      19.928  14.134  18.753  0.00  0.00    -0.270 OA
ATOM     27  N3  UNL     1      21.150  13.340  20.578  0.00  0.00    -0.280 N 
ATOM     28  H22 UNL     1      21.054  12.749  21.436  0.00  0.00    +0.155 HD
BRANCH  27  29
ATOM     29  C22 UNL     1      22.056  14.452  20.627  0.00  0.00    +0.054 A 
ATOM     30  C23 UNL     1      23.145  14.481  19.744  0.00  0.00    +0.044 A 
ATOM     31  C24 UNL     1      24.042  15.555  19.759  0.00  0.00    +0.043 A 
ATOM     32 CL1  UNL     1      25.408  15.573  18.660  0.00  0.00    -0.083 Cl
ATOM     33  C25 UNL     1      23.845  16.614  20.648  0.00  0.00    +0.021 A 
ATOM     34  C26 UNL     1      22.747  16.608  21.512  0.00  0.00    +0.023 A 
ATOM     35  C27 UNL     1      21.844  15.538  21.502  0.00  0.00    +0.062 A 
ATOM     36 CL2  UNL     1      20.419  15.632  22.529  0.00  0.00    -0.082 Cl
ENDBRANCH  27  29
ENDBRANCH   6  25
BRANCH   1  37
ATOM     37  O1  UNL     1      21.477  10.704  18.942  0.00  0.00    -0.489 OA
BRANCH  37  39
ATOM     38  C1  UNL     1      23.375  10.600  20.452  0.00  0.00    +0.051 C 
ATOM     39  C2  UNL     1      22.433   9.822  19.530  0.00  0.00    +0.167 C 
ATOM     40  C3  UNL     1      23.224   9.152  18.410  0.00  0.00    +0.051 C 
ENDBRANCH  37  39
ENDBRANCH   1  37
TORSDOF 8
ENDMDL
MODEL 7
REMARK VINA RESULT:    -6.636      9.809     12.832
REMARK INTER + INTRA:         -11.510
REMARK INTER:                  -9.965
REMARK INTRA:                  -1.545
REMARK UNBOUND:                -1.771
REMARK  Name = /home/qwerty/github/datacon2025hack/step_04_hit_selection/docking/ligands/lig_472.pdb
REMARK  10 active torsions:
REMARK  status: ('A' for Active; 'I' for Inactive)
REMARK    1  A    between atoms: C1_1  and  C2_2
REMARK    2  A    between atoms: C2_2  and  C3_3
REMARK    3  A    between atoms: C2_2  and  O1_4
REMARK    4  A    between atoms: O1_4  and  C4_5
REMARK    5  A    between atoms: C6_7  and  N1_8
REMARK    6  A    between atoms: C7_9  and  C8_11
REMARK    7  A    between atoms: N2_13  and  C9_14
REMARK    8  A    between atoms: C9_14  and  C10_15
REMARK    9  A    between atoms: C20_26  and  C21_27
REMARK   10  A    between atoms: N3_29  and  C22_30
REMARK                            x       y       z     vdW  Elec       q    Type
REMARK                         _______ _______ _______ _____ _____    ______ ____
ROOT
ATOM      1  C4  UNL     1      18.268   7.565  19.654  0.00  0.00    +0.135 A 
ATOM      2  C5  UNL     1      16.926   7.182  19.855  0.00  0.00    +0.069 A 
ATOM      3  C6  UNL     1      16.613   5.949  20.451  0.00  0.00    +0.037 A 
ATOM      4  C18 UNL     1      17.649   5.123  20.900  0.00  0.00    +0.024 A 
ATOM      5  C19 UNL     1      18.980   5.489  20.705  0.00  0.00    +0.018 A 
ATOM      6  C20 UNL     1      19.302   6.693  20.059  0.00  0.00    +0.079 A 
ENDROOT
BRANCH   3   7
ATOM      7  N1  UNL     1      15.247   5.545  20.657  0.00  0.00    -0.278 N 
ATOM      8  C7  UNL     1      14.672   4.359  20.080  0.00  0.00    +0.303 C 
ATOM      9  O2  UNL     1      15.403   3.525  19.484  0.00  0.00    -0.265 OA
ATOM     10  H9  UNL     1      14.692   6.063  21.373  0.00  0.00    +0.155 HD
BRANCH   8  11
ATOM     11  C8  UNL     1      13.226   4.095  20.210  0.00  0.00    +0.299 C 
ATOM     12  O3  UNL     1      12.819   2.909  20.333  0.00  0.00    -0.265 OA
ATOM     13  N2  UNL     1      12.284   5.179  20.191  0.00  0.00    -0.304 N 
ATOM     14  H10 UNL     1      12.617   6.147  19.985  0.00  0.00    +0.149 HD
BRANCH  13  15
ATOM     15  C9  UNL     1      10.847   4.973  20.367  0.00  0.00    +0.149 C 
BRANCH  15  16
ATOM     16  C10 UNL     1      10.185   6.225  20.960  0.00  0.00    +0.195 C 
ATOM     17  C11 UNL     1      11.025   6.857  22.110  0.00  0.00    +0.085 C 
ATOM     18  C12 UNL     1      11.307   8.222  21.594  0.00  0.00    -0.002 A 
ATOM     19  C13 UNL     1      12.033   9.252  22.196  0.00  0.00    +0.007 A 
ATOM     20  C14 UNL     1      12.175  10.465  21.498  0.00  0.00    +0.000 A 
ATOM     21  C15 UNL     1      11.589  10.623  20.225  0.00  0.00    +0.004 A 
ATOM     22  C16 UNL     1      10.863   9.569  19.645  0.00  0.00    +0.046 A 
ATOM     23  C17 UNL     1      10.744   8.378  20.360  0.00  0.00    +0.124 A 
ATOM     24  O4  UNL     1      10.086   7.238  19.956  0.00  0.00    -0.487 OA
ENDBRANCH  15  16
ENDBRANCH  13  15
ENDBRANCH   8  11
ENDBRANCH   3   7
BRANCH   6  25
ATOM     25  C21 UNL     1      20.724   7.030  19.820  0.00  0.00    +0.252 C 
ATOM     26  O5  UNL     1      21.393   6.354  18.993  0.00  0.00    -0.270 OA
ATOM     27  N3  UNL     1      21.330   8.150  20.484  0.00  0.00    -0.280 N 
ATOM     28  H22 UNL     1      20.706   8.922  20.813  0.00  0.00    +0.155 HD
BRANCH  27  29
ATOM     29  C22 UNL     1      22.744   8.394  20.459  0.00  0.00    +0.054 A 
ATOM     30  C23 UNL     1      23.249   9.382  19.602  0.00  0.00    +0.044 A 
ATOM     31  C24 UNL     1      24.621   9.651  19.561  0.00  0.00    +0.043 A 
ATOM     32 CL1  UNL     1      25.243  10.881  18.475  0.00  0.00    -0.083 Cl
ATOM     33  C25 UNL     1      25.496   8.941  20.388  0.00  0.00    +0.021 A 
ATOM     34  C26 UNL     1      24.999   7.974  21.265  0.00  0.00    +0.023 A 
ATOM     35  C27 UNL     1      23.627   7.700  21.313  0.00  0.00    +0.062 A 
ATOM     36 CL2  UNL     1      23.041   6.554  22.513  0.00  0.00    -0.082 Cl
ENDBRANCH  27  29
ENDBRANCH   6  25
BRANCH   1  37
ATOM     37  O1  UNL     1      18.612   8.809  19.094  0.00  0.00    -0.489 OA
BRANCH  37  39
ATOM     38  C1  UNL     1      16.997  10.608  19.308  0.00  0.00    +0.051 C 
ATOM     39  C2  UNL     1      18.390  10.092  19.678  0.00  0.00    +0.167 C 
ATOM     40  C3  UNL     1      19.462  11.048  19.160  0.00  0.00    +0.051 C 
ENDBRANCH  37  39
ENDBRANCH   1  37
TORSDOF 8
ENDMDL
MODEL 8
REMARK VINA RESULT:    -6.511      9.735     12.358
REMARK INTER + INTRA:         -11.327
REMARK INTER:                  -9.910
REMARK INTRA:                  -1.418
REMARK UNBOUND:                -1.771
REMARK  Name = /home/qwerty/github/datacon2025hack/step_04_hit_selection/docking/ligands/lig_472.pdb
REMARK  10 active torsions:
REMARK  status: ('A' for Active; 'I' for Inactive)
REMARK    1  A    between atoms: C1_1  and  C2_2
REMARK    2  A    between atoms: C2_2  and  C3_3
REMARK    3  A    between atoms: C2_2  and  O1_4
REMARK    4  A    between atoms: O1_4  and  C4_5
REMARK    5  A    between atoms: C6_7  and  N1_8
REMARK    6  A    between atoms: C7_9  and  C8_11
REMARK    7  A    between atoms: N2_13  and  C9_14
REMARK    8  A    between atoms: C9_14  and  C10_15
REMARK    9  A    between atoms: C20_26  and  C21_27
REMARK   10  A    between atoms: N3_29  and  C22_30
REMARK                            x       y       z     vdW  Elec       q    Type
REMARK                         _______ _______ _______ _____ _____    ______ ____
ROOT
ATOM      1  C4  UNL     1      16.724   0.997  24.748  0.00  0.00    +0.135 A 
ATOM      2  C5  UNL     1      15.617   1.279  23.921  0.00  0.00    +0.069 A 
ATOM      3  C6  UNL     1      15.757   2.100  22.790  0.00  0.00    +0.037 A 
ATOM      4  C18 UNL     1      17.023   2.593  22.453  0.00  0.00    +0.024 A 
ATOM      5  C19 UNL     1      18.125   2.323  23.265  0.00  0.00    +0.018 A 
ATOM      6  C20 UNL     1      17.983   1.550  24.428  0.00  0.00    +0.079 A 
ENDROOT
BRANCH   3   7
ATOM      7  N1  UNL     1      14.634   2.400  21.942  0.00  0.00    -0.278 N 
ATOM      8  C7  UNL     1      13.739   3.504  22.166  0.00  0.00    +0.303 C 
ATOM      9  O2  UNL     1      14.002   4.365  23.047  0.00  0.00    -0.265 OA
ATOM     10  H9  UNL     1      14.552   1.874  21.043  0.00  0.00    +0.155 HD
BRANCH   8  11
ATOM     11  C8  UNL     1      12.524   3.654  21.343  0.00  0.00    +0.299 C 
ATOM     12  O3  UNL     1      11.928   2.628  20.919  0.00  0.00    -0.265 OA
ATOM     13  N2  UNL     1      12.022   4.961  21.018  0.00  0.00    -0.304 N 
ATOM     14  H10 UNL     1      12.576   5.805  21.283  0.00  0.00    +0.149 HD
BRANCH  13  15
ATOM     15  C9  UNL     1      10.794   5.161  20.250  0.00  0.00    +0.149 C 
BRANCH  15  16
ATOM     16  C10 UNL     1       9.706   5.805  21.120  0.00  0.00    +0.195 C 
ATOM     17  C11 UNL     1      10.244   6.262  22.509  0.00  0.00    +0.085 C 
ATOM     18  C12 UNL     1       9.981   7.724  22.495  0.00  0.00    -0.002 A 
ATOM     19  C13 UNL     1      10.260   8.672  23.481  0.00  0.00    +0.007 A 
ATOM     20  C14 UNL     1       9.925  10.015  23.229  0.00  0.00    +0.000 A 
ATOM     21  C15 UNL     1       9.319  10.379  22.009  0.00  0.00    +0.004 A 
ATOM     22  C16 UNL     1       9.049   9.402  21.036  0.00  0.00    +0.046 A 
ATOM     23  C17 UNL     1       9.397   8.080  21.313  0.00  0.00    +0.124 A 
ATOM     24  O4  UNL     1       9.223   6.992  20.487  0.00  0.00    -0.487 OA
ENDBRANCH  15  16
ENDBRANCH  13  15
ENDBRANCH   8  11
ENDBRANCH   3   7
BRANCH   6  25
ATOM     25  C21 UNL     1      19.161   1.324  25.295  0.00  0.00    +0.252 C 
ATOM     26  O5  UNL     1      19.889   0.312  25.104  0.00  0.00    -0.270 OA
ATOM     27  N3  UNL     1      19.510   2.273  26.316  0.00  0.00    -0.280 N 
ATOM     28  H22 UNL     1      19.188   3.261  26.198  0.00  0.00    +0.155 HD
BRANCH  27  29
ATOM     29  C22 UNL     1      20.502   2.005  27.317  0.00  0.00    +0.054 A 
ATOM     30  C23 UNL     1      20.112   1.382  28.511  0.00  0.00    +0.044 A 
ATOM     31  C24 UNL     1      21.056   1.098  29.504  0.00  0.00    +0.043 A 
ATOM     32 CL1  UNL     1      20.553   0.332  31.000  0.00  0.00    -0.083 Cl
ATOM     33  C25 UNL     1      22.399   1.422  29.302  0.00  0.00    +0.021 A 
ATOM     34  C26 UNL     1      22.803   2.017  28.103  0.00  0.00    +0.023 A 
ATOM     35  C27 UNL     1      21.865   2.303  27.104  0.00  0.00    +0.062 A 
ATOM     36 CL2  UNL     1      22.440   2.948  25.572  0.00  0.00    -0.082 Cl
ENDBRANCH  27  29
ENDBRANCH   6  25
BRANCH   1  37
ATOM     37  O1  UNL     1      16.622   0.148  25.865  0.00  0.00    -0.489 OA
BRANCH  37  39
ATOM     38  C1  UNL     1      17.144  -1.842  24.577  0.00  0.00    +0.051 C 
ATOM     39  C2  UNL     1      16.496  -1.273  25.842  0.00  0.00    +0.167 C 
ATOM     40  C3  UNL     1      15.011  -1.625  25.878  0.00  0.00    +0.051 C 
ENDBRANCH  37  39
ENDBRANCH   1  37
TORSDOF 8
ENDMDL
