MODEL 1
REMARK VINA RESULT:    -6.976      0.000      0.000
REMARK INTER + INTRA:          -9.407
REMARK INTER:                  -8.607
REMARK INTRA:                  -0.800
REMARK UNBOUND:                -0.800
REMARK  Name = /home/qwerty/github/datacon2025hack/step_04_hit_selection/docking/ligands/lig_184.pdb
REMARK  5 active torsions:
REMARK  status: ('A' for Active; 'I' for Inactive)
REMARK    1  A    between atoms: C1_1  and  C2_2
REMARK    2  A    between atoms: C2_2  and  N1_3
REMARK    3  A    between atoms: C2_2  and  C14_18
REMARK    4  A    between atoms: N2_6  and  C4_7
REMARK    5  A    between atoms: N3_10  and  C7_11
REMARK                            x       y       z     vdW  Elec       q    Type
REMARK                         _______ _______ _______ _____ _____    ______ ____
ROOT
ATOM      1  N1  UNL     1       9.221  13.598  29.371  0.00  0.00    -0.293 N 
ATOM      2  C3  UNL     1      10.606  13.759  29.708  0.00  0.00    +0.300 C 
ATOM      3  O1  UNL     1      11.499  13.596  28.826  0.00  0.00    -0.253 OA
ATOM      4  N2  UNL     1      10.974  14.120  31.048  0.00  0.00    -0.295 N 
ATOM      5  H5  UNL     1       8.505  13.840  30.093  0.00  0.00    +0.151 HD
ATOM      6  H6  UNL     1      10.210  14.236  31.754  0.00  0.00    +0.151 HD
ENDROOT
BRANCH   4   7
ATOM      7  C4  UNL     1      12.370  14.376  31.429  0.00  0.00    +0.090 C 
ATOM      8  C5  UNL     1      12.461  15.343  32.587  0.00  0.00    +0.039 C 
ATOM      9  C6  UNL     1      12.440  14.456  33.812  0.00  0.00    +0.086 C 
ATOM     10  N3  UNL     1      13.041  13.153  33.446  0.00  0.00    -0.298 NA
ATOM     11  C13 UNL     1      13.032  13.104  31.962  0.00  0.00    +0.107 C 
BRANCH  10  12
ATOM     12  C7  UNL     1      14.407  12.917  34.007  0.00  0.00    +0.057 C 
ATOM     13  C8  UNL     1      14.732  13.993  35.079  0.00  0.00    +0.019 C 
ATOM     14  C9  UNL     1      16.075  13.700  35.796  0.00  0.00    +0.002 C 
ATOM     15  C10 UNL     1      17.121  13.038  34.885  0.00  0.00    +0.000 C 
ATOM     16  C11 UNL     1      16.913  13.416  33.416  0.00  0.00    +0.002 C 
ATOM     17  C12 UNL     1      15.525  12.964  32.907  0.00  0.00    +0.019 C 
ENDBRANCH  10  12
ENDBRANCH   4   7
BRANCH   1  19
ATOM     18  C1  UNL     1       7.731  14.049  27.458  0.00  0.00    +0.033 C 
ATOM     19  C2  UNL     1       8.791  13.114  28.057  0.00  0.00    +0.102 C 
BRANCH  19  20
ATOM     20  C14 UNL     1       8.248  11.708  28.171  0.00  0.00    -0.027 A 
ATOM     21  C15 UNL     1       7.719  11.233  29.409  0.00  0.00    +0.007 A 
ATOM     22  C16 UNL     1       7.230   9.919  29.529  0.00  0.00    +0.026 A 
ATOM     23  C17 UNL     1       7.262   9.110  28.395  0.00  0.00    +0.046 A 
ATOM     24  N4  UNL     1       6.867   7.833  28.296  0.00  0.00    -0.361 N 
ATOM     25  C18 UNL     1       7.111   7.468  27.015  0.00  0.00    +0.083 A 
ATOM     26  C19 UNL     1       7.660   8.524  26.296  0.00  0.00    +0.027 A 
ATOM     27  C20 UNL     1       7.750   9.563  27.195  0.00  0.00    -0.000 A 
ATOM     28  C21 UNL     1       8.253  10.855  27.042  0.00  0.00    +0.015 A 
ATOM     29  H27 UNL     1       6.470   7.235  29.054  0.00  0.00    +0.165 HD
ENDBRANCH  19  20
ENDBRANCH   1  19
TORSDOF 4
ENDMDL
MODEL 2
REMARK VINA RESULT:    -6.913      0.492      1.373
REMARK INTER + INTRA:          -9.329
REMARK INTER:                  -8.497
REMARK INTRA:                  -0.832
REMARK UNBOUND:                -0.800
REMARK  Name = /home/qwerty/github/datacon2025hack/step_04_hit_selection/docking/ligands/lig_184.pdb
REMARK  5 active torsions:
REMARK  status: ('A' for Active; 'I' for Inactive)
REMARK    1  A    between atoms: C1_1  and  C2_2
REMARK    2  A    between atoms: C2_2  and  N1_3
REMARK    3  A    between atoms: C2_2  and  C14_18
REMARK    4  A    between atoms: N2_6  and  C4_7
REMARK    5  A    between atoms: N3_10  and  C7_11
REMARK                            x       y       z     vdW  Elec       q    Type
REMARK                         _______ _______ _______ _____ _____    ______ ____
ROOT
ATOM      1  N1  UNL     1       9.174  13.598  29.435  0.00  0.00    -0.293 N 
ATOM      2  C3  UNL     1      10.562  13.768  29.755  0.00  0.00    +0.300 C 
ATOM      3  O1  UNL     1      11.442  13.666  28.850  0.00  0.00    -0.253 OA
ATOM      4  N2  UNL     1      10.948  14.071  31.105  0.00  0.00    -0.295 N 
ATOM      5  H5  UNL     1       8.467  13.791  30.180  0.00  0.00    +0.151 HD
ATOM      6  H6  UNL     1      10.196  14.137  31.828  0.00  0.00    +0.151 HD
ENDROOT
BRANCH   4   7
ATOM      7  C4  UNL     1      12.346  14.333  31.473  0.00  0.00    +0.090 C 
ATOM      8  C5  UNL     1      12.444  15.334  32.601  0.00  0.00    +0.039 C 
ATOM      9  C6  UNL     1      12.425  14.484  33.852  0.00  0.00    +0.086 C 
ATOM     10  N3  UNL     1      13.021  13.169  33.523  0.00  0.00    -0.298 NA
ATOM     11  C13 UNL     1      13.007  13.077  32.041  0.00  0.00    +0.107 C 
BRANCH  10  12
ATOM     12  C7  UNL     1      14.389  12.946  34.085  0.00  0.00    +0.057 C 
ATOM     13  C8  UNL     1      14.697  14.016  35.168  0.00  0.00    +0.019 C 
ATOM     14  C9  UNL     1      16.042  13.735  35.886  0.00  0.00    +0.002 C 
ATOM     15  C10 UNL     1      17.099  13.094  34.972  0.00  0.00    +0.000 C 
ATOM     16  C11 UNL     1      16.890  13.483  33.506  0.00  0.00    +0.002 C 
ATOM     17  C12 UNL     1      15.509  13.017  32.989  0.00  0.00    +0.019 C 
ENDBRANCH  10  12
ENDBRANCH   4   7
BRANCH   1  19
ATOM     18  C1  UNL     1       7.580  14.060  27.610  0.00  0.00    +0.033 C 
ATOM     19  C2  UNL     1       8.728  13.171  28.106  0.00  0.00    +0.102 C 
BRANCH  19  20
ATOM     20  C14 UNL     1       8.295  11.723  28.141  0.00  0.00    -0.027 A 
ATOM     21  C15 UNL     1       8.245  10.953  26.941  0.00  0.00    +0.007 A 
ATOM     22  C16 UNL     1       7.825   9.610  26.962  0.00  0.00    +0.026 A 
ATOM     23  C17 UNL     1       7.479   9.058  28.194  0.00  0.00    +0.046 A 
ATOM     24  N4  UNL     1       7.038   7.815  28.433  0.00  0.00    -0.361 N 
ATOM     25  C18 UNL     1       6.813   7.753  29.767  0.00  0.00    +0.083 A 
ATOM     26  C19 UNL     1       7.120   8.964  30.378  0.00  0.00    +0.027 A 
ATOM     27  C20 UNL     1       7.541   9.785  29.356  0.00  0.00    -0.000 A 
ATOM     28  C21 UNL     1       7.944  11.121  29.372  0.00  0.00    +0.015 A 
ATOM     29  H27 UNL     1       6.881   7.056  27.735  0.00  0.00    +0.165 HD
ENDBRANCH  19  20
ENDBRANCH   1  19
TORSDOF 4
ENDMDL
MODEL 3
REMARK VINA RESULT:    -6.679      3.699      9.923
REMARK INTER + INTRA:          -9.041
REMARK INTER:                  -8.283
REMARK INTRA:                  -0.758
REMARK UNBOUND:                -0.800
REMARK  Name = /home/qwerty/github/datacon2025hack/step_04_hit_selection/docking/ligands/lig_184.pdb
REMARK  5 active torsions:
REMARK  status: ('A' for Active; 'I' for Inactive)
REMARK    1  A    between atoms: C1_1  and  C2_2
REMARK    2  A    between atoms: C2_2  and  N1_3
REMARK    3  A    between atoms: C2_2  and  C14_18
REMARK    4  A    between atoms: N2_6  and  C4_7
REMARK    5  A    between atoms: N3_10  and  C7_11
REMARK                            x       y       z     vdW  Elec       q    Type
REMARK                         _______ _______ _______ _____ _____    ______ ____
ROOT
ATOM      1  N1  UNL     1       8.145  12.549  27.647  0.00  0.00    -0.293 N 
ATOM      2  C3  UNL     1       8.237  11.228  27.094  0.00  0.00    +0.300 C 
ATOM      3  O1  UNL     1       8.568  10.252  27.829  0.00  0.00    -0.253 OA
ATOM      4  N2  UNL     1       7.937  11.017  25.706  0.00  0.00    -0.295 N 
ATOM      5  H5  UNL     1       7.770  13.314  27.041  0.00  0.00    +0.151 HD
ATOM      6  H6  UNL     1       7.679  11.848  25.126  0.00  0.00    +0.151 HD
ENDROOT
BRANCH   4   7
ATOM      7  C4  UNL     1       7.938   9.675  25.106  0.00  0.00    +0.090 C 
ATOM      8  C5  UNL     1       7.183   9.652  23.797  0.00  0.00    +0.039 C 
ATOM      9  C6  UNL     1       8.237   9.960  22.757  0.00  0.00    +0.086 C 
ATOM     10  N3  UNL     1       9.538   9.463  23.259  0.00  0.00    -0.298 NA
ATOM     11  C13 UNL     1       9.355   9.251  24.718  0.00  0.00    +0.107 C 
BRANCH  10  12
ATOM     12  C7  UNL     1      10.042   8.233  22.573  0.00  0.00    +0.057 C 
ATOM     13  C8  UNL     1       9.404   8.115  21.162  0.00  0.00    +0.019 C 
ATOM     14  C9  UNL     1      10.013   6.940  20.354  0.00  0.00    +0.002 C 
ATOM     15  C10 UNL     1      10.413   5.742  21.230  0.00  0.00    +0.000 C 
ATOM     16  C11 UNL     1       9.560   5.657  22.498  0.00  0.00    +0.002 C 
ATOM     17  C12 UNL     1       9.719   6.922  23.372  0.00  0.00    +0.019 C 
ENDBRANCH  10  12
ENDBRANCH   4   7
BRANCH   1  19
ATOM     18  C1  UNL     1       7.565  13.821  29.679  0.00  0.00    +0.033 C 
ATOM     19  C2  UNL     1       8.553  12.848  29.021  0.00  0.00    +0.102 C 
BRANCH  19  20
ATOM     20  C14 UNL     1       9.950  13.425  29.037  0.00  0.00    -0.027 A 
ATOM     21  C15 UNL     1      10.635  13.632  30.273  0.00  0.00    +0.007 A 
ATOM     22  C16 UNL     1      11.928  14.187  30.298  0.00  0.00    +0.026 A 
ATOM     23  C17 UNL     1      12.519  14.508  29.077  0.00  0.00    +0.046 A 
ATOM     24  N4  UNL     1      13.724  15.059  28.878  0.00  0.00    -0.361 N 
ATOM     25  C18 UNL     1      13.848  15.203  27.537  0.00  0.00    +0.083 A 
ATOM     26  C19 UNL     1      12.714  14.734  26.882  0.00  0.00    +0.027 A 
ATOM     27  C20 UNL     1      11.876  14.296  27.884  0.00  0.00    -0.000 A 
ATOM     28  C21 UNL     1      10.591  13.757  27.821  0.00  0.00    +0.015 A 
ATOM     29  H27 UNL     1      14.418  15.338  29.605  0.00  0.00    +0.165 HD
ENDBRANCH  19  20
ENDBRANCH   1  19
TORSDOF 4
ENDMDL
MODEL 4
REMARK VINA RESULT:    -6.572      8.894     12.843
REMARK INTER + INTRA:          -8.909
REMARK INTER:                  -8.418
REMARK INTRA:                  -0.491
REMARK UNBOUND:                -0.800
REMARK  Name = /home/qwerty/github/datacon2025hack/step_04_hit_selection/docking/ligands/lig_184.pdb
REMARK  5 active torsions:
REMARK  status: ('A' for Active; 'I' for Inactive)
REMARK    1  A    between atoms: C1_1  and  C2_2
REMARK    2  A    between atoms: C2_2  and  N1_3
REMARK    3  A    between atoms: C2_2  and  C14_18
REMARK    4  A    between atoms: N2_6  and  C4_7
REMARK    5  A    between atoms: N3_10  and  C7_11
REMARK                            x       y       z     vdW  Elec       q    Type
REMARK                         _______ _______ _______ _____ _____    ______ ____
ROOT
ATOM      1  N1  UNL     1      11.616   7.957  20.707  0.00  0.00    -0.293 N 
ATOM      2  C3  UNL     1      11.517   6.535  20.550  0.00  0.00    +0.300 C 
ATOM      3  O1  UNL     1      10.600   6.035  19.833  0.00  0.00    -0.253 OA
ATOM      4  N2  UNL     1      12.472   5.681  21.198  0.00  0.00    -0.295 N 
ATOM      5  H5  UNL     1      12.442   8.343  21.218  0.00  0.00    +0.151 HD
ATOM      6  H6  UNL     1      13.209   6.128  21.791  0.00  0.00    +0.151 HD
ENDROOT
BRANCH   4   7
ATOM      7  C4  UNL     1      12.467   4.224  21.008  0.00  0.00    +0.090 C 
ATOM      8  C5  UNL     1      12.987   3.841  19.642  0.00  0.00    +0.039 C 
ATOM      9  C6  UNL     1      14.475   3.663  19.850  0.00  0.00    +0.086 C 
ATOM     10  N3  UNL     1      14.695   3.228  21.248  0.00  0.00    -0.298 NA
ATOM     11  C13 UNL     1      13.438   3.543  21.973  0.00  0.00    +0.107 C 
BRANCH  10  12
ATOM     12  C7  UNL     1      15.085   1.792  21.400  0.00  0.00    +0.057 C 
ATOM     13  C8  UNL     1      16.387   1.683  22.240  0.00  0.00    +0.019 C 
ATOM     14  C9  UNL     1      16.745   0.207  22.553  0.00  0.00    +0.002 C 
ATOM     15  C10 UNL     1      16.351  -0.767  21.431  0.00  0.00    +0.000 C 
ATOM     16  C11 UNL     1      16.342  -0.081  20.062  0.00  0.00    +0.002 C 
ATOM     17  C12 UNL     1      15.327   1.085  20.020  0.00  0.00    +0.019 C 
ENDBRANCH  10  12
ENDBRANCH   4   7
BRANCH   1  19
ATOM     18  C1  UNL     1      11.269  10.092  19.520  0.00  0.00    +0.033 C 
ATOM     19  C2  UNL     1      10.604   8.871  20.171  0.00  0.00    +0.102 C 
BRANCH  19  20
ATOM     20  C14 UNL     1       9.662   9.309  21.270  0.00  0.00    -0.027 A 
ATOM     21  C15 UNL     1       8.753  10.389  21.058  0.00  0.00    +0.007 A 
ATOM     22  C16 UNL     1       7.887  10.815  22.082  0.00  0.00    +0.026 A 
ATOM     23  C17 UNL     1       7.936  10.135  23.297  0.00  0.00    +0.046 A 
ATOM     24  N4  UNL     1       7.217  10.388  24.399  0.00  0.00    -0.361 N 
ATOM     25  C18 UNL     1       7.626   9.486  25.323  0.00  0.00    +0.083 A 
ATOM     26  C19 UNL     1       8.607   8.651  24.798  0.00  0.00    +0.027 A 
ATOM     27  C20 UNL     1       8.792   9.083  23.504  0.00  0.00    -0.000 A 
ATOM     28  C21 UNL     1       9.671   8.640  22.516  0.00  0.00    +0.015 A 
ATOM     29  H27 UNL     1       6.503  11.138  24.529  0.00  0.00    +0.165 HD
ENDBRANCH  19  20
ENDBRANCH   1  19
TORSDOF 4
ENDMDL
MODEL 5
REMARK VINA RESULT:    -6.538     13.004     16.881
REMARK INTER + INTRA:          -8.866
REMARK INTER:                  -8.275
REMARK INTRA:                  -0.591
REMARK UNBOUND:                -0.800
REMARK  Name = /home/qwerty/github/datacon2025hack/step_04_hit_selection/docking/ligands/lig_184.pdb
REMARK  5 active torsions:
REMARK  status: ('A' for Active; 'I' for Inactive)
REMARK    1  A    between atoms: C1_1  and  C2_2
REMARK    2  A    between atoms: C2_2  and  N1_3
REMARK    3  A    between atoms: C2_2  and  C14_18
REMARK    4  A    between atoms: N2_6  and  C4_7
REMARK    5  A    between atoms: N3_10  and  C7_11
REMARK                            x       y       z     vdW  Elec       q    Type
REMARK                         _______ _______ _______ _____ _____    ______ ____
ROOT
ATOM      1  N1  UNL     1      22.033   0.674  27.874  0.00  0.00    -0.293 N 
ATOM      2  C3  UNL     1      20.997   1.329  27.128  0.00  0.00    +0.300 C 
ATOM      3  O1  UNL     1      20.779   2.565  27.292  0.00  0.00    -0.253 OA
ATOM      4  N2  UNL     1      20.220   0.578  26.182  0.00  0.00    -0.295 N 
ATOM      5  H5  UNL     1      22.257  -0.320  27.642  0.00  0.00    +0.151 HD
ATOM      6  H6  UNL     1      20.421  -0.443  26.081  0.00  0.00    +0.151 HD
ENDROOT
BRANCH   4   7
ATOM      7  C4  UNL     1      19.202   1.213  25.334  0.00  0.00    +0.090 C 
ATOM      8  C5  UNL     1      19.045   0.488  24.018  0.00  0.00    +0.039 C 
ATOM      9  C6  UNL     1      17.970  -0.541  24.289  0.00  0.00    +0.086 C 
ATOM     10  N3  UNL     1      17.073  -0.003  25.337  0.00  0.00    -0.298 NA
ATOM     11  C13 UNL     1      17.817   1.112  25.975  0.00  0.00    +0.107 C 
BRANCH  10  12
ATOM     12  C7  UNL     1      15.728   0.429  24.844  0.00  0.00    +0.057 C 
ATOM     13  C8  UNL     1      14.613  -0.334  25.609  0.00  0.00    +0.019 C 
ATOM     14  C9  UNL     1      13.202   0.191  25.241  0.00  0.00    +0.002 C 
ATOM     15  C10 UNL     1      13.089   0.661  23.781  0.00  0.00    +0.000 C 
ATOM     16  C11 UNL     1      14.075  -0.074  22.871  0.00  0.00    +0.002 C 
ATOM     17  C12 UNL     1      15.538   0.171  23.308  0.00  0.00    +0.019 C 
ENDBRANCH  10  12
ENDBRANCH   4   7
BRANCH   1  19
ATOM     18  C1  UNL     1      24.145   0.694  29.148  0.00  0.00    +0.033 C 
ATOM     19  C2  UNL     1      22.776   1.356  28.937  0.00  0.00    +0.102 C 
BRANCH  19  20
ATOM     20  C14 UNL     1      21.981   1.342  30.222  0.00  0.00    -0.027 A 
ATOM     21  C15 UNL     1      21.005   0.328  30.459  0.00  0.00    +0.007 A 
ATOM     22  C16 UNL     1      20.247   0.319  31.645  0.00  0.00    +0.026 A 
ATOM     23  C17 UNL     1      20.497   1.321  32.581  0.00  0.00    +0.046 A 
ATOM     24  N4  UNL     1      19.879   1.506  33.757  0.00  0.00    -0.361 N 
ATOM     25  C18 UNL     1      20.442   2.612  34.300  0.00  0.00    +0.083 A 
ATOM     26  C19 UNL     1      21.427   3.127  33.463  0.00  0.00    +0.027 A 
ATOM     27  C20 UNL     1      21.445   2.289  32.370  0.00  0.00    -0.000 A 
ATOM     28  C21 UNL     1      22.208   2.335  31.204  0.00  0.00    +0.015 A 
ATOM     29  H27 UNL     1      19.111   0.930  34.163  0.00  0.00    +0.165 HD
ENDBRANCH  19  20
ENDBRANCH   1  19
TORSDOF 4
ENDMDL
MODEL 6
REMARK VINA RESULT:    -6.503      5.928      8.937
REMARK INTER + INTRA:          -8.823
REMARK INTER:                  -8.300
REMARK INTRA:                  -0.523
REMARK UNBOUND:                -0.800
REMARK  Name = /home/qwerty/github/datacon2025hack/step_04_hit_selection/docking/ligands/lig_184.pdb
REMARK  5 active torsions:
REMARK  status: ('A' for Active; 'I' for Inactive)
REMARK    1  A    between atoms: C1_1  and  C2_2
REMARK    2  A    between atoms: C2_2  and  N1_3
REMARK    3  A    between atoms: C2_2  and  C14_18
REMARK    4  A    between atoms: N2_6  and  C4_7
REMARK    5  A    between atoms: N3_10  and  C7_11
REMARK                            x       y       z     vdW  Elec       q    Type
REMARK                         _______ _______ _______ _____ _____    ______ ____
ROOT
ATOM      1  N1  UNL     1      13.553  10.604  36.612  0.00  0.00    -0.293 N 
ATOM      2  C3  UNL     1      14.958  10.748  36.862  0.00  0.00    +0.300 C 
ATOM      3  O1  UNL     1      15.376  11.648  37.649  0.00  0.00    -0.253 OA
ATOM      4  N2  UNL     1      15.888   9.857  36.227  0.00  0.00    -0.295 N 
ATOM      5  H5  UNL     1      13.234   9.789  36.041  0.00  0.00    +0.151 HD
ATOM      6  H6  UNL     1      15.509   9.133  35.575  0.00  0.00    +0.151 HD
ENDROOT
BRANCH   4   7
ATOM      7  C4  UNL     1      17.330   9.908  36.509  0.00  0.00    +0.090 C 
ATOM      8  C5  UNL     1      17.651   9.318  37.863  0.00  0.00    +0.039 C 
ATOM      9  C6  UNL     1      17.905   7.855  37.578  0.00  0.00    +0.086 C 
ATOM     10  N3  UNL     1      18.434   7.740  36.199  0.00  0.00    -0.298 NA
ATOM     11  C13 UNL     1      18.109   9.027  35.532  0.00  0.00    +0.107 C 
BRANCH  10  12
ATOM     12  C7  UNL     1      19.892   7.418  36.115  0.00  0.00    +0.057 C 
ATOM     13  C8  UNL     1      20.520   7.436  37.535  0.00  0.00    +0.019 C 
ATOM     14  C9  UNL     1      21.995   6.958  37.516  0.00  0.00    +0.002 C 
ATOM     15  C10 UNL     1      22.743   7.343  36.229  0.00  0.00    +0.000 C 
ATOM     16  C11 UNL     1      22.168   8.613  35.598  0.00  0.00    +0.002 C 
ATOM     17  C12 UNL     1      20.681   8.430  35.213  0.00  0.00    +0.019 C 
ENDBRANCH  10  12
ENDBRANCH   4   7
BRANCH   1  19
ATOM     18  C1  UNL     1      11.346  10.813  37.693  0.00  0.00    +0.033 C 
ATOM     19  C2  UNL     1      12.568  11.555  37.133  0.00  0.00    +0.102 C 
BRANCH  19  20
ATOM     20  C14 UNL     1      12.147  12.518  36.046  0.00  0.00    -0.027 A 
ATOM     21  C15 UNL     1      10.895  13.199  36.128  0.00  0.00    +0.007 A 
ATOM     22  C16 UNL     1      10.486  14.082  35.111  0.00  0.00    +0.026 A 
ATOM     23  C17 UNL     1      11.353  14.280  34.038  0.00  0.00    +0.046 A 
ATOM     24  N4  UNL     1      11.152  15.057  32.964  0.00  0.00    -0.361 N 
ATOM     25  C18 UNL     1      12.254  14.910  32.190  0.00  0.00    +0.083 A 
ATOM     26  C19 UNL     1      13.161  14.037  32.782  0.00  0.00    +0.027 A 
ATOM     27  C20 UNL     1      12.566  13.645  33.960  0.00  0.00    -0.000 A 
ATOM     28  C21 UNL     1      13.000  12.756  34.943  0.00  0.00    +0.015 A 
ATOM     29  H27 UNL     1      10.313  15.641  32.756  0.00  0.00    +0.165 HD
ENDBRANCH  19  20
ENDBRANCH   1  19
TORSDOF 4
ENDMDL
MODEL 7
REMARK VINA RESULT:    -6.477     10.806     14.793
REMARK INTER + INTRA:          -8.791
REMARK INTER:                  -7.998
REMARK INTRA:                  -0.792
REMARK UNBOUND:                -0.800
REMARK  Name = /home/qwerty/github/datacon2025hack/step_04_hit_selection/docking/ligands/lig_184.pdb
REMARK  5 active torsions:
REMARK  status: ('A' for Active; 'I' for Inactive)
REMARK    1  A    between atoms: C1_1  and  C2_2
REMARK    2  A    between atoms: C2_2  and  N1_3
REMARK    3  A    between atoms: C2_2  and  C14_18
REMARK    4  A    between atoms: N2_6  and  C4_7
REMARK    5  A    between atoms: N3_10  and  C7_11
REMARK                            x       y       z     vdW  Elec       q    Type
REMARK                         _______ _______ _______ _____ _____    ______ ____
ROOT
ATOM      1  N1  UNL     1      21.273   6.504  35.611  0.00  0.00    -0.293 N 
ATOM      2  C3  UNL     1      21.909   6.155  34.374  0.00  0.00    +0.300 C 
ATOM      3  O1  UNL     1      23.035   6.651  34.074  0.00  0.00    -0.253 OA
ATOM      4  N2  UNL     1      21.270   5.227  33.484  0.00  0.00    -0.295 N 
ATOM      5  H5  UNL     1      20.397   5.999  35.877  0.00  0.00    +0.151 HD
ATOM      6  H6  UNL     1      20.336   4.846  33.759  0.00  0.00    +0.151 HD
ENDROOT
BRANCH   4   7
ATOM      7  C4  UNL     1      21.912   4.773  32.242  0.00  0.00    +0.090 C 
ATOM      8  C5  UNL     1      22.611   3.447  32.432  0.00  0.00    +0.039 C 
ATOM      9  C6  UNL     1      21.555   2.420  32.091  0.00  0.00    +0.086 C 
ATOM     10  N3  UNL     1      20.633   3.020  31.100  0.00  0.00    -0.298 NA
ATOM     11  C13 UNL     1      20.869   4.485  31.162  0.00  0.00    +0.107 C 
BRANCH  10  12
ATOM     12  C7  UNL     1      20.779   2.487  29.710  0.00  0.00    +0.057 C 
ATOM     13  C8  UNL     1      21.663   1.210  29.724  0.00  0.00    +0.019 C 
ATOM     14  C9  UNL     1      21.717   0.535  28.329  0.00  0.00    +0.002 C 
ATOM     15  C10 UNL     1      21.656   1.537  27.164  0.00  0.00    +0.000 C 
ATOM     16  C11 UNL     1      22.224   2.902  27.561  0.00  0.00    +0.002 C 
ATOM     17  C12 UNL     1      21.430   3.527  28.732  0.00  0.00    +0.019 C 
ENDBRANCH  10  12
ENDBRANCH   4   7
BRANCH   1  19
ATOM     18  C1  UNL     1      22.100   6.947  37.893  0.00  0.00    +0.033 C 
ATOM     19  C2  UNL     1      21.815   7.533  36.502  0.00  0.00    +0.102 C 
BRANCH  19  20
ATOM     20  C14 UNL     1      20.852   8.693  36.607  0.00  0.00    -0.027 A 
ATOM     21  C15 UNL     1      19.736   8.630  37.495  0.00  0.00    +0.007 A 
ATOM     22  C16 UNL     1      18.824   9.698  37.584  0.00  0.00    +0.026 A 
ATOM     23  C17 UNL     1      19.061  10.820  36.792  0.00  0.00    +0.046 A 
ATOM     24  N4  UNL     1      18.312  11.930  36.711  0.00  0.00    -0.361 N 
ATOM     25  C18 UNL     1      18.925  12.723  35.799  0.00  0.00    +0.083 A 
ATOM     26  C19 UNL     1      20.073  12.113  35.305  0.00  0.00    +0.027 A 
ATOM     27  C20 UNL     1      20.140  10.898  35.950  0.00  0.00    -0.000 A 
ATOM     28  C21 UNL     1      21.059   9.855  35.828  0.00  0.00    +0.015 A 
ATOM     29  H27 UNL     1      17.429  12.135  37.227  0.00  0.00    +0.165 HD
ENDBRANCH  19  20
ENDBRANCH   1  19
TORSDOF 4
ENDMDL
MODEL 8
REMARK VINA RESULT:    -6.446     12.125     14.243
REMARK INTER + INTRA:          -8.753
REMARK INTER:                  -8.094
REMARK INTRA:                  -0.659
REMARK UNBOUND:                -0.800
REMARK  Name = /home/qwerty/github/datacon2025hack/step_04_hit_selection/docking/ligands/lig_184.pdb
REMARK  5 active torsions:
REMARK  status: ('A' for Active; 'I' for Inactive)
REMARK    1  A    between atoms: C1_1  and  C2_2
REMARK    2  A    between atoms: C2_2  and  N1_3
REMARK    3  A    between atoms: C2_2  and  C14_18
REMARK    4  A    between atoms: N2_6  and  C4_7
REMARK    5  A    between atoms: N3_10  and  C7_11
REMARK                            x       y       z     vdW  Elec       q    Type
REMARK                         _______ _______ _______ _____ _____    ______ ____
ROOT
ATOM      1  N1  UNL     1      22.328   1.442  30.146  0.00  0.00    -0.293 N 
ATOM      2  C3  UNL     1      21.497   2.278  30.963  0.00  0.00    +0.300 C 
ATOM      3  O1  UNL     1      20.236   2.210  30.867  0.00  0.00    -0.253 OA
ATOM      4  N2  UNL     1      22.101   3.183  31.900  0.00  0.00    -0.295 N 
ATOM      5  H5  UNL     1      23.359   1.447  30.322  0.00  0.00    +0.151 HD
ATOM      6  H6  UNL     1      23.145   3.221  31.943  0.00  0.00    +0.151 HD
ENDROOT
BRANCH   4   7
ATOM      7  C4  UNL     1      21.297   4.005  32.815  0.00  0.00    +0.090 C 
ATOM      8  C5  UNL     1      22.007   4.224  34.131  0.00  0.00    +0.039 C 
ATOM      9  C6  UNL     1      22.799   5.494  33.917  0.00  0.00    +0.086 C 
ATOM     10  N3  UNL     1      22.073   6.328  32.932  0.00  0.00    -0.298 NA
ATOM     11  C13 UNL     1      21.111   5.417  32.261  0.00  0.00    +0.107 C 
BRANCH  10  12
ATOM     12  C7  UNL     1      21.396   7.530  33.511  0.00  0.00    +0.057 C 
ATOM     13  C8  UNL     1      22.045   8.824  32.950  0.00  0.00    +0.019 C 
ATOM     14  C9  UNL     1      21.277  10.093  33.403  0.00  0.00    +0.002 C 
ATOM     15  C10 UNL     1      20.666   9.966  34.808  0.00  0.00    +0.000 C 
ATOM     16  C11 UNL     1      21.460   8.995  35.686  0.00  0.00    +0.002 C 
ATOM     17  C12 UNL     1      21.484   7.573  35.077  0.00  0.00    +0.019 C 
ENDBRANCH  10  12
ENDBRANCH   4   7
BRANCH   1  19
ATOM     18  C1  UNL     1      22.611  -0.692  28.940  0.00  0.00    +0.033 C 
ATOM     19  C2  UNL     1      21.777   0.588  29.091  0.00  0.00    +0.102 C 
BRANCH  19  20
ATOM     20  C14 UNL     1      21.731   1.342  27.781  0.00  0.00    -0.027 A 
ATOM     21  C15 UNL     1      22.677   2.376  27.506  0.00  0.00    +0.007 A 
ATOM     22  C16 UNL     1      22.628   3.096  26.298  0.00  0.00    +0.026 A 
ATOM     23  C17 UNL     1      21.640   2.751  25.378  0.00  0.00    +0.046 A 
ATOM     24  N4  UNL     1      21.407   3.318  24.185  0.00  0.00    -0.361 N 
ATOM     25  C18 UNL     1      20.338   2.666  23.669  0.00  0.00    +0.083 A 
ATOM     26  C19 UNL     1      19.895   1.676  24.539  0.00  0.00    +0.027 A 
ATOM     27  C20 UNL     1      20.738   1.748  25.625  0.00  0.00    -0.000 A 
ATOM     28  C21 UNL     1      20.749   1.020  26.815  0.00  0.00    +0.015 A 
ATOM     29  H27 UNL     1      21.928   4.110  23.751  0.00  0.00    +0.165 HD
ENDBRANCH  19  20
ENDBRANCH   1  19
TORSDOF 4
ENDMDL
MODEL 9
REMARK VINA RESULT:    -6.273     14.286     16.952
REMARK INTER + INTRA:          -8.539
REMARK INTER:                  -7.857
REMARK INTRA:                  -0.683
REMARK UNBOUND:                -0.800
REMARK  Name = /home/qwerty/github/datacon2025hack/step_04_hit_selection/docking/ligands/lig_184.pdb
REMARK  5 active torsions:
REMARK  status: ('A' for Active; 'I' for Inactive)
REMARK    1  A    between atoms: C1_1  and  C2_2
REMARK    2  A    between atoms: C2_2  and  N1_3
REMARK    3  A    between atoms: C2_2  and  C14_18
REMARK    4  A    between atoms: N2_6  and  C4_7
REMARK    5  A    between atoms: N3_10  and  C7_11
REMARK                            x       y       z     vdW  Elec       q    Type
REMARK                         _______ _______ _______ _____ _____    ______ ____
ROOT
ATOM      1  N1  UNL     1      24.039  12.666  19.978  0.00  0.00    -0.293 N 
ATOM      2  C3  UNL     1      23.203  11.503  19.886  0.00  0.00    +0.300 C 
ATOM      3  O1  UNL     1      21.945  11.617  19.963  0.00  0.00    -0.253 OA
ATOM      4  N2  UNL     1      23.801  10.212  19.692  0.00  0.00    -0.295 N 
ATOM      5  H5  UNL     1      25.065  12.553  19.807  0.00  0.00    +0.151 HD
ATOM      6  H6  UNL     1      24.844  10.155  19.645  0.00  0.00    +0.151 HD
ENDROOT
BRANCH   4   7
ATOM      7  C4  UNL     1      22.990   9.000  19.513  0.00  0.00    +0.090 C 
ATOM      8  C5  UNL     1      23.824   7.845  19.009  0.00  0.00    +0.039 C 
ATOM      9  C6  UNL     1      24.307   7.161  20.268  0.00  0.00    +0.086 C 
ATOM     10  N3  UNL     1      23.296   7.378  21.327  0.00  0.00    -0.298 NA
ATOM     11  C13 UNL     1      22.448   8.502  20.853  0.00  0.00    +0.107 C 
BRANCH  10  12
ATOM     12  C7  UNL     1      22.484   6.170  21.671  0.00  0.00    +0.057 C 
ATOM     13  C8  UNL     1      21.042   6.326  21.116  0.00  0.00    +0.019 C 
ATOM     14  C9  UNL     1      20.208   5.034  21.314  0.00  0.00    +0.002 C 
ATOM     15  C10 UNL     1      20.567   4.269  22.599  0.00  0.00    +0.000 C 
ATOM     16  C11 UNL     1      21.107   5.204  23.683  0.00  0.00    +0.002 C 
ATOM     17  C12 UNL     1      22.393   5.926  23.218  0.00  0.00    +0.019 C 
ENDBRANCH  10  12
ENDBRANCH   4   7
BRANCH   1  19
ATOM     18  C1  UNL     1      24.162  15.066  19.423  0.00  0.00    +0.033 C 
ATOM     19  C2  UNL     1      23.499  13.990  20.294  0.00  0.00    +0.102 C 
BRANCH  19  20
ATOM     20  C14 UNL     1      23.704  14.300  21.760  0.00  0.00    -0.027 A 
ATOM     21  C15 UNL     1      24.654  15.286  22.166  0.00  0.00    +0.007 A 
ATOM     22  C16 UNL     1      24.864  15.566  23.529  0.00  0.00    +0.026 A 
ATOM     23  C17 UNL     1      24.102  14.865  24.460  0.00  0.00    +0.046 A 
ATOM     24  N4  UNL     1      24.157  14.964  25.796  0.00  0.00    -0.361 N 
ATOM     25  C18 UNL     1      23.252  14.075  26.271  0.00  0.00    +0.083 A 
ATOM     26  C19 UNL     1      22.615  13.413  25.227  0.00  0.00    +0.027 A 
ATOM     27  C20 UNL     1      23.173  13.930  24.079  0.00  0.00    -0.000 A 
ATOM     28  C21 UNL     1      22.945  13.618  22.739  0.00  0.00    +0.015 A 
ATOM     29  H27 UNL     1      24.781  15.584  26.357  0.00  0.00    +0.165 HD
ENDBRANCH  19  20
ENDBRANCH   1  19
TORSDOF 4
ENDMDL
