REMARK  Name = /home/qwerty/github/datacon2025hack/step_04_hit_selection/docking/ligands/lig_405.pdb
REMARK  5 active torsions:
REMARK  status: ('A' for Active; 'I' for Inactive)
REMARK    1  A    between atoms: C1_1  and  N1_2
REMARK    2  A    between atoms: C4_5  and  C5_6
REMARK    3  A    between atoms: N2_8  and  C6_9
REMARK    4  A    between atoms: C6_9  and  C7_10
REMARK    5  A    between atoms: C12_16  and  C13_18
REMARK                            x       y       z     vdW  Elec       q    Type
REMARK                         _______ _______ _______ _____ _____    ______ ____
ROOT
ATOM      1  C7  UNL     1      -0.684   0.029  -0.201  0.00  0.00    +0.093 C 
ATOM      2  C8  UNL     1      -0.681  -1.497  -0.471  0.00  0.00    +0.024 C 
ATOM      3  C9  UNL     1      -2.056  -2.105  -0.188  0.00  0.00    +0.003 C 
ATOM      4  C10 UNL     1      -3.119  -1.521  -1.135  0.00  0.00    +0.019 C 
ATOM      5  C11 UNL     1      -2.904  -0.022  -1.431  0.00  0.00    +0.108 C 
ATOM      6  N3  UNL     1      -2.026   0.599  -0.429  0.00  0.00    -0.293 N 
ATOM      7  C12 UNL     1      -2.431   1.794   0.270  0.00  0.00    +0.248 C 
ATOM      8  O2  UNL     1      -1.608   2.736   0.424  0.00  0.00    -0.270 OA
ENDROOT
BRANCH   7   9
ATOM      9  C13 UNL     1      -3.783   1.935   0.841  0.00  0.00    +0.054 A 
ATOM     10  C14 UNL     1      -4.651   0.917   1.191  0.00  0.00    +0.032 A 
ATOM     11  C15 UNL     1      -5.762   1.530   1.735  0.00  0.00    +0.083 A 
ATOM     12  N4  UNL     1      -5.600   2.865   1.738  0.00  0.00    -0.366 N 
ATOM     13  C16 UNL     1      -4.393   3.121   1.202  0.00  0.00    +0.095 A 
ATOM     14  H23 UNL     1      -6.278   3.571   2.100  0.00  0.00    +0.165 HD
ENDBRANCH   7   9
BRANCH   1  15
ATOM     15  C6  UNL     1       0.364   0.747  -1.072  0.00  0.00    +0.126 C 
BRANCH  15  18
ATOM     16  C5  UNL     1       2.460  -0.591  -1.642  0.00  0.00    +0.225 C 
ATOM     17  O1  UNL     1       2.002  -0.893  -2.778  0.00  0.00    -0.275 OA
ATOM     18  N2  UNL     1       1.709   0.262  -0.761  0.00  0.00    -0.313 N 
ATOM     19  H9  UNL     1       2.100   0.487   0.181  0.00  0.00    +0.149 HD
BRANCH  16  24
ATOM     20  C1  UNL     1       5.851   0.831   1.302  0.00  0.00    +0.132 C 
ATOM     21  N1  UNL     1       5.042  -0.145   0.583  0.00  0.00    -0.304 N 
ATOM     22  C2  UNL     1       4.378  -1.283   1.194  0.00  0.00    +0.108 C 
ATOM     23  C3  UNL     1       3.680  -2.034   0.042  0.00  0.00    +0.041 C 
ATOM     24  C4  UNL     1       3.794  -1.148  -1.219  0.00  0.00    +0.162 C 
ATOM     25  C17 UNL     1       4.707  -0.066  -0.787  0.00  0.00    +0.227 C 
ATOM     26  O3  UNL     1       5.145   0.835  -1.552  0.00  0.00    -0.275 OA
ENDBRANCH  16  24
ENDBRANCH  15  18
ENDBRANCH   1  15
TORSDOF 4
