REMARK  Name = /home/qwerty/github/datacon2025hack/step_04_hit_selection/docking/ligands/lig_463.pdb
REMARK  4 active torsions:
REMARK  status: ('A' for Active; 'I' for Inactive)
REMARK    1  A    between atoms: C1_1  and  C2_2
REMARK    2  A    between atoms: C10_10  and  C11_11
REMARK    3  A    between atoms: N1_13  and  C12_14
REMARK    4  A    between atoms: N3_21  and  C17_22
REMARK                            x       y       z     vdW  Elec       q    Type
REMARK                         _______ _______ _______ _____ _____    ______ ____
ROOT
ATOM      1  C12 UNL     1      -0.673   3.496  -0.258  0.00  0.00    +0.036 A 
ATOM      2  C13 UNL     1      -1.429   4.686  -0.434  0.00  0.00    +0.025 A 
ATOM      3  C14 UNL     1      -2.793   4.630  -0.781  0.00  0.00    +0.029 A 
ATOM      4  C15 UNL     1      -3.373   3.369  -0.917  0.00  0.00    +0.067 A 
ATOM      5  N2  UNL     1      -4.640   3.070  -1.258  0.00  0.00    -0.306 N 
ATOM      6  C16 UNL     1      -4.664   1.713  -1.250  0.00  0.00    +0.332 A 
ATOM      7  O2  UNL     1      -5.700   1.044  -1.512  0.00  0.00    -0.246 OA
ATOM      8  N3  UNL     1      -3.471   1.154  -0.912  0.00  0.00    -0.261 N 
ATOM      9  C25 UNL     1      -2.664   2.216  -0.712  0.00  0.00    +0.077 A 
ATOM     10  C26 UNL     1      -1.307   2.238  -0.396  0.00  0.00    +0.051 A 
ATOM     11  H15 UNL     1      -5.423   3.728  -1.479  0.00  0.00    +0.170 HD
ENDROOT
BRANCH   8  12
ATOM     12  C17 UNL     1      -3.147  -0.243  -0.798  0.00  0.00    +0.052 A 
ATOM     13  C18 UNL     1      -3.504  -1.143  -1.834  0.00  0.00    +0.028 A 
ATOM     14  C19 UNL     1      -3.138  -2.502  -1.762  0.00  0.00    +0.028 A 
ATOM     15  C20 UNL     1      -2.425  -2.928  -0.642  0.00  0.00    +0.047 A 
ATOM     16  N4  UNL     1      -1.974  -4.169  -0.379  0.00  0.00    -0.361 N 
ATOM     17  C21 UNL     1      -1.345  -4.091   0.817  0.00  0.00    +0.083 A 
ATOM     18  C22 UNL     1      -1.397  -2.792   1.316  0.00  0.00    +0.027 A 
ATOM     19  C23 UNL     1      -2.091  -2.068   0.368  0.00  0.00    +0.002 A 
ATOM     20  C24 UNL     1      -2.441  -0.721   0.332  0.00  0.00    +0.036 A 
ATOM     21  H18 UNL     1      -2.086  -5.023  -0.972  0.00  0.00    +0.165 HD
ENDBRANCH   8  12
BRANCH   1  24
ATOM     22  C11 UNL     1       1.655   2.525  -0.106  0.00  0.00    +0.258 C 
ATOM     23  O1  UNL     1       1.550   1.789  -1.127  0.00  0.00    -0.271 OA
ATOM     24  N1  UNL     1       0.712   3.583   0.117  0.00  0.00    -0.282 N 
ATOM     25  H12 UNL     1       1.047   4.449   0.594  0.00  0.00    +0.155 HD
BRANCH  22  35
ATOM     26  C1  UNL     1       3.789  -4.230   0.285  0.00  0.00    +0.044 C 
ATOM     27  C2  UNL     1       3.778  -2.730   0.286  0.00  0.00    -0.050 A 
ATOM     28  C3  UNL     1       4.754  -2.012  -0.426  0.00  0.00    +0.007 A 
ATOM     29  C4  UNL     1       4.747  -0.612  -0.419  0.00  0.00    +0.046 A 
ATOM     30  C5  UNL     1       3.780   0.083   0.313  0.00  0.00    +0.125 A 
ATOM     31  C6  UNL     1       2.817  -0.627   1.061  0.00  0.00    -0.005 A 
ATOM     32  C7  UNL     1       2.814  -2.031   1.032  0.00  0.00    +0.010 A 
ATOM     33  C8  UNL     1       1.757   0.120   1.833  0.00  0.00    +0.043 C 
ATOM     34  C9  UNL     1       2.193   1.563   2.149  0.00  0.00    +0.059 C 
ATOM     35  C10 UNL     1       2.747   2.269   0.897  0.00  0.00    +0.259 C 
ATOM     36  O3  UNL     1       3.793   1.487   0.310  0.00  0.00    -0.479 OA
ENDBRANCH  22  35
ENDBRANCH   1  24
TORSDOF 3
