REMARK  Name = /home/qwerty/github/datacon2025hack/step_04_hit_selection/docking/ligands/lig_507.pdb
REMARK  5 active torsions:
REMARK  status: ('A' for Active; 'I' for Inactive)
REMARK    1  A    between atoms: N1_3  and  C2_4
REMARK    2  A    between atoms: C6_8  and  C7_9
REMARK    3  A    between atoms: N3_15  and  C11_16
REMARK    4  A    between atoms: C16_21  and  S1_22
REMARK    5  A    between atoms: S1_22  and  C17_23
REMARK                            x       y       z     vdW  Elec       q    Type
REMARK                         _______ _______ _______ _____ _____    ______ ____
ROOT
ATOM      1  C11 UNL     1      -2.072  -1.917   0.391  0.00  0.00    +0.050 A 
ATOM      2  C12 UNL     1      -1.953  -2.723  -0.779  0.00  0.00    +0.048 A 
ATOM      3  C13 UNL     1      -3.120  -2.920  -1.489  0.00  0.00    +0.048 A 
ATOM      4  C14 UNL     1      -4.330  -2.406  -1.129  0.00  0.00    +0.059 A 
ATOM      5  C15 UNL     1      -4.517  -1.623  -0.008  0.00  0.00    +0.031 A 
ATOM      6  C16 UNL     1      -3.354  -1.372   0.769  0.00  0.00    +0.035 A 
ATOM      7  C23 UNL     1      -4.956  -3.032  -2.277  0.00  0.00    +0.250 C 
ATOM      8  O3  UNL     1      -6.121  -3.088  -2.753  0.00  0.00    -0.270 OA
ATOM      9  N4  UNL     1      -3.684  -3.564  -2.633  0.00  0.00    -0.281 N 
ATOM     10  H15 UNL     1      -3.314  -4.160  -3.406  0.00  0.00    +0.155 HD
ENDROOT
BRANCH   1  14
ATOM     11  O1  UNL     1       0.566  -1.186  -0.492  0.00  0.00    -0.252 OA
ATOM     12  C1  UNL     1       0.391  -1.439   0.731  0.00  0.00    +0.308 C 
ATOM     13  N1  UNL     1       1.502  -1.444   1.641  0.00  0.00    -0.269 N 
ATOM     14  N3  UNL     1      -0.927  -1.705   1.232  0.00  0.00    -0.268 N 
ATOM     15  H1  UNL     1       1.348  -1.871   2.584  0.00  0.00    +0.156 HD
ATOM     16  H8  UNL     1      -1.072  -1.654   2.267  0.00  0.00    +0.156 HD
BRANCH  13  17
ATOM     17  C2  UNL     1       2.837  -1.038   1.294  0.00  0.00    +0.035 A 
ATOM     18  C3  UNL     1       3.927  -1.712   1.868  0.00  0.00    +0.023 A 
ATOM     19  C4  UNL     1       5.235  -1.323   1.569  0.00  0.00    +0.003 A 
ATOM     20  C5  UNL     1       5.469  -0.246   0.704  0.00  0.00    +0.013 A 
ATOM     21  C6  UNL     1       4.391   0.459   0.139  0.00  0.00    +0.039 A 
ATOM     22  C10 UNL     1       3.074   0.060   0.442  0.00  0.00    +0.036 A 
BRANCH  21  23
ATOM     23  C7  UNL     1       4.634   1.614  -0.755  0.00  0.00    +0.227 A 
ATOM     24  N2  UNL     1       5.866   2.065  -1.086  0.00  0.00    -0.217 NA
ATOM     25  C8  UNL     1       5.613   3.109  -1.902  0.00  0.00    +0.152 A 
ATOM     26  C9  UNL     1       4.250   3.255  -2.036  0.00  0.00    +0.217 A 
ATOM     27  O2  UNL     1       3.675   2.319  -1.318  0.00  0.00    -0.444 OA
ENDBRANCH  21  23
ENDBRANCH  13  17
ENDBRANCH   1  14
BRANCH   6  28
ATOM     28  S1  UNL     1      -3.518  -0.325   2.224  0.00  0.00    -0.088 S 
BRANCH  28  29
ATOM     29  C17 UNL     1      -3.198   1.181   1.298  0.00  0.00    +0.013 A 
ATOM     30  C18 UNL     1      -1.889   1.669   1.172  0.00  0.00    +0.018 A 
ATOM     31  C19 UNL     1      -1.645   2.843   0.449  0.00  0.00    +0.039 A 
ATOM     32  C20 UNL     1      -2.707   3.536  -0.143  0.00  0.00    +0.123 A 
ATOM     33  F1  UNL     1      -2.468   4.670  -0.848  0.00  0.00    -0.205 F 
ATOM     34  C21 UNL     1      -4.015   3.054  -0.013  0.00  0.00    +0.039 A 
ATOM     35  C22 UNL     1      -4.262   1.879   0.707  0.00  0.00    +0.018 A 
ENDBRANCH  28  29
ENDBRANCH   6  28
TORSDOF 5
