REMARK  Name = /home/qwerty/github/datacon2025hack/step_04_hit_selection/docking/ligands/lig_685.pdb
REMARK  8 active torsions:
REMARK  status: ('A' for Active; 'I' for Inactive)
REMARK    1  A    between atoms: C1_1  and  C2_2
REMARK    2  A    between atoms: C2_2  and  C3_3
REMARK    3  A    between atoms: C2_2  and  N1_4
REMARK    4  A    between atoms: C5_6  and  C6_7
REMARK    5  A    between atoms: N2_9  and  C7_10
REMARK    6  A    between atoms: C10_14  and  C11_16
REMARK    7  A    between atoms: N4_18  and  C13_19
REMARK    8  A    between atoms: C14_20  and  O3_21
REMARK                            x       y       z     vdW  Elec       q    Type
REMARK                         _______ _______ _______ _____ _____    ______ ____
ROOT
ATOM      1  C7  UNL     1      -0.499  -2.145  -1.582  0.00  0.00    +0.092 C 
ATOM      2  C8  UNL     1      -1.062  -3.552  -1.351  0.00  0.00    +0.043 C 
ATOM      3  C9  UNL     1      -2.171  -3.385  -0.324  0.00  0.00    +0.110 C 
ATOM      4  N3  UNL     1      -2.543  -1.980  -0.373  0.00  0.00    -0.294 N 
ATOM      5  C10 UNL     1      -3.633  -1.446   0.404  0.00  0.00    +0.267 C 
ATOM      6  O2  UNL     1      -4.212  -2.192   1.239  0.00  0.00    -0.268 OA
ATOM      7  C15 UNL     1      -1.640  -1.198  -1.204  0.00  0.00    +0.130 C 
ENDROOT
BRANCH   5   8
ATOM      8  C11 UNL     1      -4.106  -0.052   0.259  0.00  0.00    +0.147 A 
ATOM      9  C12 UNL     1      -5.071   0.550   1.046  0.00  0.00    +0.123 A 
ATOM     10  N4  UNL     1      -5.237   1.807   0.604  0.00  0.00    -0.303 N 
ATOM     11  C13 UNL     1      -6.211   2.782   1.079  0.00  0.00    +0.153 C 
ATOM     12  C14 UNL     1      -4.404   1.930  -0.446  0.00  0.00    +0.296 A 
ATOM     13  N5  UNL     1      -3.686   0.814  -0.689  0.00  0.00    -0.190 NA
BRANCH  12  14
ATOM     14  O3  UNL     1      -4.298   3.087  -1.211  0.00  0.00    -0.480 OA
ATOM     15  H19 UNL     1      -3.656   3.131  -1.993  0.00  0.00    +0.295 HD
ENDBRANCH  12  14
ENDBRANCH   5   8
BRANCH   1  18
ATOM     16  C6  UNL     1       1.543  -0.779  -0.950  0.00  0.00    +0.247 C 
ATOM     17  O1  UNL     1       1.343  -0.011  -1.930  0.00  0.00    -0.270 OA
ATOM     18  N2  UNL     1       0.671  -1.899  -0.729  0.00  0.00    -0.307 N 
ATOM     19  H9  UNL     1       0.874  -2.553   0.059  0.00  0.00    +0.149 HD
BRANCH  16  22
ATOM     20  N1  UNL     1       4.460   0.424   0.865  0.00  0.00    -0.268 N 
ATOM     21  C4  UNL     1       3.593   0.518  -0.164  0.00  0.00    +0.121 A 
ATOM     22  C5  UNL     1       2.675  -0.505  -0.045  0.00  0.00    +0.074 A 
ATOM     23  C16 UNL     1       3.050  -1.194   1.096  0.00  0.00    +0.147 A 
ATOM     24  N6  UNL     1       4.140  -0.608   1.630  0.00  0.00    -0.179 NA
BRANCH  20  26
ATOM     25  C1  UNL     1       5.134   2.747   1.338  0.00  0.00    +0.032 C 
ATOM     26  C2  UNL     1       5.603   1.303   1.131  0.00  0.00    +0.101 C 
ATOM     27  C3  UNL     1       6.626   1.210  -0.004  0.00  0.00    +0.032 C 
ENDBRANCH  20  26
ENDBRANCH  16  22
ENDBRANCH   1  18
TORSDOF 5
