REMARK  Name = /home/qwerty/github/datacon2025hack/step_04_hit_selection/docking/ligands/lig_12.pdb
REMARK  10 active torsions:
REMARK  status: ('A' for Active; 'I' for Inactive)
REMARK    1  A    between atoms: C1_1  and  O1_2
REMARK    2  A    between atoms: O1_2  and  C2_3
REMARK    3  A    between atoms: C5_6  and  C6_7
REMARK    4  A    between atoms: C7_10  and  C8_11
REMARK    5  A    between atoms: C8_11  and  N2_12
REMARK    6  A    between atoms: N3_15  and  C10_16
REMARK    7  A    between atoms: C10_16  and  C11_17
REMARK    8  A    between atoms: C11_17  and  C12_18
REMARK    9  A    between atoms: C11_17  and  N4_25
REMARK   10  A    between atoms: C16_22  and  C17_23
REMARK                            x       y       z     vdW  Elec       q    Type
REMARK                         _______ _______ _______ _____ _____    ______ ____
ROOT
ATOM      1  N2  UNL     1       1.145  -2.427   0.843  0.00  0.00    -0.296 N 
ATOM      2  C9  UNL     1      -0.093  -2.338   0.125  0.00  0.00    +0.300 C 
ATOM      3  O3  UNL     1      -0.251  -2.980  -0.950  0.00  0.00    -0.253 OA
ATOM      4  N3  UNL     1      -1.154  -1.521   0.635  0.00  0.00    -0.298 N 
ATOM      5  H9  UNL     1       1.223  -1.958   1.773  0.00  0.00    +0.150 HD
ATOM      6  H10 UNL     1      -1.001  -1.013   1.535  0.00  0.00    +0.150 HD
ENDROOT
BRANCH   1   7
ATOM      7  C8  UNL     1       2.286  -3.202   0.357  0.00  0.00    +0.153 C 
BRANCH   7  11
ATOM      8  C6  UNL     1       5.021  -1.356  -0.798  0.00  0.00    +0.091 C 
ATOM      9  N1  UNL     1       5.243  -2.546  -1.240  0.00  0.00    -0.089 NA
ATOM     10  O2  UNL     1       4.074  -3.258  -1.271  0.00  0.00    -0.388 OA
ATOM     11  C7  UNL     1       2.957  -2.502  -0.832  0.00  0.00    +0.227 C 
ATOM     12  C23 UNL     1       3.578  -1.141  -0.462  0.00  0.00    +0.108 C 
BRANCH   8  16
ATOM     13  C2  UNL     1       8.136   1.585  -0.362  0.00  0.00    +0.120 A 
ATOM     14  C3  UNL     1       8.436   0.297  -0.841  0.00  0.00    +0.046 A 
ATOM     15  C4  UNL     1       7.423  -0.657  -0.982  0.00  0.00    +0.013 A 
ATOM     16  C5  UNL     1       6.093  -0.343  -0.648  0.00  0.00    -0.000 A 
ATOM     17  C24 UNL     1       5.800   0.947  -0.171  0.00  0.00    +0.013 A 
ATOM     18  C25 UNL     1       6.813   1.899  -0.031  0.00  0.00    +0.046 A 
BRANCH  13  20
ATOM     19  C1  UNL     1      10.498   2.393  -0.491  0.00  0.00    +0.277 C 
ATOM     20  O1  UNL     1       9.116   2.576  -0.202  0.00  0.00    -0.495 OA
ENDBRANCH  13  20
ENDBRANCH   8  16
ENDBRANCH   7  11
ENDBRANCH   1   7
BRANCH   4  21
ATOM     21  C10 UNL     1      -2.422  -1.379  -0.083  0.00  0.00    +0.129 C 
BRANCH  21  22
ATOM     22  C11 UNL     1      -3.393  -0.448   0.679  0.00  0.00    +0.104 C 
BRANCH  22  23
ATOM     23  C12 UNL     1      -4.800  -0.440   0.087  0.00  0.00    -0.029 A 
ATOM     24  C13 UNL     1      -5.033  -0.393  -1.303  0.00  0.00    +0.005 A 
ATOM     25  C14 UNL     1      -6.336  -0.367  -1.804  0.00  0.00    +0.001 A 
ATOM     26  C15 UNL     1      -7.426  -0.385  -0.932  0.00  0.00    +0.003 A 
ATOM     27  C16 UNL     1      -7.218  -0.422   0.453  0.00  0.00    -0.050 A 
ATOM     28  C17 UNL     1      -8.386  -0.483   1.392  0.00  0.00    +0.044 C 
ATOM     29  C18 UNL     1      -5.909  -0.469   0.954  0.00  0.00    +0.008 A 
ENDBRANCH  22  23
BRANCH  22  30
ATOM     30  N4  UNL     1      -2.812   0.912   0.860  0.00  0.00    -0.290 NA
ATOM     31  C19 UNL     1      -3.327   1.651   2.032  0.00  0.00    +0.113 C 
ATOM     32  C20 UNL     1      -4.585   2.488   1.704  0.00  0.00    +0.175 C 
ATOM     33  O4  UNL     1      -4.895   2.504   0.324  0.00  0.00    -0.377 OA
ATOM     34  C21 UNL     1      -3.751   2.868  -0.413  0.00  0.00    +0.175 C 
ATOM     35  C22 UNL     1      -2.683   1.760  -0.348  0.00  0.00    +0.113 C 
ENDBRANCH  22  30
ENDBRANCH  21  22
ENDBRANCH   4  21
TORSDOF 8
