REMARK  Name = /home/qwerty/github/datacon2025hack/step_04_hit_selection/docking/ligands/lig_687.pdb
REMARK  7 active torsions:
REMARK  status: ('A' for Active; 'I' for Inactive)
REMARK    1  A    between atoms: C1_1  and  O1_2
REMARK    2  A    between atoms: O1_2  and  C2_3
REMARK    3  A    between atoms: C6_7  and  N1_8
REMARK    4  A    between atoms: C9_11  and  N2_12
REMARK    5  A    between atoms: C10_13  and  C11_15
REMARK    6  A    between atoms: C12_16  and  C13_17
REMARK    7  A    between atoms: C17_21  and  O3_22
REMARK                            x       y       z     vdW  Elec       q    Type
REMARK                         _______ _______ _______ _____ _____    ______ ____
ROOT
ATOM      1  N1  UNL     1      -1.904  -0.795   1.192  0.00  0.00    -0.328 N 
ATOM      2  C7  UNL     1      -1.591  -1.282   2.529  0.00  0.00    +0.107 C 
ATOM      3  C8  UNL     1      -0.074  -1.398   2.582  0.00  0.00    +0.042 C 
ATOM      4  C9  UNL     1       0.373  -1.474   1.120  0.00  0.00    +0.092 C 
ATOM      5  C18 UNL     1      -0.728  -0.764   0.334  0.00  0.00    +0.127 C 
ENDROOT
BRANCH   1  10
ATOM      6  C2  UNL     1      -4.703   0.674  -0.876  0.00  0.00    +0.122 A 
ATOM      7  C3  UNL     1      -5.798   0.417  -0.046  0.00  0.00    +0.046 A 
ATOM      8  C4  UNL     1      -5.622  -0.229   1.177  0.00  0.00    +0.005 A 
ATOM      9  C5  UNL     1      -4.348  -0.627   1.585  0.00  0.00    +0.023 A 
ATOM     10  C6  UNL     1      -3.225  -0.383   0.771  0.00  0.00    +0.033 A 
ATOM     11  C19 UNL     1      -3.416   0.272  -0.464  0.00  0.00    +0.068 A 
BRANCH   6  13
ATOM     12  C1  UNL     1      -3.917   1.654  -3.039  0.00  0.00    +0.277 C 
ATOM     13  O1  UNL     1      -4.933   1.328  -2.096  0.00  0.00    -0.495 OA
ENDBRANCH   6  13
ENDBRANCH   1  10
BRANCH   4  14
ATOM     14  N2  UNL     1       1.682  -0.847   0.905  0.00  0.00    -0.307 N 
ATOM     15  C10 UNL     1       2.354  -0.913  -0.361  0.00  0.00    +0.248 C 
ATOM     16  O2  UNL     1       1.888  -1.630  -1.288  0.00  0.00    -0.270 OA
ATOM     17  H12 UNL     1       2.182  -0.402   1.706  0.00  0.00    +0.149 HD
BRANCH  15  18
ATOM     18  C11 UNL     1       3.616  -0.172  -0.580  0.00  0.00    +0.081 A 
ATOM     19  C12 UNL     1       3.709   1.223  -0.331  0.00  0.00    -0.035 A 
ATOM     20  C13 UNL     1       2.524   2.035   0.124  0.00  0.00    +0.044 C 
ATOM     21  C14 UNL     1       4.942   1.873  -0.509  0.00  0.00    +0.004 A 
ATOM     22  C15 UNL     1       6.056   1.170  -0.965  0.00  0.00    +0.004 A 
ATOM     23  C16 UNL     1       5.959  -0.192  -1.245  0.00  0.00    +0.046 A 
ATOM     24  C17 UNL     1       4.748  -0.868  -1.053  0.00  0.00    +0.129 A 
BRANCH  24  25
ATOM     25  O3  UNL     1       4.671  -2.236  -1.316  0.00  0.00    -0.506 OA
ATOM     26  H19 UNL     1       5.472  -2.759  -1.651  0.00  0.00    +0.292 HD
ENDBRANCH  24  25
ENDBRANCH  15  18
ENDBRANCH   4  14
TORSDOF 5
