REMARK  Name = /home/qwerty/github/datacon2025hack/step_04_hit_selection/docking/ligands/lig_211.pdb
REMARK  5 active torsions:
REMARK  status: ('A' for Active; 'I' for Inactive)
REMARK    1  A    between atoms: C1_1  and  O1_2
REMARK    2  A    between atoms: O1_2  and  C2_3
REMARK    3  A    between atoms: C10_11  and  N1_12
REMARK    4  A    between atoms: C15_19  and  C16_20
REMARK    5  A    between atoms: C17_23  and  C18_24
REMARK                            x       y       z     vdW  Elec       q    Type
REMARK                         _______ _______ _______ _____ _____    ______ ____
ROOT
ATOM      1  N1  UNL     1      -0.633  -0.974   0.927  0.00  0.00    -0.296 N 
ATOM      2  C11 UNL     1       0.647  -0.486   1.361  0.00  0.00    +0.302 C 
ATOM      3  O2  UNL     1       1.038  -0.715   2.538  0.00  0.00    -0.253 OA
ATOM      4  N2  UNL     1       1.504   0.231   0.454  0.00  0.00    -0.285 N 
ATOM      5  C12 UNL     1       0.948   1.158  -0.542  0.00  0.00    +0.109 C 
ATOM      6  C13 UNL     1       1.558   0.891  -1.926  0.00  0.00    +0.020 C 
ATOM      7  C14 UNL     1       3.057   0.516  -1.880  0.00  0.00    +0.014 C 
ATOM      8  C15 UNL     1       3.709   0.846  -0.525  0.00  0.00    +0.076 C 
ATOM      9  C19 UNL     1       2.962   0.121   0.611  0.00  0.00    +0.120 C 
ATOM     10  H12 UNL     1      -0.835  -1.000  -0.098  0.00  0.00    +0.151 HD
ENDROOT
BRANCH   1  19
ATOM     11  C2  UNL     1      -5.736   0.331  -0.482  0.00  0.00    +0.120 A 
ATOM     12  C3  UNL     1      -5.215  -0.702  -1.285  0.00  0.00    +0.046 A 
ATOM     13  C4  UNL     1      -4.229  -1.557  -0.784  0.00  0.00    +0.007 A 
ATOM     14  C5  UNL     1      -3.743  -1.381   0.518  0.00  0.00    -0.042 A 
ATOM     15  C6  UNL     1      -4.254  -0.353   1.322  0.00  0.00    -0.041 A 
ATOM     16  C7  UNL     1      -5.253   0.495   0.822  0.00  0.00    +0.049 A 
ATOM     17  C8  UNL     1      -3.733  -0.218   2.726  0.00  0.00    +0.037 C 
ATOM     18  C9  UNL     1      -2.199  -0.339   2.743  0.00  0.00    +0.027 C 
ATOM     19  C10 UNL     1      -1.626  -1.502   1.871  0.00  0.00    +0.079 C 
ATOM     20  C20 UNL     1      -2.710  -2.302   1.108  0.00  0.00    +0.057 C 
BRANCH  11  22
ATOM     21  C1  UNL     1      -7.312   1.160  -2.237  0.00  0.00    +0.277 C 
ATOM     22  O1  UNL     1      -6.731   1.209  -0.938  0.00  0.00    -0.495 OA
ENDBRANCH  11  22
ENDBRANCH   1  19
BRANCH   8  23
ATOM     23  C16 UNL     1       5.166   0.476  -0.523  0.00  0.00    +0.156 A 
ATOM     24  N3  UNL     1       5.629  -0.760  -0.805  0.00  0.00    -0.157 NA
ATOM     25  N4  UNL     1       6.941  -0.687  -0.682  0.00  0.00    -0.263 N 
ATOM     26  C17 UNL     1       7.249   0.568  -0.321  0.00  0.00    +0.122 A 
ATOM     27  C18 UNL     1       8.644   1.067  -0.139  0.00  0.00    +0.087 C 
ATOM     28  N5  UNL     1       6.154   1.346  -0.217  0.00  0.00    -0.216 NA
ATOM     29  H20 UNL     1       7.601  -1.480  -0.847  0.00  0.00    +0.190 HD
ENDBRANCH   8  23
TORSDOF 3
