REMARK  Name = /home/qwerty/github/datacon2025hack/step_04_hit_selection/docking/ligands/lig_426.pdb
REMARK  7 active torsions:
REMARK  status: ('A' for Active; 'I' for Inactive)
REMARK    1  A    between atoms: C1_1  and  C2_2
REMARK    2  A    between atoms: C2_2  and  C3_3
REMARK    3  A    between atoms: C2_2  and  C4_4
REMARK    4  A    between atoms: C7_7  and  C8_8
REMARK    5  A    between atoms: C8_8  and  N1_9
REMARK    6  A    between atoms: N3_15  and  C12_16
REMARK    7  A    between atoms: C15_19  and  C16_20
REMARK                            x       y       z     vdW  Elec       q    Type
REMARK                         _______ _______ _______ _____ _____    ______ ____
ROOT
ATOM      1  N1  UNL     1       0.663   0.735  -1.010  0.00  0.00    -0.295 NA
ATOM      2  C9  UNL     1       0.570  -0.737  -1.121  0.00  0.00    +0.104 C 
ATOM      3  C10 UNL     1      -0.500  -1.339  -0.198  0.00  0.00    +0.124 C 
ATOM      4  N2  UNL     1      -1.769  -0.611  -0.322  0.00  0.00    -0.283 N 
ATOM      5  C11 UNL     1      -3.010  -1.314  -0.113  0.00  0.00    +0.302 C 
ATOM      6  O1  UNL     1      -3.119  -2.513  -0.490  0.00  0.00    -0.253 OA
ATOM      7  N3  UNL     1      -4.124  -0.668   0.526  0.00  0.00    -0.296 N 
ATOM      8  C18 UNL     1      -1.738   0.856  -0.324  0.00  0.00    +0.124 C 
ATOM      9  C19 UNL     1      -0.644   1.369  -1.269  0.00  0.00    +0.104 C 
ATOM     10  H16 UNL     1      -3.959   0.234   1.028  0.00  0.00    +0.151 HD
ENDROOT
BRANCH   7  11
ATOM     11  C12 UNL     1      -5.462  -1.272   0.550  0.00  0.00    +0.076 C 
ATOM     12  C13 UNL     1      -6.122  -1.154  -0.818  0.00  0.00    +0.023 C 
ATOM     13  C14 UNL     1      -6.787   0.216  -0.835  0.00  0.00    +0.020 C 
ATOM     14  C15 UNL     1      -7.052   0.587   0.631  0.00  0.00    +0.093 C 
ATOM     15  C17 UNL     1      -6.394  -0.504   1.485  0.00  0.00    +0.040 C 
BRANCH  14  16
ATOM     16  C16 UNL     1      -6.505   1.917   0.953  0.00  0.00    +0.066 C 
ATOM     17  N4  UNL     1      -6.074   2.961   1.205  0.00  0.00    -0.196 NA
ENDBRANCH  14  16
ENDBRANCH   7  11
BRANCH   1  18
ATOM     18  C8  UNL     1       1.276   1.198   0.255  0.00  0.00    +0.119 C 
BRANCH  18  22
ATOM     19  C4  UNL     1       5.517   0.343   0.241  0.00  0.00    -0.045 A 
ATOM     20  C5  UNL     1       4.652  -0.356   1.103  0.00  0.00    +0.004 A 
ATOM     21  C6  UNL     1       3.282  -0.077   1.113  0.00  0.00    +0.005 A 
ATOM     22  C7  UNL     1       2.754   0.908   0.265  0.00  0.00    -0.033 A 
ATOM     23  C20 UNL     1       3.611   1.603  -0.599  0.00  0.00    +0.005 A 
ATOM     24  C21 UNL     1       4.981   1.325  -0.611  0.00  0.00    +0.004 A 
BRANCH  19  26
ATOM     25  C1  UNL     1       7.650   0.344   1.576  0.00  0.00    +0.012 C 
ATOM     26  C2  UNL     1       7.005   0.048   0.216  0.00  0.00    +0.013 C 
ATOM     27  C3  UNL     1       7.275  -1.397  -0.220  0.00  0.00    +0.012 C 
ENDBRANCH  19  26
ENDBRANCH  18  22
ENDBRANCH   1  18
TORSDOF 5
