REMARK  Name = /home/qwerty/github/datacon2025hack/step_04_hit_selection/docking/ligands/lig_387.pdb
REMARK  7 active torsions:
REMARK  status: ('A' for Active; 'I' for Inactive)
REMARK    1  A    between atoms: C1_1  and  C2_2
REMARK    2  A    between atoms: C2_2  and  N1_3
REMARK    3  A    between atoms: C2_2  and  C16_22
REMARK    4  A    between atoms: C3_4  and  C4_6
REMARK    5  A    between atoms: N2_8  and  C5_9
REMARK    6  A    between atoms: C9_13  and  N3_14
REMARK    7  A    between atoms: C19_25  and  C20_26
REMARK                            x       y       z     vdW  Elec       q    Type
REMARK                         _______ _______ _______ _____ _____    ______ ____
ROOT
ATOM      1  N1  UNL     1      -1.588  -0.401  -1.416  0.00  0.00    -0.298 N 
ATOM      2  C3  UNL     1      -0.728  -1.481  -1.018  0.00  0.00    +0.300 C 
ATOM      3  O1  UNL     1      -0.984  -2.660  -1.386  0.00  0.00    -0.265 OA
ATOM      4  H5  UNL     1      -1.397   0.559  -1.049  0.00  0.00    +0.150 HD
ENDROOT
BRANCH   2   5
ATOM      5  C4  UNL     1       0.463  -1.225  -0.186  0.00  0.00    +0.303 C 
ATOM      6  O2  UNL     1       0.713  -0.050   0.197  0.00  0.00    -0.265 OA
ATOM      7  N2  UNL     1       1.312  -2.313   0.218  0.00  0.00    -0.278 N 
ATOM      8  H6  UNL     1       0.916  -3.280   0.193  0.00  0.00    +0.155 HD
BRANCH   7   9
ATOM      9  C5  UNL     1       2.634  -2.146   0.761  0.00  0.00    +0.036 A 
ATOM     10  C6  UNL     1       3.122  -3.088   1.680  0.00  0.00    +0.023 A 
ATOM     11  C7  UNL     1       4.411  -2.964   2.203  0.00  0.00    +0.004 A 
ATOM     12  C8  UNL     1       5.232  -1.909   1.802  0.00  0.00    +0.023 A 
ATOM     13  C9  UNL     1       4.773  -0.975   0.863  0.00  0.00    +0.038 A 
ATOM     14  C15 UNL     1       3.473  -1.096   0.345  0.00  0.00    +0.046 A 
BRANCH  13  15
ATOM     15  N3  UNL     1       5.628   0.104   0.447  0.00  0.00    -0.271 N 
ATOM     16  C10 UNL     1       5.986   1.128   1.438  0.00  0.00    +0.113 C 
ATOM     17  C11 UNL     1       7.240   1.904   1.028  0.00  0.00    +0.020 C 
ATOM     18  C12 UNL     1       7.078   2.454  -0.388  0.00  0.00    +0.011 C 
ATOM     19  C13 UNL     1       6.944   1.313  -1.396  0.00  0.00    +0.096 C 
ATOM     20  C14 UNL     1       5.939   0.287  -0.954  0.00  0.00    +0.220 C 
ATOM     21  O3  UNL     1       5.436  -0.476  -1.821  0.00  0.00    -0.275 OA
ENDBRANCH  13  15
ENDBRANCH   7   9
ENDBRANCH   2   5
BRANCH   1  23
ATOM     22  C1  UNL     1      -3.045   0.508  -3.170  0.00  0.00    +0.036 C 
ATOM     23  C2  UNL     1      -2.833  -0.620  -2.157  0.00  0.00    +0.136 C 
BRANCH  23  24
ATOM     24  C16 UNL     1      -3.979  -0.710  -1.190  0.00  0.00    +0.126 A 
ATOM     25  C17 UNL     1      -4.323  -1.831  -0.462  0.00  0.00    +0.047 A 
ATOM     26  C18 UNL     1      -5.401  -1.460   0.313  0.00  0.00    +0.050 A 
ATOM     27  C19 UNL     1      -5.648  -0.128   0.011  0.00  0.00    +0.135 A 
ATOM     28  O4  UNL     1      -4.779   0.287  -0.884  0.00  0.00    -0.458 OA
BRANCH  27  29
ATOM     29  C20 UNL     1      -6.711   0.735   0.575  0.00  0.00    +0.017 A 
ATOM     30  C21 UNL     1      -7.572   0.274   1.590  0.00  0.00    +0.014 A 
ATOM     31  C22 UNL     1      -8.572   1.108   2.102  0.00  0.00    +0.039 A 
ATOM     32  C23 UNL     1      -8.724   2.407   1.609  0.00  0.00    +0.123 A 
ATOM     33  F1  UNL     1      -9.696   3.212   2.105  0.00  0.00    -0.205 F 
ATOM     34  C24 UNL     1      -7.874   2.875   0.604  0.00  0.00    +0.039 A 
ATOM     35  C25 UNL     1      -6.872   2.045   0.089  0.00  0.00    +0.014 A 
ENDBRANCH  27  29
ENDBRANCH  23  24
ENDBRANCH   1  23
TORSDOF 6
