MODEL 1
REMARK VINA RESULT:    -6.773      0.000      0.000
REMARK INTER + INTRA:          -9.002
REMARK INTER:                  -8.753
REMARK INTRA:                  -0.249
REMARK UNBOUND:                -0.249
REMARK  Name = /home/qwerty/github/datacon2025hack/step_04_hit_selection/docking/ligands/lig_396.pdb
REMARK  7 active torsions:
REMARK  status: ('A' for Active; 'I' for Inactive)
REMARK    1  A    between atoms: C1_1  and  N1_2
REMARK    2  A    between atoms: N1_2  and  C2_3
REMARK    3  A    between atoms: N1_2  and  C3_4
REMARK    4  A    between atoms: C3_4  and  C4_5
REMARK    5  A    between atoms: C6_7  and  N2_8
REMARK    6  A    between atoms: N3_11  and  C8_12
REMARK    7  A    between atoms: N4_15  and  C11_16
REMARK                            x       y       z     vdW  Elec       q    Type
REMARK                         _______ _______ _______ _____ _____    ______ ____
ROOT
ATOM      1  N2  UNL     1      20.431   0.887  25.142  0.00  0.00    -0.269 N 
ATOM      2  C7  UNL     1      19.081   0.396  25.146  0.00  0.00    +0.304 C 
ATOM      3  O1  UNL     1      18.328   0.611  26.134  0.00  0.00    -0.252 OA
ATOM      4  N3  UNL     1      18.579  -0.306  24.001  0.00  0.00    -0.288 N 
ATOM      5  H10 UNL     1      20.926   0.931  24.222  0.00  0.00    +0.156 HD
ATOM      6  H11 UNL     1      19.210  -0.415  23.174  0.00  0.00    +0.151 HD
ENDROOT
BRANCH   1   9
ATOM      7  C4  UNL     1      21.649   1.295  28.649  0.00  0.00    +0.057 A 
ATOM      8  C5  UNL     1      21.024   0.757  27.517  0.00  0.00    +0.048 A 
ATOM      9  C6  UNL     1      21.095   1.435  26.293  0.00  0.00    +0.038 A 
ATOM     10  C18 UNL     1      21.764   2.669  26.237  0.00  0.00    +0.043 A 
ATOM     11  C19 UNL     1      22.372   3.176  27.388  0.00  0.00    +0.113 A 
ATOM     12  N5  UNL     1      22.304   2.486  28.556  0.00  0.00    -0.258 NA
BRANCH   7  13
ATOM     13  C3  UNL     1      21.579   0.586  29.970  0.00  0.00    +0.139 C 
BRANCH  13  15
ATOM     14  C1  UNL     1      21.363   2.063  31.887  0.00  0.00    +0.105 C 
ATOM     15  N1  UNL     1      20.637   1.270  30.879  0.00  0.00    -0.303 NA
ATOM     16  C2  UNL     1      19.782   0.280  31.556  0.00  0.00    +0.105 C 
ENDBRANCH  13  15
ENDBRANCH   7  13
ENDBRANCH   1   9
BRANCH   4  17
ATOM     17  C8  UNL     1      17.185  -0.749  23.906  0.00  0.00    +0.162 C 
ATOM     18  C9  UNL     1      16.993  -1.764  22.762  0.00  0.00    +0.051 C 
ATOM     19  C10 UNL     1      16.284  -1.021  21.613  0.00  0.00    +0.116 C 
ATOM     20  N4  UNL     1      15.838   0.249  22.165  0.00  0.00    -0.270 N 
ATOM     21  C17 UNL     1      16.326   0.380  23.491  0.00  0.00    +0.240 C 
ATOM     22  O2  UNL     1      16.023   1.340  24.248  0.00  0.00    -0.273 OA
BRANCH  20  23
ATOM     23  C11 UNL     1      15.188   1.282  21.398  0.00  0.00    +0.039 A 
ATOM     24  C12 UNL     1      15.938   2.170  20.605  0.00  0.00    +0.025 A 
ATOM     25  C13 UNL     1      15.299   3.162  19.855  0.00  0.00    +0.025 A 
ATOM     26  C14 UNL     1      13.906   3.275  19.881  0.00  0.00    +0.076 A 
ATOM     27 CL1  UNL     1      13.115   4.524  18.934  0.00  0.00    -0.081 Cl
ATOM     28  C15 UNL     1      13.150   2.390  20.658  0.00  0.00    +0.143 A 
ATOM     29  F1  UNL     1      11.797   2.489  20.689  0.00  0.00    -0.204 F 
ATOM     30  C16 UNL     1      13.787   1.397  21.410  0.00  0.00    +0.063 A 
ENDBRANCH  20  23
ENDBRANCH   4  17
TORSDOF 5
ENDMDL
MODEL 2
REMARK VINA RESULT:    -6.639     13.070     14.168
REMARK INTER + INTRA:          -8.829
REMARK INTER:                  -8.175
REMARK INTRA:                  -0.654
REMARK UNBOUND:                -0.249
REMARK  Name = /home/qwerty/github/datacon2025hack/step_04_hit_selection/docking/ligands/lig_396.pdb
REMARK  7 active torsions:
REMARK  status: ('A' for Active; 'I' for Inactive)
REMARK    1  A    between atoms: C1_1  and  N1_2
REMARK    2  A    between atoms: N1_2  and  C2_3
REMARK    3  A    between atoms: N1_2  and  C3_4
REMARK    4  A    between atoms: C3_4  and  C4_5
REMARK    5  A    between atoms: C6_7  and  N2_8
REMARK    6  A    between atoms: N3_11  and  C8_12
REMARK    7  A    between atoms: N4_15  and  C11_16
REMARK                            x       y       z     vdW  Elec       q    Type
REMARK                         _______ _______ _______ _____ _____    ______ ____
ROOT
ATOM      1  N2  UNL     1      11.031  11.782  30.682  0.00  0.00    -0.269 N 
ATOM      2  C7  UNL     1       9.735  11.836  30.066  0.00  0.00    +0.304 C 
ATOM      3  O1  UNL     1       9.097  12.923  30.018  0.00  0.00    -0.252 OA
ATOM      4  N3  UNL     1       9.186  10.655  29.468  0.00  0.00    -0.288 N 
ATOM      5  H10 UNL     1      11.635  10.956  30.467  0.00  0.00    +0.156 HD
ATOM      6  H11 UNL     1       9.766   9.785  29.471  0.00  0.00    +0.151 HD
ENDROOT
BRANCH   1   9
ATOM      7  C4  UNL     1      12.112  13.789  33.641  0.00  0.00    +0.057 A 
ATOM      8  C5  UNL     1      11.583  12.749  32.866  0.00  0.00    +0.048 A 
ATOM      9  C6  UNL     1      11.598  12.844  31.469  0.00  0.00    +0.038 A 
ATOM     10  C18 UNL     1      12.110  14.008  30.872  0.00  0.00    +0.043 A 
ATOM     11  C19 UNL     1      12.625  15.026  31.678  0.00  0.00    +0.113 A 
ATOM     12  N5  UNL     1      12.617  14.897  33.030  0.00  0.00    -0.258 NA
BRANCH   7  13
ATOM     13  C3  UNL     1      12.101  13.707  35.141  0.00  0.00    +0.139 C 
BRANCH  13  15
ATOM     14  C1  UNL     1       9.879  14.196  35.995  0.00  0.00    +0.105 C 
ATOM     15  N1  UNL     1      10.827  13.132  35.620  0.00  0.00    -0.303 NA
ATOM     16  C2  UNL     1      11.074  12.262  36.782  0.00  0.00    +0.105 C 
ENDBRANCH  13  15
ENDBRANCH   7  13
ENDBRANCH   1   9
BRANCH   4  17
ATOM     17  C8  UNL     1       7.911  10.667  28.744  0.00  0.00    +0.162 C 
ATOM     18  C9  UNL     1       7.341   9.244  28.582  0.00  0.00    +0.051 C 
ATOM     19  C10 UNL     1       7.569   8.830  27.115  0.00  0.00    +0.116 C 
ATOM     20  N4  UNL     1       7.974  10.037  26.411  0.00  0.00    -0.270 N 
ATOM     21  C17 UNL     1       8.132  11.093  27.345  0.00  0.00    +0.240 C 
ATOM     22  O2  UNL     1       8.391  12.279  27.011  0.00  0.00    -0.273 OA
BRANCH  20  23
ATOM     23  C11 UNL     1       8.357  10.074  25.021  0.00  0.00    +0.039 A 
ATOM     24  C12 UNL     1       7.386  10.187  24.009  0.00  0.00    +0.025 A 
ATOM     25  C13 UNL     1       7.767  10.235  22.665  0.00  0.00    +0.025 A 
ATOM     26  C14 UNL     1       9.119  10.176  22.316  0.00  0.00    +0.076 A 
ATOM     27 CL1  UNL     1       9.585  10.237  20.624  0.00  0.00    -0.081 Cl
ATOM     28  C15 UNL     1      10.094  10.074  23.315  0.00  0.00    +0.143 A 
ATOM     29  F1  UNL     1      11.409  10.019  22.986  0.00  0.00    -0.204 F 
ATOM     30  C16 UNL     1       9.715  10.026  24.661  0.00  0.00    +0.063 A 
ENDBRANCH  20  23
ENDBRANCH   4  17
TORSDOF 5
ENDMDL
MODEL 3
REMARK VINA RESULT:    -6.595      7.461      8.708
REMARK INTER + INTRA:          -8.772
REMARK INTER:                  -8.083
REMARK INTRA:                  -0.689
REMARK UNBOUND:                -0.249
REMARK  Name = /home/qwerty/github/datacon2025hack/step_04_hit_selection/docking/ligands/lig_396.pdb
REMARK  7 active torsions:
REMARK  status: ('A' for Active; 'I' for Inactive)
REMARK    1  A    between atoms: C1_1  and  N1_2
REMARK    2  A    between atoms: N1_2  and  C2_3
REMARK    3  A    between atoms: N1_2  and  C3_4
REMARK    4  A    between atoms: C3_4  and  C4_5
REMARK    5  A    between atoms: C6_7  and  N2_8
REMARK    6  A    between atoms: N3_11  and  C8_12
REMARK    7  A    between atoms: N4_15  and  C11_16
REMARK                            x       y       z     vdW  Elec       q    Type
REMARK                         _______ _______ _______ _____ _____    ______ ____
ROOT
ATOM      1  N2  UNL     1      22.150   5.895  25.160  0.00  0.00    -0.269 N 
ATOM      2  C7  UNL     1      22.080   5.816  23.727  0.00  0.00    +0.304 C 
ATOM      3  O1  UNL     1      21.264   5.031  23.172  0.00  0.00    -0.252 OA
ATOM      4  N3  UNL     1      22.915   6.665  22.929  0.00  0.00    -0.288 N 
ATOM      5  H10 UNL     1      22.625   6.729  25.574  0.00  0.00    +0.156 HD
ATOM      6  H11 UNL     1      23.537   7.347  23.420  0.00  0.00    +0.151 HD
ENDROOT
BRANCH   1   9
ATOM      7  C4  UNL     1      21.524   2.868  27.257  0.00  0.00    +0.057 A 
ATOM      8  C5  UNL     1      22.156   3.784  26.404  0.00  0.00    +0.048 A 
ATOM      9  C6  UNL     1      21.504   4.973  26.054  0.00  0.00    +0.038 A 
ATOM     10  C18 UNL     1      20.206   5.205  26.537  0.00  0.00    +0.043 A 
ATOM     11  C19 UNL     1      19.607   4.268  27.381  0.00  0.00    +0.113 A 
ATOM     12  N5  UNL     1      20.271   3.133  27.721  0.00  0.00    -0.258 NA
BRANCH   7  13
ATOM     13  C3  UNL     1      22.205   1.586  27.640  0.00  0.00    +0.139 C 
BRANCH  13  15
ATOM     14  C1  UNL     1      24.027   1.040  29.152  0.00  0.00    +0.105 C 
ATOM     15  N1  UNL     1      22.691   1.651  29.033  0.00  0.00    -0.303 NA
ATOM     16  C2  UNL     1      21.752   0.955  29.928  0.00  0.00    +0.105 C 
ENDBRANCH  13  15
ENDBRANCH   7  13
ENDBRANCH   1   9
BRANCH   4  17
ATOM     17  C8  UNL     1      22.823   6.697  21.467  0.00  0.00    +0.162 C 
ATOM     18  C9  UNL     1      24.170   7.089  20.826  0.00  0.00    +0.051 C 
ATOM     19  C10 UNL     1      24.032   8.546  20.342  0.00  0.00    +0.116 C 
ATOM     20  N4  UNL     1      22.617   8.872  20.432  0.00  0.00    -0.270 N 
ATOM     21  C17 UNL     1      21.927   7.794  21.043  0.00  0.00    +0.240 C 
ATOM     22  O2  UNL     1      20.674   7.758  21.171  0.00  0.00    -0.273 OA
BRANCH  20  23
ATOM     23  C11 UNL     1      22.065  10.171  20.140  0.00  0.00    +0.039 A 
ATOM     24  C12 UNL     1      21.192  10.356  19.053  0.00  0.00    +0.025 A 
ATOM     25  C13 UNL     1      20.653  11.617  18.784  0.00  0.00    +0.025 A 
ATOM     26  C14 UNL     1      20.973  12.707  19.600  0.00  0.00    +0.076 A 
ATOM     27 CL1  UNL     1      20.288  14.286  19.253  0.00  0.00    -0.081 Cl
ATOM     28  C15 UNL     1      21.832  12.532  20.690  0.00  0.00    +0.143 A 
ATOM     29  F1  UNL     1      22.147  13.582  21.490  0.00  0.00    -0.204 F 
ATOM     30  C16 UNL     1      22.373  11.271  20.961  0.00  0.00    +0.063 A 
ENDBRANCH  20  23
ENDBRANCH   4  17
TORSDOF 5
ENDMDL
MODEL 4
REMARK VINA RESULT:    -6.413     13.776     15.032
REMARK INTER + INTRA:          -8.537
REMARK INTER:                  -7.919
REMARK INTRA:                  -0.618
REMARK UNBOUND:                -0.249
REMARK  Name = /home/qwerty/github/datacon2025hack/step_04_hit_selection/docking/ligands/lig_396.pdb
REMARK  7 active torsions:
REMARK  status: ('A' for Active; 'I' for Inactive)
REMARK    1  A    between atoms: C1_1  and  N1_2
REMARK    2  A    between atoms: N1_2  and  C2_3
REMARK    3  A    between atoms: N1_2  and  C3_4
REMARK    4  A    between atoms: C3_4  and  C4_5
REMARK    5  A    between atoms: C6_7  and  N2_8
REMARK    6  A    between atoms: N3_11  and  C8_12
REMARK    7  A    between atoms: N4_15  and  C11_16
REMARK                            x       y       z     vdW  Elec       q    Type
REMARK                         _______ _______ _______ _____ _____    ______ ____
ROOT
ATOM      1  N2  UNL     1      12.212  14.444  33.212  0.00  0.00    -0.269 N 
ATOM      2  C7  UNL     1      12.696  14.046  31.920  0.00  0.00    +0.304 C 
ATOM      3  O1  UNL     1      13.666  13.247  31.822  0.00  0.00    -0.252 OA
ATOM      4  N3  UNL     1      12.042  14.529  30.739  0.00  0.00    -0.288 N 
ATOM      5  H10 UNL     1      11.261  14.874  33.261  0.00  0.00    +0.156 HD
ATOM      6  H11 UNL     1      11.202  15.141  30.856  0.00  0.00    +0.151 HD
ENDROOT
BRANCH   1   9
ATOM      7  C4  UNL     1      13.260  12.733  36.363  0.00  0.00    +0.057 A 
ATOM      8  C5  UNL     1      12.616  12.992  35.146  0.00  0.00    +0.048 A 
ATOM      9  C6  UNL     1      12.895  14.175  34.449  0.00  0.00    +0.038 A 
ATOM     10  C18 UNL     1      13.790  15.101  35.011  0.00  0.00    +0.043 A 
ATOM     11  C19 UNL     1      14.408  14.809  36.228  0.00  0.00    +0.113 A 
ATOM     12  N5  UNL     1      14.135  13.645  36.871  0.00  0.00    -0.258 NA
BRANCH   7  13
ATOM     13  C3  UNL     1      12.970  11.473  37.127  0.00  0.00    +0.139 C 
BRANCH  13  15
ATOM     14  C1  UNL     1      10.724  11.190  38.008  0.00  0.00    +0.105 C 
ATOM     15  N1  UNL     1      11.603  10.994  36.842  0.00  0.00    -0.303 NA
ATOM     16  C2  UNL     1      11.633   9.566  36.485  0.00  0.00    +0.105 C 
ENDBRANCH  13  15
ENDBRANCH   7  13
ENDBRANCH   1   9
BRANCH   4  17
ATOM     17  C8  UNL     1      12.428  14.085  29.397  0.00  0.00    +0.162 C 
ATOM     18  C9  UNL     1      11.812  14.986  28.307  0.00  0.00    +0.051 C 
ATOM     19  C10 UNL     1      10.658  14.193  27.665  0.00  0.00    +0.116 C 
ATOM     20  N4  UNL     1      10.787  12.826  28.147  0.00  0.00    -0.270 N 
ATOM     21  C17 UNL     1      11.826  12.766  29.110  0.00  0.00    +0.240 C 
ATOM     22  O2  UNL     1      12.223  11.691  29.633  0.00  0.00    -0.273 OA
BRANCH  20  23
ATOM     23  C11 UNL     1       9.856  11.769  27.841  0.00  0.00    +0.039 A 
ATOM     24  C12 UNL     1      10.031  10.961  26.703  0.00  0.00    +0.025 A 
ATOM     25  C13 UNL     1       9.130   9.930  26.420  0.00  0.00    +0.025 A 
ATOM     26  C14 UNL     1       8.049   9.689  27.273  0.00  0.00    +0.076 A 
ATOM     27 CL1  UNL     1       6.924   8.391  26.908  0.00  0.00    -0.081 Cl
ATOM     28  C15 UNL     1       7.870  10.480  28.413  0.00  0.00    +0.143 A 
ATOM     29  F1  UNL     1       6.825  10.253  29.248  0.00  0.00    -0.204 F 
ATOM     30  C16 UNL     1       8.771  11.512  28.698  0.00  0.00    +0.063 A 
ENDBRANCH  20  23
ENDBRANCH   4  17
TORSDOF 5
ENDMDL
MODEL 5
REMARK VINA RESULT:    -6.382      7.822     13.070
REMARK INTER + INTRA:          -8.497
REMARK INTER:                  -8.278
REMARK INTRA:                  -0.218
REMARK UNBOUND:                -0.249
REMARK  Name = /home/qwerty/github/datacon2025hack/step_04_hit_selection/docking/ligands/lig_396.pdb
REMARK  7 active torsions:
REMARK  status: ('A' for Active; 'I' for Inactive)
REMARK    1  A    between atoms: C1_1  and  N1_2
REMARK    2  A    between atoms: N1_2  and  C2_3
REMARK    3  A    between atoms: N1_2  and  C3_4
REMARK    4  A    between atoms: C3_4  and  C4_5
REMARK    5  A    between atoms: C6_7  and  N2_8
REMARK    6  A    between atoms: N3_11  and  C8_12
REMARK    7  A    between atoms: N4_15  and  C11_16
REMARK                            x       y       z     vdW  Elec       q    Type
REMARK                         _______ _______ _______ _____ _____    ______ ____
ROOT
ATOM      1  N2  UNL     1      21.885   2.732  32.847  0.00  0.00    -0.269 N 
ATOM      2  C7  UNL     1      22.238   4.124  32.883  0.00  0.00    +0.304 C 
ATOM      3  O1  UNL     1      22.159   4.828  31.839  0.00  0.00    -0.252 OA
ATOM      4  N3  UNL     1      22.640   4.721  34.122  0.00  0.00    -0.288 N 
ATOM      5  H10 UNL     1      21.700   2.257  33.760  0.00  0.00    +0.156 HD
ATOM      6  H11 UNL     1      22.636   4.125  34.981  0.00  0.00    +0.151 HD
ENDROOT
BRANCH   1   9
ATOM      7  C4  UNL     1      22.024   1.687  29.264  0.00  0.00    +0.057 A 
ATOM      8  C5  UNL     1      22.267   2.393  30.450  0.00  0.00    +0.048 A 
ATOM      9  C6  UNL     1      21.648   1.988  31.640  0.00  0.00    +0.038 A 
ATOM     10  C18 UNL     1      20.759   0.901  31.609  0.00  0.00    +0.043 A 
ATOM     11  C19 UNL     1      20.539   0.225  30.407  0.00  0.00    +0.113 A 
ATOM     12  N5  UNL     1      21.170   0.627  29.273  0.00  0.00    -0.258 NA
BRANCH   7  13
ATOM     13  C3  UNL     1      22.675   2.108  27.978  0.00  0.00    +0.139 C 
BRANCH  13  15
ATOM     14  C1  UNL     1      21.365   2.040  25.933  0.00  0.00    +0.105 C 
ATOM     15  N1  UNL     1      21.715   2.836  27.123  0.00  0.00    -0.303 NA
ATOM     16  C2  UNL     1      22.292   4.123  26.701  0.00  0.00    +0.105 C 
ENDBRANCH  13  15
ENDBRANCH   7  13
ENDBRANCH   1   9
BRANCH   4  17
ATOM     17  C8  UNL     1      22.922   6.155  34.242  0.00  0.00    +0.162 C 
ATOM     18  C9  UNL     1      23.808   6.454  35.468  0.00  0.00    +0.051 C 
ATOM     19  C10 UNL     1      22.896   7.079  36.542  0.00  0.00    +0.116 C 
ATOM     20  N4  UNL     1      21.639   7.388  35.878  0.00  0.00    -0.270 N 
ATOM     21  C17 UNL     1      21.676   6.888  34.550  0.00  0.00    +0.240 C 
ATOM     22  O2  UNL     1      20.759   7.088  33.710  0.00  0.00    -0.273 OA
BRANCH  20  23
ATOM     23  C11 UNL     1      20.479   7.922  36.547  0.00  0.00    +0.039 A 
ATOM     24  C12 UNL     1      20.242   9.308  36.583  0.00  0.00    +0.025 A 
ATOM     25  C13 UNL     1      19.109   9.817  37.224  0.00  0.00    +0.025 A 
ATOM     26  C14 UNL     1      18.196   8.949  37.831  0.00  0.00    +0.076 A 
ATOM     27 CL1  UNL     1      16.776   9.600  38.632  0.00  0.00    -0.081 Cl
ATOM     28  C15 UNL     1      18.416   7.567  37.792  0.00  0.00    +0.143 A 
ATOM     29  F1  UNL     1      17.535   6.716  38.375  0.00  0.00    -0.204 F 
ATOM     30  C16 UNL     1      19.550   7.056  37.151  0.00  0.00    +0.063 A 
ENDBRANCH  20  23
ENDBRANCH   4  17
TORSDOF 5
ENDMDL
MODEL 6
REMARK VINA RESULT:    -6.342      5.776      8.112
REMARK INTER + INTRA:          -8.445
REMARK INTER:                  -7.862
REMARK INTRA:                  -0.583
REMARK UNBOUND:                -0.249
REMARK  Name = /home/qwerty/github/datacon2025hack/step_04_hit_selection/docking/ligands/lig_396.pdb
REMARK  7 active torsions:
REMARK  status: ('A' for Active; 'I' for Inactive)
REMARK    1  A    between atoms: C1_1  and  N1_2
REMARK    2  A    between atoms: N1_2  and  C2_3
REMARK    3  A    between atoms: N1_2  and  C3_4
REMARK    4  A    between atoms: C3_4  and  C4_5
REMARK    5  A    between atoms: C6_7  and  N2_8
REMARK    6  A    between atoms: N3_11  and  C8_12
REMARK    7  A    between atoms: N4_15  and  C11_16
REMARK                            x       y       z     vdW  Elec       q    Type
REMARK                         _______ _______ _______ _____ _____    ______ ____
ROOT
ATOM      1  N2  UNL     1      22.281   6.614  30.644  0.00  0.00    -0.269 N 
ATOM      2  C7  UNL     1      21.784   5.440  29.984  0.00  0.00    +0.304 C 
ATOM      3  O1  UNL     1      21.554   4.388  30.640  0.00  0.00    -0.252 OA
ATOM      4  N3  UNL     1      21.509   5.481  28.577  0.00  0.00    -0.288 N 
ATOM      5  H10 UNL     1      22.200   7.524  30.137  0.00  0.00    +0.156 HD
ATOM      6  H11 UNL     1      21.652   6.386  28.073  0.00  0.00    +0.151 HD
ENDROOT
BRANCH   1   9
ATOM      7  C4  UNL     1      22.308   6.711  34.378  0.00  0.00    +0.057 A 
ATOM      8  C5  UNL     1      21.846   6.666  33.056  0.00  0.00    +0.048 A 
ATOM      9  C6  UNL     1      22.764   6.636  31.999  0.00  0.00    +0.038 A 
ATOM     10  C18 UNL     1      24.137   6.692  32.288  0.00  0.00    +0.043 A 
ATOM     11  C19 UNL     1      24.559   6.741  33.619  0.00  0.00    +0.113 A 
ATOM     12  N5  UNL     1      23.647   6.748  34.625  0.00  0.00    -0.258 NA
BRANCH   7  13
ATOM     13  C3  UNL     1      21.338   6.748  35.525  0.00  0.00    +0.139 C 
BRANCH  13  15
ATOM     14  C1  UNL     1      21.642   7.113  37.908  0.00  0.00    +0.105 C 
ATOM     15  N1  UNL     1      21.796   7.695  36.562  0.00  0.00    -0.303 NA
ATOM     16  C2  UNL     1      21.026   8.946  36.478  0.00  0.00    +0.105 C 
ENDBRANCH  13  15
ENDBRANCH   7  13
ENDBRANCH   1   9
BRANCH   4  17
ATOM     17  C8  UNL     1      20.913   4.347  27.865  0.00  0.00    +0.162 C 
ATOM     18  C9  UNL     1      21.948   3.231  27.618  0.00  0.00    +0.051 C 
ATOM     19  C10 UNL     1      22.329   3.291  26.126  0.00  0.00    +0.116 C 
ATOM     20  N4  UNL     1      21.368   4.183  25.497  0.00  0.00    -0.270 N 
ATOM     21  C17 UNL     1      20.538   4.755  26.495  0.00  0.00    +0.240 C 
ATOM     22  O2  UNL     1      19.555   5.499  26.234  0.00  0.00    -0.273 OA
BRANCH  20  23
ATOM     23  C11 UNL     1      21.413   4.572  24.109  0.00  0.00    +0.039 A 
ATOM     24  C12 UNL     1      20.657   3.884  23.143  0.00  0.00    +0.025 A 
ATOM     25  C13 UNL     1      20.698   4.276  21.802  0.00  0.00    +0.025 A 
ATOM     26  C14 UNL     1      21.486   5.362  21.410  0.00  0.00    +0.076 A 
ATOM     27 CL1  UNL     1      21.527   5.846  19.723  0.00  0.00    -0.081 Cl
ATOM     28  C15 UNL     1      22.234   6.061  22.366  0.00  0.00    +0.143 A 
ATOM     29  F1  UNL     1      23.000   7.118  21.997  0.00  0.00    -0.204 F 
ATOM     30  C16 UNL     1      22.195   5.670  23.708  0.00  0.00    +0.063 A 
ENDBRANCH  20  23
ENDBRANCH   4  17
TORSDOF 5
ENDMDL
MODEL 7
REMARK VINA RESULT:    -6.213      7.834     13.012
REMARK INTER + INTRA:          -8.278
REMARK INTER:                  -7.512
REMARK INTRA:                  -0.767
REMARK UNBOUND:                -0.249
REMARK  Name = /home/qwerty/github/datacon2025hack/step_04_hit_selection/docking/ligands/lig_396.pdb
REMARK  7 active torsions:
REMARK  status: ('A' for Active; 'I' for Inactive)
REMARK    1  A    between atoms: C1_1  and  N1_2
REMARK    2  A    between atoms: N1_2  and  C2_3
REMARK    3  A    between atoms: N1_2  and  C3_4
REMARK    4  A    between atoms: C3_4  and  C4_5
REMARK    5  A    between atoms: C6_7  and  N2_8
REMARK    6  A    between atoms: N3_11  and  C8_12
REMARK    7  A    between atoms: N4_15  and  C11_16
REMARK                            x       y       z     vdW  Elec       q    Type
REMARK                         _______ _______ _______ _____ _____    ______ ____
ROOT
ATOM      1  N2  UNL     1      22.007   2.954  32.316  0.00  0.00    -0.269 N 
ATOM      2  C7  UNL     1      22.416   4.326  32.432  0.00  0.00    +0.304 C 
ATOM      3  O1  UNL     1      22.453   5.068  31.412  0.00  0.00    -0.252 OA
ATOM      4  N3  UNL     1      22.742   4.862  33.721  0.00  0.00    -0.288 N 
ATOM      5  H10 UNL     1      21.728   2.458  33.193  0.00  0.00    +0.156 HD
ATOM      6  H11 UNL     1      22.643   4.238  34.554  0.00  0.00    +0.151 HD
ENDROOT
BRANCH   1   9
ATOM      7  C4  UNL     1      20.372   1.419  29.329  0.00  0.00    +0.057 A 
ATOM      8  C5  UNL     1      20.550   2.111  30.535  0.00  0.00    +0.048 A 
ATOM      9  C6  UNL     1      21.837   2.263  31.067  0.00  0.00    +0.038 A 
ATOM     10  C18 UNL     1      22.924   1.680  30.396  0.00  0.00    +0.043 A 
ATOM     11  C19 UNL     1      22.707   0.995  29.199  0.00  0.00    +0.113 A 
ATOM     12  N5  UNL     1      21.450   0.881  28.695  0.00  0.00    -0.258 NA
BRANCH   7  13
ATOM     13  C3  UNL     1      19.000   1.242  28.745  0.00  0.00    +0.139 C 
BRANCH  13  15
ATOM     14  C1  UNL     1      17.641   2.809  27.480  0.00  0.00    +0.105 C 
ATOM     15  N1  UNL     1      18.870   1.996  27.482  0.00  0.00    -0.303 NA
ATOM     16  C2  UNL     1      18.845   1.067  26.341  0.00  0.00    +0.105 C 
ENDBRANCH  13  15
ENDBRANCH   7  13
ENDBRANCH   1   9
BRANCH   4  17
ATOM     17  C8  UNL     1      23.075   6.276  33.916  0.00  0.00    +0.162 C 
ATOM     18  C9  UNL     1      23.987   6.476  35.143  0.00  0.00    +0.051 C 
ATOM     19  C10 UNL     1      23.113   7.070  36.264  0.00  0.00    +0.116 C 
ATOM     20  N4  UNL     1      21.858   7.458  35.638  0.00  0.00    -0.270 N 
ATOM     21  C17 UNL     1      21.860   7.033  34.285  0.00  0.00    +0.240 C 
ATOM     22  O2  UNL     1      20.939   7.310  33.472  0.00  0.00    -0.273 OA
BRANCH  20  23
ATOM     23  C11 UNL     1      20.727   7.993  36.355  0.00  0.00    +0.039 A 
ATOM     24  C12 UNL     1      19.940   7.168  37.179  0.00  0.00    +0.025 A 
ATOM     25  C13 UNL     1      18.853   7.698  37.879  0.00  0.00    +0.025 A 
ATOM     26  C14 UNL     1      18.542   9.057  37.771  0.00  0.00    +0.076 A 
ATOM     27 CL1  UNL     1      17.174   9.711  38.656  0.00  0.00    -0.081 Cl
ATOM     28  C15 UNL     1      19.325   9.889  36.962  0.00  0.00    +0.143 A 
ATOM     29  F1  UNL     1      19.033  11.209  36.852  0.00  0.00    -0.204 F 
ATOM     30  C16 UNL     1      20.413   9.360  36.260  0.00  0.00    +0.063 A 
ENDBRANCH  20  23
ENDBRANCH   4  17
TORSDOF 5
ENDMDL
MODEL 8
REMARK VINA RESULT:    -6.148      5.682     11.027
REMARK INTER + INTRA:          -8.195
REMARK INTER:                  -7.461
REMARK INTRA:                  -0.734
REMARK UNBOUND:                -0.249
REMARK  Name = /home/qwerty/github/datacon2025hack/step_04_hit_selection/docking/ligands/lig_396.pdb
REMARK  7 active torsions:
REMARK  status: ('A' for Active; 'I' for Inactive)
REMARK    1  A    between atoms: C1_1  and  N1_2
REMARK    2  A    between atoms: N1_2  and  C2_3
REMARK    3  A    between atoms: N1_2  and  C3_4
REMARK    4  A    between atoms: C3_4  and  C4_5
REMARK    5  A    between atoms: C6_7  and  N2_8
REMARK    6  A    between atoms: N3_11  and  C8_12
REMARK    7  A    between atoms: N4_15  and  C11_16
REMARK                            x       y       z     vdW  Elec       q    Type
REMARK                         _______ _______ _______ _____ _____    ______ ____
ROOT
ATOM      1  N2  UNL     1      16.847   0.384  27.374  0.00  0.00    -0.269 N 
ATOM      2  C7  UNL     1      17.909   1.015  28.108  0.00  0.00    +0.304 C 
ATOM      3  O1  UNL     1      18.859   1.575  27.497  0.00  0.00    -0.252 OA
ATOM      4  N3  UNL     1      17.860   1.044  29.540  0.00  0.00    -0.288 N 
ATOM      5  H10 UNL     1      15.961   0.178  27.888  0.00  0.00    +0.156 HD
ATOM      6  H11 UNL     1      17.028   0.625  30.014  0.00  0.00    +0.151 HD
ENDROOT
BRANCH   1   9
ATOM      7  C4  UNL     1      16.290   0.801  23.704  0.00  0.00    +0.057 A 
ATOM      8  C5  UNL     1      16.283   1.049  25.084  0.00  0.00    +0.048 A 
ATOM      9  C6  UNL     1      16.880   0.133  25.959  0.00  0.00    +0.038 A 
ATOM     10  C18 UNL     1      17.443  -1.042  25.434  0.00  0.00    +0.043 A 
ATOM     11  C19 UNL     1      17.427  -1.256  24.054  0.00  0.00    +0.113 A 
ATOM     12  N5  UNL     1      16.859  -0.341  23.227  0.00  0.00    -0.258 NA
BRANCH   7  13
ATOM     13  C3  UNL     1      15.650   1.769  22.751  0.00  0.00    +0.139 C 
BRANCH  13  15
ATOM     14  C1  UNL     1      16.256   1.875  20.401  0.00  0.00    +0.105 C 
ATOM     15  N1  UNL     1      15.477   1.151  21.421  0.00  0.00    -0.303 NA
ATOM     16  C2  UNL     1      14.054   1.155  21.045  0.00  0.00    +0.105 C 
ENDBRANCH  13  15
ENDBRANCH   7  13
ENDBRANCH   1   9
BRANCH   4  17
ATOM     17  C8  UNL     1      18.863   1.753  30.340  0.00  0.00    +0.162 C 
ATOM     18  C9  UNL     1      20.052   0.837  30.694  0.00  0.00    +0.051 C 
ATOM     19  C10 UNL     1      19.902   0.456  32.179  0.00  0.00    +0.116 C 
ATOM     20  N4  UNL     1      18.866   1.323  32.719  0.00  0.00    -0.270 N 
ATOM     21  C17 UNL     1      18.302   2.089  31.666  0.00  0.00    +0.240 C 
ATOM     22  O2  UNL     1      17.444   2.992  31.851  0.00  0.00    -0.273 OA
BRANCH  20  23
ATOM     23  C11 UNL     1      18.365   1.243  34.068  0.00  0.00    +0.039 A 
ATOM     24  C12 UNL     1      18.804   2.144  35.055  0.00  0.00    +0.025 A 
ATOM     25  C13 UNL     1      18.304   2.066  36.358  0.00  0.00    +0.025 A 
ATOM     26  C14 UNL     1      17.355   1.094  36.689  0.00  0.00    +0.076 A 
ATOM     27 CL1  UNL     1      16.733   1.008  38.329  0.00  0.00    -0.081 Cl
ATOM     28  C15 UNL     1      16.903   0.200  35.712  0.00  0.00    +0.143 A 
ATOM     29  F1  UNL     1      15.981  -0.746  36.023  0.00  0.00    -0.204 F 
ATOM     30  C16 UNL     1      17.403   0.276  34.408  0.00  0.00    +0.063 A 
ENDBRANCH  20  23
ENDBRANCH   4  17
TORSDOF 5
ENDMDL
MODEL 9
REMARK VINA RESULT:    -5.983     13.856     17.332
REMARK INTER + INTRA:          -7.981
REMARK INTER:                  -7.181
REMARK INTRA:                  -0.799
REMARK UNBOUND:                -0.249
REMARK  Name = /home/qwerty/github/datacon2025hack/step_04_hit_selection/docking/ligands/lig_396.pdb
REMARK  7 active torsions:
REMARK  status: ('A' for Active; 'I' for Inactive)
REMARK    1  A    between atoms: C1_1  and  N1_2
REMARK    2  A    between atoms: N1_2  and  C2_3
REMARK    3  A    between atoms: N1_2  and  C3_4
REMARK    4  A    between atoms: C3_4  and  C4_5
REMARK    5  A    between atoms: C6_7  and  N2_8
REMARK    6  A    between atoms: N3_11  and  C8_12
REMARK    7  A    between atoms: N4_15  and  C11_16
REMARK                            x       y       z     vdW  Elec       q    Type
REMARK                         _______ _______ _______ _____ _____    ______ ____
ROOT
ATOM      1  N2  UNL     1      12.371  12.620  31.763  0.00  0.00    -0.269 N 
ATOM      2  C7  UNL     1      12.418  12.801  33.187  0.00  0.00    +0.304 C 
ATOM      3  O1  UNL     1      11.392  12.597  33.890  0.00  0.00    -0.252 OA
ATOM      4  N3  UNL     1      13.653  13.175  33.812  0.00  0.00    -0.288 N 
ATOM      5  H10 UNL     1      13.281  12.530  31.257  0.00  0.00    +0.156 HD
ATOM      6  H11 UNL     1      14.501  13.278  33.209  0.00  0.00    +0.151 HD
ENDROOT
BRANCH   1   9
ATOM      7  C4  UNL     1       9.534  10.934  30.012  0.00  0.00    +0.057 A 
ATOM      8  C5  UNL     1      10.702  11.129  30.763  0.00  0.00    +0.048 A 
ATOM      9  C6  UNL     1      11.159  12.430  31.012  0.00  0.00    +0.038 A 
ATOM     10  C18 UNL     1      10.454  13.515  30.467  0.00  0.00    +0.043 A 
ATOM     11  C19 UNL     1       9.297  13.280  29.721  0.00  0.00    +0.113 A 
ATOM     12  N5  UNL     1       8.866  12.010  29.512  0.00  0.00    -0.258 NA
BRANCH   7  13
ATOM     13  C3  UNL     1       9.031   9.547  29.730  0.00  0.00    +0.139 C 
BRANCH  13  15
ATOM     14  C1  UNL     1       7.040   8.655  30.800  0.00  0.00    +0.105 C 
ATOM     15  N1  UNL     1       7.554   9.521  29.724  0.00  0.00    -0.303 NA
ATOM     16  C2  UNL     1       7.065   9.032  28.424  0.00  0.00    +0.105 C 
ENDBRANCH  13  15
ENDBRANCH   7  13
ENDBRANCH   1   9
BRANCH   4  17
ATOM     17  C8  UNL     1      13.788  13.284  35.268  0.00  0.00    +0.162 C 
ATOM     18  C9  UNL     1      14.803  14.378  35.659  0.00  0.00    +0.051 C 
ATOM     19  C10 UNL     1      16.086  13.660  36.120  0.00  0.00    +0.116 C 
ATOM     20  N4  UNL     1      15.736  12.255  36.264  0.00  0.00    -0.270 N 
ATOM     21  C17 UNL     1      14.408  12.055  35.808  0.00  0.00    +0.240 C 
ATOM     22  O2  UNL     1      13.805  10.952  35.896  0.00  0.00    -0.273 OA
BRANCH  20  23
ATOM     23  C11 UNL     1      16.676  11.218  36.611  0.00  0.00    +0.039 A 
ATOM     24  C12 UNL     1      16.639  10.607  37.877  0.00  0.00    +0.025 A 
ATOM     25  C13 UNL     1      17.547   9.594  38.200  0.00  0.00    +0.025 A 
ATOM     26  C14 UNL     1      18.496   9.175  37.263  0.00  0.00    +0.076 A 
ATOM     27 CL1  UNL     1      19.630   7.901  37.681  0.00  0.00    -0.081 Cl
ATOM     28  C15 UNL     1      18.535   9.770  35.997  0.00  0.00    +0.143 A 
ATOM     29  F1  UNL     1      19.450   9.369  35.079  0.00  0.00    -0.204 F 
ATOM     30  C16 UNL     1      17.627  10.784  35.671  0.00  0.00    +0.063 A 
ENDBRANCH  20  23
ENDBRANCH   4  17
TORSDOF 5
ENDMDL
