REMARK  Name = /home/qwerty/github/datacon2025hack/step_04_hit_selection/docking/ligands/lig_419.pdb
REMARK  5 active torsions:
REMARK  status: ('A' for Active; 'I' for Inactive)
REMARK    1  A    between atoms: C1_1  and  C2_2
REMARK    2  A    between atoms: C2_2  and  C3_3
REMARK    3  A    between atoms: C2_2  and  C4_5
REMARK    4  A    between atoms: C7_10  and  N3_11
REMARK    5  A    between atoms: C8_12  and  C9_14
REMARK                            x       y       z     vdW  Elec       q    Type
REMARK                         _______ _______ _______ _____ _____    ______ ____
ROOT
ATOM      1  N3  UNL     1      -0.471  -0.177   1.136  0.00  0.00    -0.307 N 
ATOM      2  C8  UNL     1      -1.557   0.636   0.660  0.00  0.00    +0.244 C 
ATOM      3  O2  UNL     1      -1.423   1.890   0.612  0.00  0.00    -0.270 OA
ATOM      4  H10 UNL     1      -0.470  -1.195   0.901  0.00  0.00    +0.149 HD
ENDROOT
BRANCH   2   5
ATOM      5  C9  UNL     1      -2.828   0.024   0.206  0.00  0.00    +0.040 A 
ATOM      6  C10 UNL     1      -3.219  -1.265   0.655  0.00  0.00    +0.031 A 
ATOM      7  C11 UNL     1      -4.431  -1.821   0.215  0.00  0.00    +0.093 A 
ATOM      8  N4  UNL     1      -5.199  -1.093  -0.631  0.00  0.00    -0.306 N 
ATOM      9  C12 UNL     1      -6.385  -1.378  -1.195  0.00  0.00    +0.204 A 
ATOM     10  N5  UNL     1      -6.822  -0.366  -1.984  0.00  0.00    -0.243 NA
ATOM     11  C13 UNL     1      -5.859   0.583  -1.900  0.00  0.00    +0.138 A 
ATOM     12  C14 UNL     1      -4.866   0.126  -1.065  0.00  0.00    +0.066 A 
ATOM     13  C15 UNL     1      -3.679   0.738  -0.668  0.00  0.00    +0.040 A 
ENDBRANCH   2   5
BRANCH   1  19
ATOM     14  C4  UNL     1       4.328   0.486   0.457  0.00  0.00    +0.232 C 
ATOM     15  O1  UNL     1       5.389   0.140   1.047  0.00  0.00    -0.274 OA
ATOM     16  N2  UNL     1       3.064   0.315   1.127  0.00  0.00    -0.299 N 
ATOM     17  C5  UNL     1       2.950  -0.311   2.434  0.00  0.00    +0.109 C 
ATOM     18  C6  UNL     1       1.459  -0.527   2.659  0.00  0.00    +0.043 C 
ATOM     19  C7  UNL     1       0.757   0.414   1.675  0.00  0.00    +0.092 C 
ATOM     20  C16 UNL     1       1.774   0.685   0.568  0.00  0.00    +0.130 C 
BRANCH  14  22
ATOM     21  C1  UNL     1       4.487  -0.187  -1.938  0.00  0.00    +0.033 C 
ATOM     22  C2  UNL     1       4.408   0.990  -0.966  0.00  0.00    +0.174 C 
BRANCH  22  23
ATOM     23  C3  UNL     1       5.576   1.868  -1.139  0.00  0.00    +0.075 C 
ATOM     24  N1  UNL     1       6.494   2.559  -1.275  0.00  0.00    -0.196 NA
ENDBRANCH  22  23
ENDBRANCH  14  22
ENDBRANCH   1  19
TORSDOF 4
