REMARK  Name = /home/qwerty/github/datacon2025hack/step_04_hit_selection/docking/ligands/lig_244.pdb
REMARK  4 active torsions:
REMARK  status: ('A' for Active; 'I' for Inactive)
REMARK    1  A    between atoms: C1_1  and  C2_2
REMARK    2  A    between atoms: C4_5  and  C5_7
REMARK    3  A    between atoms: C7_9  and  C8_10
REMARK    4  A    between atoms: C16_21  and  O2_22
REMARK                            x       y       z     vdW  Elec       q    Type
REMARK                         _______ _______ _______ _____ _____    ______ ____
ROOT
ATOM      1  C5  UNL     1       1.104  -1.194  -1.221  0.00  0.00    +0.121 A 
ATOM      2  C6  UNL     1       1.245  -0.278  -0.199  0.00  0.00    +0.062 A 
ATOM      3  C7  UNL     1       2.603   0.006  -0.177  0.00  0.00    +0.093 A 
ATOM      4  N2  UNL     1       3.227  -0.716  -1.132  0.00  0.00    -0.173 NA
ATOM      5  N3  UNL     1       2.314  -1.442  -1.755  0.00  0.00    -0.272 N 
ATOM      6  H12 UNL     1       2.525  -2.099  -2.539  0.00  0.00    +0.189 HD
ENDROOT
BRANCH   1  11
ATOM      7  C1  UNL     1      -3.367   1.864  -0.718  0.00  0.00    +0.011 C 
ATOM      8  C2  UNL     1      -2.529   0.657  -0.273  0.00  0.00    +0.032 C 
ATOM      9  C3  UNL     1      -1.786   0.052  -1.489  0.00  0.00    +0.114 C 
ATOM     10  N1  UNL     1      -1.430  -1.353  -1.246  0.00  0.00    -0.296 N 
ATOM     11  C4  UNL     1      -0.143  -1.857  -1.643  0.00  0.00    +0.264 C 
ATOM     12  O1  UNL     1      -0.074  -2.902  -2.344  0.00  0.00    -0.268 OA
ATOM     13  C14 UNL     1      -2.476  -2.309  -0.861  0.00  0.00    +0.110 C 
ATOM     14  C15 UNL     1      -3.750  -1.592  -0.390  0.00  0.00    +0.050 C 
ATOM     15  C16 UNL     1      -3.399  -0.384   0.495  0.00  0.00    +0.120 C 
BRANCH  15  16
ATOM     16  O2  UNL     1      -2.702  -0.818   1.636  0.00  0.00    -0.391 OA
ATOM     17  H18 UNL     1      -3.363  -1.266   2.227  0.00  0.00    +0.210 HD
ENDBRANCH  15  16
ENDBRANCH   1  11
BRANCH   3  18
ATOM     18  C8  UNL     1       3.305   0.937   0.740  0.00  0.00    +0.002 A 
ATOM     19  C9  UNL     1       2.598   1.700   1.690  0.00  0.00    +0.013 A 
ATOM     20  C10 UNL     1       3.278   2.574   2.545  0.00  0.00    +0.039 A 
ATOM     21  C11 UNL     1       4.666   2.698   2.462  0.00  0.00    +0.123 A 
ATOM     22  F1  UNL     1       5.322   3.546   3.292  0.00  0.00    -0.205 F 
ATOM     23  C12 UNL     1       5.378   1.948   1.523  0.00  0.00    +0.039 A 
ATOM     24  C13 UNL     1       4.704   1.074   0.666  0.00  0.00    +0.013 A 
ENDBRANCH   3  18
TORSDOF 3
