REMARK  Name = /home/qwerty/github/datacon2025hack/step_04_hit_selection/docking/ligands/lig_702.pdb
REMARK  7 active torsions:
REMARK  status: ('A' for Active; 'I' for Inactive)
REMARK    1  A    between atoms: C1_1  and  O1_2
REMARK    2  A    between atoms: O1_2  and  C2_3
REMARK    3  A    between atoms: C6_7  and  C7_8
REMARK    4  A    between atoms: N7_24  and  C17_25
REMARK    5  A    between atoms: C17_25  and  C18_26
REMARK    6  A    between atoms: C22_31  and  O3_32
REMARK    7  A    between atoms: O3_32  and  C23_33
REMARK                            x       y       z     vdW  Elec       q    Type
REMARK                         _______ _______ _______ _____ _____    ______ ____
ROOT
ATOM      1  C7  UNL     1      -1.478   0.582   0.792  0.00  0.00    +0.169 A 
ATOM      2  N1  UNL     1      -0.779   1.500   1.491  0.00  0.00    -0.127 NA
ATOM      3  N2  UNL     1       0.501   1.184   1.386  0.00  0.00    -0.113 NA
ATOM      4  C8  UNL     1       0.565   0.083   0.614  0.00  0.00    +0.220 A 
ATOM      5  N3  UNL     1       1.800  -0.537   0.236  0.00  0.00    -0.297 N 
ATOM      6  C9  UNL     1       2.793  -0.859   1.258  0.00  0.00    +0.127 C 
ATOM      7  C10 UNL     1       3.925   0.168   1.212  0.00  0.00    +0.127 C 
ATOM      8  N4  UNL     1       4.408   0.344  -0.170  0.00  0.00    -0.297 N 
ATOM      9  C11 UNL     1       5.801   0.643  -0.415  0.00  0.00    +0.218 A 
ATOM     10  N5  UNL     1       6.233   0.937  -1.674  0.00  0.00    -0.223 NA
ATOM     11  C12 UNL     1       7.538   1.217  -1.925  0.00  0.00    +0.116 A 
ATOM     12  C13 UNL     1       8.463   1.207  -0.885  0.00  0.00    +0.039 A 
ATOM     13  C14 UNL     1       8.014   0.907   0.399  0.00  0.00    +0.116 A 
ATOM     14  N6  UNL     1       6.701   0.632   0.609  0.00  0.00    -0.223 NA
ATOM     15  C15 UNL     1       3.408   0.578  -1.228  0.00  0.00    +0.127 C 
ATOM     16  C16 UNL     1       2.275  -0.448  -1.144  0.00  0.00    +0.127 C 
ATOM     17  N7  UNL     1      -0.659  -0.340   0.229  0.00  0.00    -0.295 N 
ENDROOT
BRANCH   1  22
ATOM     18  C2  UNL     1      -5.003   1.857   0.138  0.00  0.00    +0.162 A 
ATOM     19  C3  UNL     1      -5.746   0.710   0.484  0.00  0.00    +0.049 A 
ATOM     20  C4  UNL     1      -5.105  -0.446   0.921  0.00  0.00    +0.004 A 
ATOM     21  C5  UNL     1      -3.718  -0.485   1.014  0.00  0.00    +0.015 A 
ATOM     22  C6  UNL     1      -2.950   0.632   0.658  0.00  0.00    +0.065 A 
ATOM     23  C22 UNL     1      -3.586   1.822   0.238  0.00  0.00    +0.172 A 
BRANCH  18  25
ATOM     24  C1  UNL     1      -7.057   3.172  -0.453  0.00  0.00    +0.277 C 
ATOM     25  O1  UNL     1      -5.648   3.022  -0.308  0.00  0.00    -0.491 OA
ENDBRANCH  18  25
BRANCH  23  26
ATOM     26  O3  UNL     1      -2.761   2.921  -0.074  0.00  0.00    -0.491 OA
ATOM     27  C23 UNL     1      -3.189   4.246  -0.372  0.00  0.00    +0.277 C 
ENDBRANCH  23  26
ENDBRANCH   1  22
BRANCH  17  28
ATOM     28  C17 UNL     1      -1.003  -1.445  -0.678  0.00  0.00    +0.132 C 
BRANCH  28  29
ATOM     29  C18 UNL     1      -0.439  -2.803  -0.194  0.00  0.00    +0.037 C 
ATOM     30  C19 UNL     1      -0.990  -3.942  -1.009  0.00  0.00    +0.035 C 
ATOM     31  C20 UNL     1      -2.194  -4.397  -0.205  0.00  0.00    +0.160 C 
ATOM     32  O2  UNL     1      -2.067  -3.953   1.126  0.00  0.00    -0.379 OA
ATOM     33  C21 UNL     1      -0.894  -3.177   1.210  0.00  0.00    +0.165 C 
ENDBRANCH  28  29
ENDBRANCH  17  28
TORSDOF 5
