REMARK  Name = /home/qwerty/github/datacon2025hack/step_04_hit_selection/docking/ligands/lig_790.pdb
REMARK  3 active torsions:
REMARK  status: ('A' for Active; 'I' for Inactive)
REMARK    1  A    between atoms: N1_3  and  C2_4
REMARK    2  A    between atoms: C6_8  and  C7_9
REMARK    3  A    between atoms: N4_25  and  C20_26
REMARK                            x       y       z     vdW  Elec       q    Type
REMARK                         _______ _______ _______ _____ _____    ______ ____
ROOT
ATOM      1  C2  UNL     1       1.623  -0.652  -0.939  0.00  0.00    +0.035 A 
ATOM      2  C3  UNL     1       1.517  -2.053  -0.963  0.00  0.00    +0.023 A 
ATOM      3  C4  UNL     1       0.265  -2.663  -1.059  0.00  0.00    +0.002 A 
ATOM      4  C5  UNL     1      -0.891  -1.885  -1.145  0.00  0.00    +0.008 A 
ATOM      5  C6  UNL     1      -0.808  -0.482  -1.143  0.00  0.00    -0.016 A 
ATOM      6  C19 UNL     1       0.459   0.125  -1.047  0.00  0.00    +0.031 A 
ENDROOT
BRANCH   5   7
ATOM      7  C7  UNL     1      -2.037   0.347  -1.241  0.00  0.00    -0.017 A 
ATOM      8  C8  UNL     1      -2.051   1.521  -2.035  0.00  0.00    +0.010 A 
ATOM      9  C9  UNL     1      -3.208   2.308  -2.131  0.00  0.00    +0.024 A 
ATOM     10  C10 UNL     1      -4.342   1.909  -1.429  0.00  0.00    +0.038 A 
ATOM     11  C11 UNL     1      -4.350   0.770  -0.652  0.00  0.00    -0.011 A 
ATOM     12  C12 UNL     1      -3.207  -0.027  -0.542  0.00  0.00    +0.015 A 
ATOM     13  C13 UNL     1      -5.700   0.572  -0.004  0.00  0.00    +0.076 C 
ATOM     14  C14 UNL     1      -5.582   0.620   1.537  0.00  0.00    +0.036 C 
ATOM     15  C15 UNL     1      -6.898   0.221   2.217  0.00  0.00    +0.082 C 
ATOM     16  N2  UNL     1      -7.341  -1.098   1.749  0.00  0.00    -0.316 NA
ATOM     17  C16 UNL     1      -7.623  -1.070   0.309  0.00  0.00    +0.082 C 
ATOM     18  C17 UNL     1      -6.349  -0.747  -0.483  0.00  0.00    +0.036 C 
ATOM     19  C18 UNL     1      -6.413   1.790  -0.559  0.00  0.00    +0.228 C 
ATOM     20  O2  UNL     1      -7.608   2.099  -0.309  0.00  0.00    -0.274 OA
ATOM     21  N3  UNL     1      -5.587   2.577  -1.409  0.00  0.00    -0.284 N 
ATOM     22  H12 UNL     1      -8.235  -1.327   2.243  0.00  0.00    +0.122 HD
ATOM     23  H17 UNL     1      -5.845   3.458  -1.906  0.00  0.00    +0.155 HD
ENDBRANCH   5   7
BRANCH   1  26
ATOM     24  O1  UNL     1       3.866  -1.433   0.713  0.00  0.00    -0.253 OA
ATOM     25  C1  UNL     1       4.025  -0.511  -0.132  0.00  0.00    +0.304 C 
ATOM     26  N1  UNL     1       2.902   0.001  -0.866  0.00  0.00    -0.269 N 
ATOM     27  N4  UNL     1       5.324   0.064  -0.335  0.00  0.00    -0.296 N 
ATOM     28  H1  UNL     1       3.003   0.938  -1.317  0.00  0.00    +0.156 HD
ATOM     29  H19 UNL     1       5.400   0.890  -0.970  0.00  0.00    +0.151 HD
BRANCH  27  30
ATOM     30  C20 UNL     1       6.497  -0.325   0.454  0.00  0.00    +0.077 C 
ATOM     31  C21 UNL     1       6.700   0.661   1.610  0.00  0.00    +0.037 C 
ATOM     32  C22 UNL     1       7.922   0.274   2.473  0.00  0.00    +0.082 C 
ATOM     33  N5  UNL     1       8.922  -0.540   1.755  0.00  0.00    -0.316 NA
ATOM     34  C23 UNL     1       9.054  -0.132   0.350  0.00  0.00    +0.082 C 
ATOM     35  C24 UNL     1       7.754  -0.380  -0.442  0.00  0.00    +0.037 C 
ATOM     36  H25 UNL     1       8.634  -1.547   1.788  0.00  0.00    +0.122 HD
ENDBRANCH  27  30
ENDBRANCH   1  26
TORSDOF 3
