MODEL 1
REMARK VINA RESULT:    -7.059      0.000      0.000
REMARK INTER + INTRA:          -9.554
REMARK INTER:                  -8.710
REMARK INTRA:                  -0.844
REMARK UNBOUND:                -0.844
REMARK  Name = /home/qwerty/github/datacon2025hack/step_04_hit_selection/docking/ligands/lig_478.pdb
REMARK  5 active torsions:
REMARK  status: ('A' for Active; 'I' for Inactive)
REMARK    1  A    between atoms: C1_1  and  C2_2
REMARK    2  A    between atoms: C4_4  and  C5_5
REMARK    3  A    between atoms: C8_10  and  N2_11
REMARK    4  A    between atoms: C9_12  and  C10_14
REMARK    5  A    between atoms: C13_18  and  C14_19
REMARK                            x       y       z     vdW  Elec       q    Type
REMARK                         _______ _______ _______ _____ _____    ______ ____
ROOT
ATOM      1  C5  UNL     1      20.035   9.656  33.800  0.00  0.00    +0.247 C 
ATOM      2  O1  UNL     1      19.092   9.160  33.125  0.00  0.00    -0.270 OA
ATOM      3  N1  UNL     1      19.757  10.686  34.764  0.00  0.00    -0.296 N 
ATOM      4  C6  UNL     1      20.778  11.498  35.408  0.00  0.00    +0.110 C 
ATOM      5  C7  UNL     1      20.028  12.656  36.054  0.00  0.00    +0.043 C 
ATOM      6  C8  UNL     1      18.576  12.176  36.178  0.00  0.00    +0.092 C 
ATOM      7  C17 UNL     1      18.409  11.126  35.081  0.00  0.00    +0.130 C 
ENDROOT
BRANCH   1  11
ATOM      8  C1  UNL     1      24.290   9.822  31.208  0.00  0.00    +0.065 C 
ATOM      9  C2  UNL     1      23.474   9.248  32.321  0.00  0.00    +0.040 A 
ATOM     10  C3  UNL     1      22.161   9.680  32.532  0.00  0.00    +0.036 A 
ATOM     11  C4  UNL     1      21.410   9.154  33.592  0.00  0.00    +0.048 A 
ATOM     12  C18 UNL     1      21.998   8.189  34.444  0.00  0.00    +0.013 A 
ATOM     13  C19 UNL     1      21.298   7.591  35.512  0.00  0.00    +0.011 A 
ATOM     14  C20 UNL     1      21.925   6.641  36.324  0.00  0.00    +0.001 A 
ATOM     15  C21 UNL     1      23.249   6.271  36.081  0.00  0.00    +0.002 A 
ATOM     16  C22 UNL     1      23.954   6.844  35.020  0.00  0.00    +0.028 A 
ATOM     17  C23 UNL     1      23.337   7.794  34.198  0.00  0.00    +0.072 A 
ATOM     18  N3  UNL     1      24.027   8.330  33.158  0.00  0.00    -0.252 NA
ENDBRANCH   1  11
BRANCH   6  19
ATOM     19  N2  UNL     1      17.614  13.272  36.028  0.00  0.00    -0.307 N 
ATOM     20  C9  UNL     1      16.339  13.257  36.688  0.00  0.00    +0.248 C 
ATOM     21  O2  UNL     1      16.015  12.275  37.407  0.00  0.00    -0.270 OA
ATOM     22  H10 UNL     1      17.873  14.122  35.476  0.00  0.00    +0.149 HD
BRANCH  20  23
ATOM     23  C10 UNL     1      15.383  14.355  36.454  0.00  0.00    +0.078 A 
ATOM     24  C11 UNL     1      15.665  15.672  36.756  0.00  0.00    +0.054 A 
ATOM     25  C12 UNL     1      14.560  16.397  36.378  0.00  0.00    +0.196 A 
ATOM     26  O3  UNL     1      13.647  15.591  35.891  0.00  0.00    -0.467 OA
ATOM     27  C13 UNL     1      14.085  14.351  35.921  0.00  0.00    +0.120 A 
BRANCH  27  28
ATOM     28  C14 UNL     1      13.174  13.228  35.470  0.00  0.00    +0.056 C 
ATOM     29  C15 UNL     1      12.447  12.484  36.577  0.00  0.00    +0.012 C 
ATOM     30  C16 UNL     1      11.665  13.358  35.600  0.00  0.00    +0.012 C 
ENDBRANCH  27  28
ENDBRANCH  20  23
ENDBRANCH   6  19
TORSDOF 4
ENDMDL
MODEL 2
REMARK VINA RESULT:    -6.988      0.651      2.491
REMARK INTER + INTRA:          -9.466
REMARK INTER:                  -8.615
REMARK INTRA:                  -0.851
REMARK UNBOUND:                -0.844
REMARK  Name = /home/qwerty/github/datacon2025hack/step_04_hit_selection/docking/ligands/lig_478.pdb
REMARK  5 active torsions:
REMARK  status: ('A' for Active; 'I' for Inactive)
REMARK    1  A    between atoms: C1_1  and  C2_2
REMARK    2  A    between atoms: C4_4  and  C5_5
REMARK    3  A    between atoms: C8_10  and  N2_11
REMARK    4  A    between atoms: C9_12  and  C10_14
REMARK    5  A    between atoms: C13_18  and  C14_19
REMARK                            x       y       z     vdW  Elec       q    Type
REMARK                         _______ _______ _______ _____ _____    ______ ____
ROOT
ATOM      1  C5  UNL     1      19.967   9.240  34.304  0.00  0.00    +0.247 C 
ATOM      2  O1  UNL     1      19.019   8.656  33.712  0.00  0.00    -0.270 OA
ATOM      3  N1  UNL     1      19.693  10.372  35.148  0.00  0.00    -0.296 N 
ATOM      4  C6  UNL     1      20.713  11.267  35.671  0.00  0.00    +0.110 C 
ATOM      5  C7  UNL     1      19.959  12.482  36.193  0.00  0.00    +0.043 C 
ATOM      6  C8  UNL     1      18.517  12.002  36.402  0.00  0.00    +0.092 C 
ATOM      7  C17 UNL     1      18.345  10.829  35.440  0.00  0.00    +0.130 C 
ENDROOT
BRANCH   1  11
ATOM      8  C1  UNL     1      23.690   6.351  35.931  0.00  0.00    +0.065 C 
ATOM      9  C2  UNL     1      23.147   7.322  34.933  0.00  0.00    +0.040 A 
ATOM     10  C3  UNL     1      21.857   7.842  35.081  0.00  0.00    +0.036 A 
ATOM     11  C4  UNL     1      21.345   8.734  34.128  0.00  0.00    +0.048 A 
ATOM     12  C18 UNL     1      22.146   9.095  33.018  0.00  0.00    +0.013 A 
ATOM     13  C19 UNL     1      21.715  10.008  32.035  0.00  0.00    +0.011 A 
ATOM     14  C20 UNL     1      22.544  10.332  30.957  0.00  0.00    +0.001 A 
ATOM     15  C21 UNL     1      23.813   9.757  30.849  0.00  0.00    +0.002 A 
ATOM     16  C22 UNL     1      24.261   8.860  31.821  0.00  0.00    +0.028 A 
ATOM     17  C23 UNL     1      23.441   8.530  32.905  0.00  0.00    +0.072 A 
ATOM     18  N3  UNL     1      23.896   7.670  33.853  0.00  0.00    -0.252 NA
ENDBRANCH   1  11
BRANCH   6  19
ATOM     19  N2  UNL     1      17.536  13.061  36.146  0.00  0.00    -0.307 N 
ATOM     20  C9  UNL     1      16.274  13.106  36.827  0.00  0.00    +0.248 C 
ATOM     21  O2  UNL     1      15.977  12.209  37.661  0.00  0.00    -0.270 OA
ATOM     22  H10 UNL     1      17.773  13.845  35.495  0.00  0.00    +0.149 HD
BRANCH  20  23
ATOM     23  C10 UNL     1      15.297  14.157  36.488  0.00  0.00    +0.078 A 
ATOM     24  C11 UNL     1      15.548  15.501  36.670  0.00  0.00    +0.054 A 
ATOM     25  C12 UNL     1      14.432  16.165  36.218  0.00  0.00    +0.196 A 
ATOM     26  O3  UNL     1      13.541  15.299  35.800  0.00  0.00    -0.467 OA
ATOM     27  C13 UNL     1      14.005  14.076  35.947  0.00  0.00    +0.120 A 
BRANCH  27  28
ATOM     28  C14 UNL     1      13.121  12.898  35.593  0.00  0.00    +0.056 C 
ATOM     29  C15 UNL     1      12.565  12.114  36.770  0.00  0.00    +0.012 C 
ATOM     30  C16 UNL     1      11.630  12.934  35.886  0.00  0.00    +0.012 C 
ENDBRANCH  27  28
ENDBRANCH  20  23
ENDBRANCH   6  19
TORSDOF 4
ENDMDL
MODEL 3
REMARK VINA RESULT:    -6.963     15.884     17.014
REMARK INTER + INTRA:          -9.435
REMARK INTER:                  -8.764
REMARK INTRA:                  -0.671
REMARK UNBOUND:                -0.844
REMARK  Name = /home/qwerty/github/datacon2025hack/step_04_hit_selection/docking/ligands/lig_478.pdb
REMARK  5 active torsions:
REMARK  status: ('A' for Active; 'I' for Inactive)
REMARK    1  A    between atoms: C1_1  and  C2_2
REMARK    2  A    between atoms: C4_4  and  C5_5
REMARK    3  A    between atoms: C8_10  and  N2_11
REMARK    4  A    between atoms: C9_12  and  C10_14
REMARK    5  A    between atoms: C13_18  and  C14_19
REMARK                            x       y       z     vdW  Elec       q    Type
REMARK                         _______ _______ _______ _____ _____    ______ ____
ROOT
ATOM      1  C5  UNL     1      15.526   2.802  20.393  0.00  0.00    +0.247 C 
ATOM      2  O1  UNL     1      16.378   3.695  20.131  0.00  0.00    -0.270 OA
ATOM      3  N1  UNL     1      14.127   3.132  20.405  0.00  0.00    -0.296 N 
ATOM      4  C6  UNL     1      13.087   2.262  20.932  0.00  0.00    +0.110 C 
ATOM      5  C7  UNL     1      11.850   3.140  21.062  0.00  0.00    +0.043 C 
ATOM      6  C8  UNL     1      12.102   4.333  20.132  0.00  0.00    +0.092 C 
ATOM      7  C17 UNL     1      13.623   4.442  20.028  0.00  0.00    +0.130 C 
ENDROOT
BRANCH   1  11
ATOM      8  C1  UNL     1      16.823  -1.687  18.654  0.00  0.00    +0.065 C 
ATOM      9  C2  UNL     1      16.618  -0.754  19.804  0.00  0.00    +0.040 A 
ATOM     10  C3  UNL     1      16.157   0.548  19.586  0.00  0.00    +0.036 A 
ATOM     11  C4  UNL     1      15.989   1.424  20.667  0.00  0.00    +0.048 A 
ATOM     12  C18 UNL     1      16.297   0.978  21.974  0.00  0.00    +0.013 A 
ATOM     13  C19 UNL     1      16.127   1.789  23.114  0.00  0.00    +0.011 A 
ATOM     14  C20 UNL     1      16.446   1.300  24.384  0.00  0.00    +0.001 A 
ATOM     15  C21 UNL     1      16.931  -0.001  24.536  0.00  0.00    +0.002 A 
ATOM     16  C22 UNL     1      17.094  -0.823  23.418  0.00  0.00    +0.028 A 
ATOM     17  C23 UNL     1      16.776  -0.346  22.142  0.00  0.00    +0.072 A 
ATOM     18  N3  UNL     1      16.922  -1.161  21.065  0.00  0.00    -0.252 NA
ENDBRANCH   1  11
BRANCH   6  19
ATOM     19  N2  UNL     1      11.504   5.571  20.641  0.00  0.00    -0.307 N 
ATOM     20  C9  UNL     1      10.087   5.797  20.611  0.00  0.00    +0.248 C 
ATOM     21  O2  UNL     1       9.321   4.924  20.122  0.00  0.00    -0.270 OA
ATOM     22  H10 UNL     1      12.110   6.294  21.094  0.00  0.00    +0.149 HD
BRANCH  20  23
ATOM     23  C10 UNL     1       9.543   7.085  21.077  0.00  0.00    +0.078 A 
ATOM     24  C11 UNL     1       8.472   7.177  21.944  0.00  0.00    +0.054 A 
ATOM     25  C12 UNL     1       8.275   8.518  22.169  0.00  0.00    +0.196 A 
ATOM     26  O3  UNL     1       9.147   9.216  21.481  0.00  0.00    -0.467 OA
ATOM     27  C13 UNL     1       9.928   8.405  20.800  0.00  0.00    +0.120 A 
BRANCH  27  28
ATOM     28  C14 UNL     1      10.976   8.987  19.873  0.00  0.00    +0.056 C 
ATOM     29  C15 UNL     1      10.769  10.437  19.472  0.00  0.00    +0.012 C 
ATOM     30  C16 UNL     1      11.942  10.050  20.368  0.00  0.00    +0.012 C 
ENDBRANCH  27  28
ENDBRANCH  20  23
ENDBRANCH   6  19
TORSDOF 4
ENDMDL
MODEL 4
REMARK VINA RESULT:    -6.756     11.438     14.439
REMARK INTER + INTRA:          -9.179
REMARK INTER:                  -8.562
REMARK INTRA:                  -0.617
REMARK UNBOUND:                -0.844
REMARK  Name = /home/qwerty/github/datacon2025hack/step_04_hit_selection/docking/ligands/lig_478.pdb
REMARK  5 active torsions:
REMARK  status: ('A' for Active; 'I' for Inactive)
REMARK    1  A    between atoms: C1_1  and  C2_2
REMARK    2  A    between atoms: C4_4  and  C5_5
REMARK    3  A    between atoms: C8_10  and  N2_11
REMARK    4  A    between atoms: C9_12  and  C10_14
REMARK    5  A    between atoms: C13_18  and  C14_19
REMARK                            x       y       z     vdW  Elec       q    Type
REMARK                         _______ _______ _______ _____ _____    ______ ____
ROOT
ATOM      1  C5  UNL     1      20.430   1.873  26.449  0.00  0.00    +0.247 C 
ATOM      2  O1  UNL     1      19.467   1.413  25.777  0.00  0.00    -0.270 OA
ATOM      3  N1  UNL     1      21.153   3.019  25.969  0.00  0.00    -0.296 N 
ATOM      4  C6  UNL     1      22.420   3.475  26.520  0.00  0.00    +0.110 C 
ATOM      5  C7  UNL     1      22.972   4.465  25.503  0.00  0.00    +0.043 C 
ATOM      6  C8  UNL     1      21.761   4.907  24.672  0.00  0.00    +0.092 C 
ATOM      7  C17 UNL     1      20.765   3.753  24.776  0.00  0.00    +0.130 C 
ENDROOT
BRANCH   1  11
ATOM      8  C1  UNL     1      23.441  -1.176  28.997  0.00  0.00    +0.065 C 
ATOM      9  C2  UNL     1      22.261  -0.260  28.956  0.00  0.00    +0.040 A 
ATOM     10  C3  UNL     1      21.880   0.350  27.756  0.00  0.00    +0.036 A 
ATOM     11  C4  UNL     1      20.786   1.226  27.731  0.00  0.00    +0.048 A 
ATOM     12  C18 UNL     1      20.081   1.488  28.929  0.00  0.00    +0.013 A 
ATOM     13  C19 UNL     1      18.953   2.333  28.979  0.00  0.00    +0.011 A 
ATOM     14  C20 UNL     1      18.291   2.558  30.189  0.00  0.00    +0.001 A 
ATOM     15  C21 UNL     1      18.737   1.943  31.361  0.00  0.00    +0.002 A 
ATOM     16  C22 UNL     1      19.845   1.093  31.328  0.00  0.00    +0.028 A 
ATOM     17  C23 UNL     1      20.515   0.857  30.122  0.00  0.00    +0.072 A 
ATOM     18  N3  UNL     1      21.580   0.014  30.100  0.00  0.00    -0.252 NA
ENDBRANCH   1  11
BRANCH   6  19
ATOM     19  N2  UNL     1      22.116   5.190  23.278  0.00  0.00    -0.307 N 
ATOM     20  C9  UNL     1      21.478   6.235  22.530  0.00  0.00    +0.248 C 
ATOM     21  O2  UNL     1      20.572   6.929  23.066  0.00  0.00    -0.270 OA
ATOM     22  H10 UNL     1      22.896   4.662  22.822  0.00  0.00    +0.149 HD
BRANCH  20  23
ATOM     23  C10 UNL     1      21.828   6.438  21.112  0.00  0.00    +0.078 A 
ATOM     24  C11 UNL     1      20.917   6.289  20.087  0.00  0.00    +0.054 A 
ATOM     25  C12 UNL     1      21.593   6.585  18.927  0.00  0.00    +0.196 A 
ATOM     26  O3  UNL     1      22.840   6.880  19.205  0.00  0.00    -0.467 OA
ATOM     27  C13 UNL     1      23.039   6.799  20.503  0.00  0.00    +0.120 A 
BRANCH  27  28
ATOM     28  C14 UNL     1      24.429   7.032  21.059  0.00  0.00    +0.056 C 
ATOM     29  C15 UNL     1      25.527   7.224  20.028  0.00  0.00    +0.012 C 
ATOM     30  C16 UNL     1      25.100   8.388  20.918  0.00  0.00    +0.012 C 
ENDBRANCH  27  28
ENDBRANCH  20  23
ENDBRANCH   6  19
TORSDOF 4
ENDMDL
MODEL 5
REMARK VINA RESULT:    -6.584      2.050      2.489
REMARK INTER + INTRA:          -8.968
REMARK INTER:                  -8.288
REMARK INTRA:                  -0.679
REMARK UNBOUND:                -0.844
REMARK  Name = /home/qwerty/github/datacon2025hack/step_04_hit_selection/docking/ligands/lig_478.pdb
REMARK  5 active torsions:
REMARK  status: ('A' for Active; 'I' for Inactive)
REMARK    1  A    between atoms: C1_1  and  C2_2
REMARK    2  A    between atoms: C4_4  and  C5_5
REMARK    3  A    between atoms: C8_10  and  N2_11
REMARK    4  A    between atoms: C9_12  and  C10_14
REMARK    5  A    between atoms: C13_18  and  C14_19
REMARK                            x       y       z     vdW  Elec       q    Type
REMARK                         _______ _______ _______ _____ _____    ______ ____
ROOT
ATOM      1  C5  UNL     1      18.828   7.352  34.877  0.00  0.00    +0.247 C 
ATOM      2  O1  UNL     1      17.996   6.412  34.753  0.00  0.00    -0.270 OA
ATOM      3  N1  UNL     1      18.388   8.635  35.355  0.00  0.00    -0.296 N 
ATOM      4  C6  UNL     1      19.192   9.846  35.300  0.00  0.00    +0.110 C 
ATOM      5  C7  UNL     1      18.224  10.990  35.574  0.00  0.00    +0.043 C 
ATOM      6  C8  UNL     1      17.022  10.341  36.270  0.00  0.00    +0.092 C 
ATOM      7  C17 UNL     1      17.030   8.886  35.806  0.00  0.00    +0.130 C 
ENDROOT
BRANCH   1  11
ATOM      8  C1  UNL     1      22.351   6.800  31.394  0.00  0.00    +0.065 C 
ATOM      9  C2  UNL     1      21.949   6.841  32.833  0.00  0.00    +0.040 A 
ATOM     10  C3  UNL     1      20.612   7.046  33.189  0.00  0.00    +0.036 A 
ATOM     11  C4  UNL     1      20.246   7.106  34.541  0.00  0.00    +0.048 A 
ATOM     12  C18 UNL     1      21.244   6.963  35.535  0.00  0.00    +0.013 A 
ATOM     13  C19 UNL     1      20.951   6.982  36.913  0.00  0.00    +0.011 A 
ATOM     14  C20 UNL     1      21.974   6.836  37.856  0.00  0.00    +0.001 A 
ATOM     15  C21 UNL     1      23.296   6.663  37.438  0.00  0.00    +0.002 A 
ATOM     16  C22 UNL     1      23.602   6.629  36.076  0.00  0.00    +0.028 A 
ATOM     17  C23 UNL     1      22.587   6.772  35.123  0.00  0.00    +0.072 A 
ATOM     18  N3  UNL     1      22.895   6.719  33.801  0.00  0.00    -0.252 NA
ENDBRANCH   1  11
BRANCH   6  19
ATOM     19  N2  UNL     1      15.759  11.009  35.937  0.00  0.00    -0.307 N 
ATOM     20  C9  UNL     1      15.318  12.186  36.630  0.00  0.00    +0.248 C 
ATOM     21  O2  UNL     1      16.015  12.663  37.565  0.00  0.00    -0.270 OA
ATOM     22  H10 UNL     1      15.183  10.662  35.136  0.00  0.00    +0.149 HD
BRANCH  20  23
ATOM     23  C10 UNL     1      14.011  12.782  36.299  0.00  0.00    +0.078 A 
ATOM     24  C11 UNL     1      13.883  13.966  35.601  0.00  0.00    +0.054 A 
ATOM     25  C12 UNL     1      12.533  14.183  35.460  0.00  0.00    +0.196 A 
ATOM     26  O3  UNL     1      11.866  13.215  36.041  0.00  0.00    -0.467 OA
ATOM     27  C13 UNL     1      12.704  12.350  36.569  0.00  0.00    +0.120 A 
BRANCH  27  28
ATOM     28  C14 UNL     1      12.163  11.175  37.357  0.00  0.00    +0.056 C 
ATOM     29  C15 UNL     1      10.760  11.345  37.914  0.00  0.00    +0.012 C 
ATOM     30  C16 UNL     1      11.026  10.332  36.804  0.00  0.00    +0.012 C 
ENDBRANCH  27  28
ENDBRANCH  20  23
ENDBRANCH   6  19
TORSDOF 4
ENDMDL
MODEL 6
REMARK VINA RESULT:    -6.565     15.138     16.345
REMARK INTER + INTRA:          -8.944
REMARK INTER:                  -8.151
REMARK INTRA:                  -0.792
REMARK UNBOUND:                -0.844
REMARK  Name = /home/qwerty/github/datacon2025hack/step_04_hit_selection/docking/ligands/lig_478.pdb
REMARK  5 active torsions:
REMARK  status: ('A' for Active; 'I' for Inactive)
REMARK    1  A    between atoms: C1_1  and  C2_2
REMARK    2  A    between atoms: C4_4  and  C5_5
REMARK    3  A    between atoms: C8_10  and  N2_11
REMARK    4  A    between atoms: C9_12  and  C10_14
REMARK    5  A    between atoms: C13_18  and  C14_19
REMARK                            x       y       z     vdW  Elec       q    Type
REMARK                         _______ _______ _______ _____ _____    ______ ____
ROOT
ATOM      1  C5  UNL     1      15.662   3.534  22.228  0.00  0.00    +0.247 C 
ATOM      2  O1  UNL     1      16.469   4.444  21.894  0.00  0.00    -0.270 OA
ATOM      3  N1  UNL     1      14.251   3.722  22.028  0.00  0.00    -0.296 N 
ATOM      4  C6  UNL     1      13.224   2.864  22.597  0.00  0.00    +0.110 C 
ATOM      5  C7  UNL     1      11.917   3.626  22.425  0.00  0.00    +0.043 C 
ATOM      6  C8  UNL     1      12.190   4.650  21.317  0.00  0.00    +0.092 C 
ATOM      7  C17 UNL     1      13.699   4.887  21.357  0.00  0.00    +0.130 C 
ENDROOT
BRANCH   1  11
ATOM      8  C1  UNL     1      17.225   1.014  26.236  0.00  0.00    +0.065 C 
ATOM      9  C2  UNL     1      16.949   1.068  24.768  0.00  0.00    +0.040 A 
ATOM     10  C3  UNL     1      16.471   2.244  24.180  0.00  0.00    +0.036 A 
ATOM     11  C4  UNL     1      16.192   2.281  22.807  0.00  0.00    +0.048 A 
ATOM     12  C18 UNL     1      16.393   1.116  22.029  0.00  0.00    +0.013 A 
ATOM     13  C19 UNL     1      16.165   1.081  20.639  0.00  0.00    +0.011 A 
ATOM     14  C20 UNL     1      16.380  -0.095  19.915  0.00  0.00    +0.001 A 
ATOM     15  C21 UNL     1      16.830  -1.248  20.563  0.00  0.00    +0.002 A 
ATOM     16  C22 UNL     1      17.074  -1.228  21.939  0.00  0.00    +0.028 A 
ATOM     17  C23 UNL     1      16.865  -0.056  22.673  0.00  0.00    +0.072 A 
ATOM     18  N3  UNL     1      17.123  -0.045  24.007  0.00  0.00    -0.252 NA
ENDBRANCH   1  11
BRANCH   6  19
ATOM     19  N2  UNL     1      11.442   5.896  21.514  0.00  0.00    -0.307 N 
ATOM     20  C9  UNL     1      10.124   6.081  20.977  0.00  0.00    +0.248 C 
ATOM     21  O2  UNL     1       9.586   5.165  20.300  0.00  0.00    -0.270 OA
ATOM     22  H10 UNL     1      11.843   6.656  22.110  0.00  0.00    +0.149 HD
BRANCH  20  23
ATOM     23  C10 UNL     1       9.439   7.376  21.150  0.00  0.00    +0.078 A 
ATOM     24  C11 UNL     1       8.249   7.508  21.835  0.00  0.00    +0.054 A 
ATOM     25  C12 UNL     1       7.939   8.847  21.812  0.00  0.00    +0.196 A 
ATOM     26  O3  UNL     1       8.860   9.502  21.147  0.00  0.00    -0.467 OA
ATOM     27  C13 UNL     1       9.781   8.666  20.719  0.00  0.00    +0.120 A 
BRANCH  27  28
ATOM     28  C14 UNL     1      10.918   9.185  19.862  0.00  0.00    +0.056 C 
ATOM     29  C15 UNL     1      10.795  10.630  19.410  0.00  0.00    +0.012 C 
ATOM     30  C16 UNL     1      11.880  10.229  20.406  0.00  0.00    +0.012 C 
ENDBRANCH  27  28
ENDBRANCH  20  23
ENDBRANCH   6  19
TORSDOF 4
ENDMDL
MODEL 7
REMARK VINA RESULT:    -6.524     11.647     14.083
REMARK INTER + INTRA:          -8.894
REMARK INTER:                  -8.098
REMARK INTRA:                  -0.796
REMARK UNBOUND:                -0.844
REMARK  Name = /home/qwerty/github/datacon2025hack/step_04_hit_selection/docking/ligands/lig_478.pdb
REMARK  5 active torsions:
REMARK  status: ('A' for Active; 'I' for Inactive)
REMARK    1  A    between atoms: C1_1  and  C2_2
REMARK    2  A    between atoms: C4_4  and  C5_5
REMARK    3  A    between atoms: C8_10  and  N2_11
REMARK    4  A    between atoms: C9_12  and  C10_14
REMARK    5  A    between atoms: C13_18  and  C14_19
REMARK                            x       y       z     vdW  Elec       q    Type
REMARK                         _______ _______ _______ _____ _____    ______ ____
ROOT
ATOM      1  C5  UNL     1      21.166   3.262  27.243  0.00  0.00    +0.247 C 
ATOM      2  O1  UNL     1      21.241   4.484  27.547  0.00  0.00    -0.270 OA
ATOM      3  N1  UNL     1      20.744   2.880  25.922  0.00  0.00    -0.296 N 
ATOM      4  C6  UNL     1      20.381   1.523  25.542  0.00  0.00    +0.110 C 
ATOM      5  C7  UNL     1      19.680   1.653  24.196  0.00  0.00    +0.043 C 
ATOM      6  C8  UNL     1      20.125   3.011  23.639  0.00  0.00    +0.092 C 
ATOM      7  C17 UNL     1      20.490   3.844  24.866  0.00  0.00    +0.130 C 
ENDROOT
BRANCH   1  11
ATOM      8  C1  UNL     1      24.638   0.310  29.264  0.00  0.00    +0.065 C 
ATOM      9  C2  UNL     1      23.232   0.815  29.226  0.00  0.00    +0.040 A 
ATOM     10  C3  UNL     1      22.844   1.758  28.268  0.00  0.00    +0.036 A 
ATOM     11  C4  UNL     1      21.530   2.246  28.253  0.00  0.00    +0.048 A 
ATOM     12  C18 UNL     1      20.608   1.778  29.219  0.00  0.00    +0.013 A 
ATOM     13  C19 UNL     1      19.262   2.197  29.252  0.00  0.00    +0.011 A 
ATOM     14  C20 UNL     1      18.391   1.704  30.227  0.00  0.00    +0.001 A 
ATOM     15  C21 UNL     1      18.845   0.786  31.177  0.00  0.00    +0.002 A 
ATOM     16  C22 UNL     1      20.172   0.350  31.152  0.00  0.00    +0.028 A 
ATOM     17  C23 UNL     1      21.053   0.834  30.179  0.00  0.00    +0.072 A 
ATOM     18  N3  UNL     1      22.336   0.388  30.155  0.00  0.00    -0.252 NA
ENDBRANCH   1  11
BRANCH   6  19
ATOM     19  N2  UNL     1      19.078   3.654  22.839  0.00  0.00    -0.307 N 
ATOM     20  C9  UNL     1      19.386   4.445  21.682  0.00  0.00    +0.248 C 
ATOM     21  O2  UNL     1      20.586   4.615  21.338  0.00  0.00    -0.270 OA
ATOM     22  H10 UNL     1      18.071   3.493  23.073  0.00  0.00    +0.149 HD
BRANCH  20  23
ATOM     23  C10 UNL     1      18.300   5.122  20.949  0.00  0.00    +0.078 A 
ATOM     24  C11 UNL     1      18.427   6.393  20.427  0.00  0.00    +0.054 A 
ATOM     25  C12 UNL     1      17.237   6.670  19.798  0.00  0.00    +0.196 A 
ATOM     26  O3  UNL     1      16.419   5.653  19.932  0.00  0.00    -0.467 OA
ATOM     27  C13 UNL     1      17.004   4.698  20.622  0.00  0.00    +0.120 A 
BRANCH  27  28
ATOM     28  C14 UNL     1      16.225   3.444  20.964  0.00  0.00    +0.056 C 
ATOM     29  C15 UNL     1      15.284   2.938  19.885  0.00  0.00    +0.012 C 
ATOM     30  C16 UNL     1      16.525   2.132  20.258  0.00  0.00    +0.012 C 
ENDBRANCH  27  28
ENDBRANCH  20  23
ENDBRANCH   6  19
TORSDOF 4
ENDMDL
MODEL 8
REMARK VINA RESULT:    -6.470      1.909      9.797
REMARK INTER + INTRA:          -8.826
REMARK INTER:                  -8.081
REMARK INTRA:                  -0.745
REMARK UNBOUND:                -0.844
REMARK  Name = /home/qwerty/github/datacon2025hack/step_04_hit_selection/docking/ligands/lig_478.pdb
REMARK  5 active torsions:
REMARK  status: ('A' for Active; 'I' for Inactive)
REMARK    1  A    between atoms: C1_1  and  C2_2
REMARK    2  A    between atoms: C4_4  and  C5_5
REMARK    3  A    between atoms: C8_10  and  N2_11
REMARK    4  A    between atoms: C9_12  and  C10_14
REMARK    5  A    between atoms: C13_18  and  C14_19
REMARK                            x       y       z     vdW  Elec       q    Type
REMARK                         _______ _______ _______ _____ _____    ______ ____
ROOT
ATOM      1  C5  UNL     1      16.301  11.683  36.925  0.00  0.00    +0.247 C 
ATOM      2  O1  UNL     1      16.413  11.235  38.098  0.00  0.00    -0.270 OA
ATOM      3  N1  UNL     1      17.118  11.140  35.873  0.00  0.00    -0.296 N 
ATOM      4  C6  UNL     1      17.257  11.740  34.555  0.00  0.00    +0.110 C 
ATOM      5  C7  UNL     1      18.456  11.049  33.919  0.00  0.00    +0.043 C 
ATOM      6  C8  UNL     1      18.629   9.741  34.701  0.00  0.00    +0.092 C 
ATOM      7  C17 UNL     1      18.012  10.012  36.072  0.00  0.00    +0.130 C 
ENDROOT
BRANCH   1  11
ATOM      8  C1  UNL     1      15.289  16.548  36.531  0.00  0.00    +0.065 C 
ATOM      9  C2  UNL     1      14.841  15.124  36.466  0.00  0.00    +0.040 A 
ATOM     10  C3  UNL     1      15.738  14.086  36.740  0.00  0.00    +0.036 A 
ATOM     11  C4  UNL     1      15.317  12.752  36.654  0.00  0.00    +0.048 A 
ATOM     12  C18 UNL     1      13.981  12.471  36.281  0.00  0.00    +0.013 A 
ATOM     13  C19 UNL     1      13.474  11.159  36.202  0.00  0.00    +0.011 A 
ATOM     14  C20 UNL     1      12.145  10.934  35.829  0.00  0.00    +0.001 A 
ATOM     15  C21 UNL     1      11.305  12.011  35.538  0.00  0.00    +0.002 A 
ATOM     16  C22 UNL     1      11.787  13.320  35.624  0.00  0.00    +0.028 A 
ATOM     17  C23 UNL     1      13.114  13.557  35.999  0.00  0.00    +0.072 A 
ATOM     18  N3  UNL     1      13.566  14.835  36.096  0.00  0.00    -0.252 NA
ENDBRANCH   1  11
BRANCH   6  19
ATOM     19  N2  UNL     1      20.035   9.340  34.810  0.00  0.00    -0.307 N 
ATOM     20  C9  UNL     1      20.543   8.170  34.150  0.00  0.00    +0.248 C 
ATOM     21  O2  UNL     1      19.769   7.447  33.467  0.00  0.00    -0.270 OA
ATOM     22  H10 UNL     1      20.711   9.945  35.331  0.00  0.00    +0.149 HD
BRANCH  20  23
ATOM     23  C10 UNL     1      21.950   7.776  34.342  0.00  0.00    +0.078 A 
ATOM     24  C11 UNL     1      22.341   6.810  35.247  0.00  0.00    +0.054 A 
ATOM     25  C12 UNL     1      23.706   6.698  35.123  0.00  0.00    +0.196 A 
ATOM     26  O3  UNL     1      24.139   7.545  34.220  0.00  0.00    -0.467 OA
ATOM     27  C13 UNL     1      23.127   8.225  33.725  0.00  0.00    +0.120 A 
BRANCH  27  28
ATOM     28  C14 UNL     1      23.391   9.316  32.708  0.00  0.00    +0.056 C 
ATOM     29  C15 UNL     1      24.843   9.502  32.302  0.00  0.00    +0.012 C 
ATOM     30  C16 UNL     1      23.829   8.966  31.295  0.00  0.00    +0.012 C 
ENDBRANCH  27  28
ENDBRANCH  20  23
ENDBRANCH   6  19
TORSDOF 4
ENDMDL
MODEL 9
REMARK VINA RESULT:    -6.373      6.398      8.644
REMARK INTER + INTRA:          -8.707
REMARK INTER:                  -7.886
REMARK INTRA:                  -0.821
REMARK UNBOUND:                -0.844
REMARK  Name = /home/qwerty/github/datacon2025hack/step_04_hit_selection/docking/ligands/lig_478.pdb
REMARK  5 active torsions:
REMARK  status: ('A' for Active; 'I' for Inactive)
REMARK    1  A    between atoms: C1_1  and  C2_2
REMARK    2  A    between atoms: C4_4  and  C5_5
REMARK    3  A    between atoms: C8_10  and  N2_11
REMARK    4  A    between atoms: C9_12  and  C10_14
REMARK    5  A    between atoms: C13_18  and  C14_19
REMARK                            x       y       z     vdW  Elec       q    Type
REMARK                         _______ _______ _______ _____ _____    ______ ____
ROOT
ATOM      1  C5  UNL     1      20.879   2.260  31.981  0.00  0.00    +0.247 C 
ATOM      2  O1  UNL     1      20.279   1.464  32.754  0.00  0.00    -0.270 OA
ATOM      3  N1  UNL     1      21.182   3.594  32.425  0.00  0.00    -0.296 N 
ATOM      4  C6  UNL     1      21.636   4.663  31.548  0.00  0.00    +0.110 C 
ATOM      5  C7  UNL     1      21.489   5.943  32.359  0.00  0.00    +0.043 C 
ATOM      6  C8  UNL     1      21.440   5.489  33.823  0.00  0.00    +0.092 C 
ATOM      7  C17 UNL     1      20.919   4.053  33.778  0.00  0.00    +0.130 C 
ENDROOT
BRANCH   1  11
ATOM      8  C1  UNL     1      24.415   0.502  28.938  0.00  0.00    +0.065 C 
ATOM      9  C2  UNL     1      23.004   0.939  29.166  0.00  0.00    +0.040 A 
ATOM     10  C3  UNL     1      22.602   1.409  30.421  0.00  0.00    +0.036 A 
ATOM     11  C4  UNL     1      21.271   1.795  30.633  0.00  0.00    +0.048 A 
ATOM     12  C18 UNL     1      20.344   1.697  29.569  0.00  0.00    +0.013 A 
ATOM     13  C19 UNL     1      18.997   2.093  29.695  0.00  0.00    +0.011 A 
ATOM     14  C20 UNL     1      18.121   1.977  28.612  0.00  0.00    +0.001 A 
ATOM     15  C21 UNL     1      18.574   1.472  27.391  0.00  0.00    +0.002 A 
ATOM     16  C22 UNL     1      19.909   1.086  27.244  0.00  0.00    +0.028 A 
ATOM     17  C23 UNL     1      20.796   1.200  28.320  0.00  0.00    +0.072 A 
ATOM     18  N3  UNL     1      22.096   0.839  28.159  0.00  0.00    -0.252 NA
ENDBRANCH   1  11
BRANCH   6  19
ATOM     19  N2  UNL     1      20.582   6.350  34.644  0.00  0.00    -0.307 N 
ATOM     20  C9  UNL     1      21.055   6.958  35.855  0.00  0.00    +0.248 C 
ATOM     21  O2  UNL     1      22.233   6.745  36.247  0.00  0.00    -0.270 OA
ATOM     22  H10 UNL     1      19.615   6.582  34.320  0.00  0.00    +0.149 HD
BRANCH  20  23
ATOM     23  C10 UNL     1      20.133   7.764  36.676  0.00  0.00    +0.078 A 
ATOM     24  C11 UNL     1      20.192   9.142  36.735  0.00  0.00    +0.054 A 
ATOM     25  C12 UNL     1      19.171   9.534  37.567  0.00  0.00    +0.196 A 
ATOM     26  O3  UNL     1      18.531   8.478  38.010  0.00  0.00    -0.467 OA
ATOM     27  C13 UNL     1      19.073   7.387  37.514  0.00  0.00    +0.120 A 
BRANCH  27  28
ATOM     28  C14 UNL     1      18.544   6.033  37.939  0.00  0.00    +0.056 C 
ATOM     29  C15 UNL     1      17.039   5.852  37.836  0.00  0.00    +0.012 C 
ATOM     30  C16 UNL     1      17.969   5.071  36.912  0.00  0.00    +0.012 C 
ENDBRANCH  27  28
ENDBRANCH  20  23
ENDBRANCH   6  19
TORSDOF 4
ENDMDL
