REMARK  Name = /home/qwerty/github/datacon2025hack/step_04_hit_selection/docking/ligands/lig_144.pdb
REMARK  9 active torsions:
REMARK  status: ('A' for Active; 'I' for Inactive)
REMARK    1  A    between atoms: C1_1  and  C2_2
REMARK    2  A    between atoms: C2_2  and  C3_3
REMARK    3  A    between atoms: C3_3  and  C4_4
REMARK    4  A    between atoms: C3_3  and  N1_5
REMARK    5  A    between atoms: C5_6  and  C6_8
REMARK    6  A    between atoms: C6_8  and  C7_9
REMARK    7  A    between atoms: C7_9  and  N2_10
REMARK    8  A    between atoms: C8_11  and  C9_12
REMARK    9  A    between atoms: C16_24  and  C17_25
REMARK                            x       y       z     vdW  Elec       q    Type
REMARK                         _______ _______ _______ _____ _____    ______ ____
ROOT
ATOM      1  N2  UNL     1       0.212  -2.284  -0.908  0.00  0.00    -0.294 N 
ATOM      2  C8  UNL     1       0.246  -3.614  -0.646  0.00  0.00    +0.182 A 
ATOM      3  N4  UNL     1       1.444  -3.989  -0.159  0.00  0.00    -0.126 NA
ATOM      4  N5  UNL     1       2.193  -2.902  -0.076  0.00  0.00    -0.113 NA
ATOM      5  C13 UNL     1       1.450  -1.877  -0.535  0.00  0.00    +0.220 A 
ATOM      6  N6  UNL     1       1.930  -0.519  -0.556  0.00  0.00    -0.295 N 
ATOM      7  C14 UNL     1       1.784   0.315  -1.750  0.00  0.00    +0.136 C 
ATOM      8  C15 UNL     1       2.924   1.336  -1.819  0.00  0.00    +0.179 C 
ATOM      9  O2  UNL     1       2.969   2.158  -0.667  0.00  0.00    -0.369 OA
ATOM     10  C16 UNL     1       2.912   1.444   0.568  0.00  0.00    +0.166 C 
ATOM     11  C23 UNL     1       2.897  -0.101   0.461  0.00  0.00    +0.144 C 
ENDROOT
BRANCH  10  12
ATOM     12  C17 UNL     1       4.049   1.889   1.456  0.00  0.00    -0.017 A 
ATOM     13  C18 UNL     1       5.365   1.920   0.962  0.00  0.00    +0.009 A 
ATOM     14  C19 UNL     1       6.420   2.311   1.791  0.00  0.00    +0.039 A 
ATOM     15  C20 UNL     1       6.175   2.666   3.119  0.00  0.00    +0.123 A 
ATOM     16  F1  UNL     1       7.200   3.046   3.921  0.00  0.00    -0.205 F 
ATOM     17  C21 UNL     1       4.873   2.620   3.624  0.00  0.00    +0.039 A 
ATOM     18  C22 UNL     1       3.814   2.229   2.799  0.00  0.00    +0.009 A 
ENDBRANCH  10  12
BRANCH   2  19
ATOM     19  C9  UNL     1      -0.854  -4.574  -0.851  0.00  0.00    +0.084 A 
ATOM     20  C10 UNL     1      -0.686  -5.886  -1.251  0.00  0.00    +0.031 A 
ATOM     21  C11 UNL     1      -1.944  -6.456  -1.246  0.00  0.00    +0.020 A 
ATOM     22  C12 UNL     1      -2.819  -5.475  -0.829  0.00  0.00    +0.083 A 
ATOM     23  N3  UNL     1      -2.154  -4.334  -0.583  0.00  0.00    -0.358 N 
ATOM     24  H18 UNL     1      -2.573  -3.458  -0.205  0.00  0.00    +0.165 HD
ENDBRANCH   2  19
BRANCH   1  25
ATOM     25  C7  UNL     1      -0.896  -1.487  -1.446  0.00  0.00    +0.136 C 
BRANCH  25  26
ATOM     26  C6  UNL     1      -1.515  -0.613  -0.347  0.00  0.00    +0.117 C 
BRANCH  26  28
ATOM     27  N1  UNL     1      -2.887   1.522  -0.198  0.00  0.00    -0.313 N 
ATOM     28  C5  UNL     1      -2.596   0.290  -0.875  0.00  0.00    +0.215 C 
ATOM     29  O1  UNL     1      -3.280  -0.061  -1.875  0.00  0.00    -0.276 OA
ATOM     30  H10 UNL     1      -2.296   1.789   0.624  0.00  0.00    +0.149 HD
BRANCH  27  31
ATOM     31  C3  UNL     1      -3.960   2.423  -0.634  0.00  0.00    +0.070 C 
ATOM     32  C4  UNL     1      -3.747   3.830  -0.060  0.00  0.00    +0.028 C 
BRANCH  31  34
ATOM     33  C1  UNL     1      -5.520   1.563   1.230  0.00  0.00    +0.005 C 
ATOM     34  C2  UNL     1      -5.347   1.851  -0.263  0.00  0.00    +0.018 C 
ENDBRANCH  31  34
ENDBRANCH  27  31
ENDBRANCH  26  28
ENDBRANCH  25  26
ENDBRANCH   1  25
TORSDOF 7
