REMARK  Name = /home/qwerty/github/datacon2025hack/step_04_hit_selection/docking/ligands/lig_776.pdb
REMARK  6 active torsions:
REMARK  status: ('A' for Active; 'I' for Inactive)
REMARK    1  A    between atoms: C1_1  and  C2_2
REMARK    2  A    between atoms: C5_5  and  N1_6
REMARK    3  A    between atoms: C6_7  and  C7_9
REMARK    4  A    between atoms: N2_11  and  C8_12
REMARK    5  A    between atoms: C8_12  and  C9_13
REMARK    6  A    between atoms: C8_12  and  C15_19
REMARK                            x       y       z     vdW  Elec       q    Type
REMARK                         _______ _______ _______ _____ _____    ______ ____
ROOT
ATOM      1  C8  UNL     1      -1.171  -1.491   1.388  0.00  0.00    +0.134 C 
ENDROOT
BRANCH   1   2
ATOM      2  C15 UNL     1      -1.994  -0.235   1.181  0.00  0.00    -0.022 A 
ATOM      3  C16 UNL     1      -2.310   0.594   2.270  0.00  0.00    +0.009 A 
ATOM      4  C17 UNL     1      -3.074   1.749   2.082  0.00  0.00    +0.046 A 
ATOM      5  C18 UNL     1      -3.528   2.091   0.806  0.00  0.00    +0.124 A 
ATOM      6  C19 UNL     1      -3.199   1.283  -0.299  0.00  0.00    -0.005 A 
ATOM      7  C20 UNL     1      -2.446   0.117  -0.104  0.00  0.00    +0.013 A 
ATOM      8  C21 UNL     1      -3.711   1.637  -1.673  0.00  0.00    +0.042 C 
ATOM      9  C22 UNL     1      -4.048   3.130  -1.783  0.00  0.00    +0.046 C 
ATOM     10  C23 UNL     1      -4.929   3.560  -0.608  0.00  0.00    +0.229 C 
ATOM     11  O3  UNL     1      -4.289   3.253   0.630  0.00  0.00    -0.492 OA
ENDBRANCH   1   2
BRANCH   1  12
ATOM     12  C9  UNL     1      -1.935  -2.762   1.025  0.00  0.00    -0.023 A 
ATOM     13  C10 UNL     1      -3.331  -2.850   1.216  0.00  0.00    +0.006 A 
ATOM     14  C11 UNL     1      -4.015  -4.038   0.939  0.00  0.00    +0.000 A 
ATOM     15  C12 UNL     1      -3.316  -5.163   0.502  0.00  0.00    +0.000 A 
ATOM     16  C13 UNL     1      -1.929  -5.109   0.354  0.00  0.00    +0.000 A 
ATOM     17  C14 UNL     1      -1.240  -3.924   0.628  0.00  0.00    +0.006 A 
ENDBRANCH   1  12
BRANCH   1  20
ATOM     18  C7  UNL     1       1.229  -0.695   1.115  0.00  0.00    +0.300 C 
ATOM     19  O2  UNL     1       1.233  -0.246   2.293  0.00  0.00    -0.265 OA
ATOM     20  N2  UNL     1       0.066  -1.369   0.607  0.00  0.00    -0.297 N 
ATOM     21  H7  UNL     1       0.040  -1.628  -0.406  0.00  0.00    +0.150 HD
BRANCH  18  23
ATOM     22  N1  UNL     1       3.591   0.142   0.784  0.00  0.00    -0.276 N 
ATOM     23  C6  UNL     1       2.421  -0.514   0.265  0.00  0.00    +0.303 C 
ATOM     24  O1  UNL     1       2.421  -0.971  -0.911  0.00  0.00    -0.265 OA
ATOM     25  H6  UNL     1       3.693   0.218   1.821  0.00  0.00    +0.155 HD
BRANCH  22  30
ATOM     26  C1  UNL     1       7.931   2.052  -2.416  0.00  0.00    +0.065 C 
ATOM     27  C2  UNL     1       6.809   1.531  -1.577  0.00  0.00    +0.038 A 
ATOM     28  C3  UNL     1       7.050   1.074  -0.276  0.00  0.00    +0.025 A 
ATOM     29  C4  UNL     1       5.983   0.613   0.497  0.00  0.00    +0.026 A 
ATOM     30  C5  UNL     1       4.685   0.598  -0.031  0.00  0.00    +0.052 A 
ATOM     31  C24 UNL     1       4.483   1.094  -1.330  0.00  0.00    +0.134 A 
ATOM     32  N3  UNL     1       5.538   1.542  -2.062  0.00  0.00    -0.258 NA
ENDBRANCH  22  30
ENDBRANCH  18  23
ENDBRANCH   1  20
TORSDOF 5
