REMARK  Name = /home/qwerty/github/datacon2025hack/step_04_hit_selection/docking/ligands/lig_440.pdb
REMARK  5 active torsions:
REMARK  status: ('A' for Active; 'I' for Inactive)
REMARK    1  A    between atoms: C1_1  and  C2_2
REMARK    2  A    between atoms: C4_4  and  C5_5
REMARK    3  A    between atoms: C9_11  and  N2_12
REMARK    4  A    between atoms: C10_13  and  C11_15
REMARK    5  A    between atoms: N3_25  and  C20_26
REMARK                            x       y       z     vdW  Elec       q    Type
REMARK                         _______ _______ _______ _____ _____    ______ ____
ROOT
ATOM      1  C5  UNL     1      -3.139  -1.217   0.497  0.00  0.00    +0.265 C 
ATOM      2  O1  UNL     1      -3.593  -2.218   1.114  0.00  0.00    -0.268 OA
ATOM      3  N1  UNL     1      -1.763  -0.834   0.680  0.00  0.00    -0.295 N 
ATOM      4  C6  UNL     1      -0.741  -1.864   0.916  0.00  0.00    +0.108 C 
ATOM      5  C7  UNL     1      -0.035  -1.652   2.266  0.00  0.00    +0.021 C 
ATOM      6  C8  UNL     1       0.003  -0.179   2.720  0.00  0.00    +0.025 C 
ATOM      7  C9  UNL     1      -0.082   0.811   1.544  0.00  0.00    +0.091 C 
ATOM      8  C19 UNL     1      -1.406   0.592   0.780  0.00  0.00    +0.130 C 
ENDROOT
BRANCH   1  12
ATOM      9  C1  UNL     1      -4.974   1.399  -3.385  0.00  0.00    +0.067 C 
ATOM     10  C2  UNL     1      -4.827   0.687  -2.083  0.00  0.00    +0.061 A 
ATOM     11  C3  UNL     1      -3.649   0.181  -1.568  0.00  0.00    +0.057 A 
ATOM     12  C4  UNL     1      -4.033  -0.460  -0.406  0.00  0.00    +0.123 A 
ATOM     13  N3  UNL     1      -5.374  -0.339  -0.271  0.00  0.00    -0.262 N 
ATOM     14  C20 UNL     1      -6.206  -0.887   0.795  0.00  0.00    +0.173 C 
ATOM     15  N4  UNL     1      -5.863   0.347  -1.292  0.00  0.00    -0.176 NA
ENDBRANCH   1  12
BRANCH   7  16
ATOM     16  N2  UNL     1       1.077   0.671   0.653  0.00  0.00    -0.304 N 
ATOM     17  C10 UNL     1       2.396   1.087   1.037  0.00  0.00    +0.280 C 
ATOM     18  O2  UNL     1       2.581   1.679   2.135  0.00  0.00    -0.267 OA
ATOM     19  H12 UNL     1       0.939   0.310  -0.318  0.00  0.00    +0.149 HD
BRANCH  17  20
ATOM     20  C11 UNL     1       3.540   0.830   0.149  0.00  0.00    +0.190 A 
ATOM     21  C12 UNL     1       4.862   1.185   0.409  0.00  0.00    +0.063 A 
ATOM     22  C13 UNL     1       5.555   0.737  -0.692  0.00  0.00    +0.021 A 
ATOM     23  C14 UNL     1       6.911   0.800  -1.005  0.00  0.00    +0.011 A 
ATOM     24  C15 UNL     1       7.327   0.240  -2.227  0.00  0.00    +0.001 A 
ATOM     25  C16 UNL     1       6.387  -0.362  -3.095  0.00  0.00    +0.004 A 
ATOM     26  C17 UNL     1       5.024  -0.409  -2.747  0.00  0.00    +0.047 A 
ATOM     27  C18 UNL     1       4.644   0.154  -1.531  0.00  0.00    +0.136 A 
ATOM     28  O3  UNL     1       3.441   0.215  -1.017  0.00  0.00    -0.450 OA
ENDBRANCH  17  20
ENDBRANCH   7  16
TORSDOF 3
