MODEL 1
REMARK VINA RESULT:    -6.984      0.000      0.000
REMARK INTER + INTRA:          -8.799
REMARK INTER:                  -8.209
REMARK INTRA:                  -0.590
REMARK UNBOUND:                -0.590
REMARK  Name = /home/qwerty/github/datacon2025hack/step_04_hit_selection/docking/ligands/lig_537.pdb
REMARK  4 active torsions:
REMARK  status: ('A' for Active; 'I' for Inactive)
REMARK    1  A    between atoms: C1_1  and  C2_2
REMARK    2  A    between atoms: N1_4  and  C3_5
REMARK    3  A    between atoms: C7_10  and  N2_11
REMARK    4  A    between atoms: C13_19  and  C14_20
REMARK                            x       y       z     vdW  Elec       q    Type
REMARK                         _______ _______ _______ _____ _____    ______ ____
ROOT
ATOM      1  N2  UNL     1      18.253   1.610  25.426  0.00  0.00    -0.267 N 
ATOM      2  C8  UNL     1      19.606   1.673  25.903  0.00  0.00    +0.307 C 
ATOM      3  O2  UNL     1      20.242   0.608  26.134  0.00  0.00    -0.252 OA
ATOM      4  N3  UNL     1      20.234   2.953  26.118  0.00  0.00    -0.278 N 
ATOM      5  C9  UNL     1      20.019   3.993  25.096  0.00  0.00    +0.110 C 
ATOM      6  C10 UNL     1      21.128   5.061  25.116  0.00  0.00    +0.019 C 
ATOM      7  C11 UNL     1      22.524   4.423  25.248  0.00  0.00    +0.004 C 
ATOM      8  C12 UNL     1      22.631   3.371  26.382  0.00  0.00    +0.027 C 
ATOM      9  C13 UNL     1      21.295   3.174  27.122  0.00  0.00    +0.109 C 
ATOM     10  H7  UNL     1      17.650   2.453  25.555  0.00  0.00    +0.156 HD
ENDROOT
BRANCH   1  16
ATOM     11  C3  UNL     1      17.193  -1.178  23.163  0.00  0.00    +0.035 A 
ATOM     12  C4  UNL     1      16.454  -1.978  24.051  0.00  0.00    +0.026 A 
ATOM     13  C5  UNL     1      16.334  -1.615  25.394  0.00  0.00    +0.042 A 
ATOM     14  C6  UNL     1      16.927  -0.439  25.862  0.00  0.00    +0.145 A 
ATOM     15  F1  UNL     1      16.847  -0.141  27.184  0.00  0.00    -0.204 F 
ATOM     16  C7  UNL     1      17.630   0.397  24.975  0.00  0.00    +0.072 A 
ATOM     17  C19 UNL     1      17.768   0.013  23.633  0.00  0.00    +0.049 A 
BRANCH  11  21
ATOM     18  C1  UNL     1      17.005  -1.140  19.287  0.00  0.00    +0.109 C 
ATOM     19  C2  UNL     1      16.652  -0.835  20.706  0.00  0.00    +0.214 C 
ATOM     20  O1  UNL     1      15.706  -0.037  20.949  0.00  0.00    -0.276 OA
ATOM     21  N1  UNL     1      17.324  -1.522  21.772  0.00  0.00    -0.286 N 
ATOM     22  H4  UNL     1      17.877  -2.375  21.527  0.00  0.00    +0.155 HD
ENDBRANCH  11  21
ENDBRANCH   1  16
BRANCH   9  23
ATOM     23  C14 UNL     1      21.300   2.137  28.242  0.00  0.00    -0.009 A 
ATOM     24  C15 UNL     1      22.385   1.248  28.329  0.00  0.00    +0.008 A 
ATOM     25  C16 UNL     1      22.439   0.296  29.347  0.00  0.00    +0.020 A 
ATOM     26  C17 UNL     1      21.406   0.235  30.281  0.00  0.00    +0.111 A 
ATOM     27  N4  UNL     1      20.360   1.097  30.194  0.00  0.00    -0.263 NA
ATOM     28  C18 UNL     1      20.281   2.035  29.211  0.00  0.00    +0.116 A 
ENDBRANCH   9  23
TORSDOF 3
ENDMDL
MODEL 2
REMARK VINA RESULT:    -6.797      5.971     10.936
REMARK INTER + INTRA:          -8.579
REMARK INTER:                  -7.989
REMARK INTRA:                  -0.590
REMARK UNBOUND:                -0.590
REMARK  Name = /home/qwerty/github/datacon2025hack/step_04_hit_selection/docking/ligands/lig_537.pdb
REMARK  4 active torsions:
REMARK  status: ('A' for Active; 'I' for Inactive)
REMARK    1  A    between atoms: C1_1  and  C2_2
REMARK    2  A    between atoms: N1_4  and  C3_5
REMARK    3  A    between atoms: C7_10  and  N2_11
REMARK    4  A    between atoms: C13_19  and  C14_20
REMARK                            x       y       z     vdW  Elec       q    Type
REMARK                         _______ _______ _______ _____ _____    ______ ____
ROOT
ATOM      1  N2  UNL     1      20.630   4.607  32.528  0.00  0.00    -0.267 N 
ATOM      2  C8  UNL     1      20.631   3.205  32.219  0.00  0.00    +0.307 C 
ATOM      3  O2  UNL     1      21.725   2.597  32.057  0.00  0.00    -0.252 OA
ATOM      4  N3  UNL     1      19.383   2.495  32.094  0.00  0.00    -0.278 N 
ATOM      5  C9  UNL     1      18.337   2.781  33.092  0.00  0.00    +0.110 C 
ATOM      6  C10 UNL     1      17.325   1.629  33.216  0.00  0.00    +0.019 C 
ATOM      7  C11 UNL     1      18.030   0.259  33.248  0.00  0.00    +0.004 C 
ATOM      8  C12 UNL     1      19.081   0.066  32.125  0.00  0.00    +0.027 C 
ATOM      9  C13 UNL     1      19.210   1.311  31.226  0.00  0.00    +0.109 C 
ATOM     10  H7  UNL     1      19.758   5.149  32.335  0.00  0.00    +0.156 HD
ENDROOT
BRANCH   1  16
ATOM     11  C3  UNL     1      23.398   6.025  34.612  0.00  0.00    +0.035 A 
ATOM     12  C4  UNL     1      24.133   6.727  33.641  0.00  0.00    +0.026 A 
ATOM     13  C5  UNL     1      23.733   6.706  32.303  0.00  0.00    +0.042 A 
ATOM     14  C6  UNL     1      22.585   6.006  31.921  0.00  0.00    +0.145 A 
ATOM     15  F1  UNL     1      22.253   5.950  30.607  0.00  0.00    -0.204 F 
ATOM     16  C7  UNL     1      21.813   5.338  32.890  0.00  0.00    +0.072 A 
ATOM     17  C19 UNL     1      22.234   5.342  34.227  0.00  0.00    +0.049 A 
BRANCH  11  21
ATOM     18  C1  UNL     1      23.429   6.545  38.459  0.00  0.00    +0.109 C 
ATOM     19  C2  UNL     1      23.069   6.752  37.023  0.00  0.00    +0.214 C 
ATOM     20  O1  UNL     1      22.200   7.614  36.723  0.00  0.00    -0.276 OA
ATOM     21  N1  UNL     1      23.780   6.040  35.999  0.00  0.00    -0.286 N 
ATOM     22  H4  UNL     1      24.675   5.571  36.267  0.00  0.00    +0.155 HD
ENDBRANCH  11  21
ENDBRANCH   1  16
BRANCH   9  23
ATOM     23  C14 UNL     1      20.242   1.220  30.106  0.00  0.00    -0.009 A 
ATOM     24  C15 UNL     1      21.189   0.183  30.148  0.00  0.00    +0.008 A 
ATOM     25  C16 UNL     1      22.139   0.052  29.135  0.00  0.00    +0.020 A 
ATOM     26  C17 UNL     1      22.141   0.960  28.077  0.00  0.00    +0.111 A 
ATOM     27  N4  UNL     1      21.222   1.960  28.040  0.00  0.00    -0.263 NA
ATOM     28  C18 UNL     1      20.285   2.112  29.015  0.00  0.00    +0.116 A 
ENDBRANCH   9  23
TORSDOF 3
ENDMDL
MODEL 3
REMARK VINA RESULT:    -6.733     14.285     16.953
REMARK INTER + INTRA:          -8.504
REMARK INTER:                  -7.873
REMARK INTRA:                  -0.631
REMARK UNBOUND:                -0.590
REMARK  Name = /home/qwerty/github/datacon2025hack/step_04_hit_selection/docking/ligands/lig_537.pdb
REMARK  4 active torsions:
REMARK  status: ('A' for Active; 'I' for Inactive)
REMARK    1  A    between atoms: C1_1  and  C2_2
REMARK    2  A    between atoms: N1_4  and  C3_5
REMARK    3  A    between atoms: C7_10  and  N2_11
REMARK    4  A    between atoms: C13_19  and  C14_20
REMARK                            x       y       z     vdW  Elec       q    Type
REMARK                         _______ _______ _______ _____ _____    ______ ____
ROOT
ATOM      1  N2  UNL     1      13.009  12.627  31.445  0.00  0.00    -0.267 N 
ATOM      2  C8  UNL     1      12.401  13.270  30.314  0.00  0.00    +0.307 C 
ATOM      3  O2  UNL     1      11.317  13.900  30.457  0.00  0.00    -0.252 OA
ATOM      4  N3  UNL     1      13.029  13.193  29.019  0.00  0.00    -0.278 N 
ATOM      5  C9  UNL     1      14.491  13.372  28.964  0.00  0.00    +0.110 C 
ATOM      6  C10 UNL     1      14.966  13.825  27.571  0.00  0.00    +0.019 C 
ATOM      7  C11 UNL     1      14.058  14.930  26.997  0.00  0.00    +0.004 C 
ATOM      8  C12 UNL     1      12.544  14.607  27.081  0.00  0.00    +0.027 C 
ATOM      9  C13 UNL     1      12.274  13.246  27.750  0.00  0.00    +0.109 C 
ATOM     10  H7  UNL     1      13.694  11.860  31.261  0.00  0.00    +0.156 HD
ENDROOT
BRANCH   1  16
ATOM     11  C3  UNL     1      12.660  14.184  34.832  0.00  0.00    +0.035 A 
ATOM     12  C4  UNL     1      11.748  13.304  35.439  0.00  0.00    +0.026 A 
ATOM     13  C5  UNL     1      11.229  12.223  34.724  0.00  0.00    +0.042 A 
ATOM     14  C6  UNL     1      11.630  11.991  33.405  0.00  0.00    +0.145 A 
ATOM     15  F1  UNL     1      11.065  10.970  32.713  0.00  0.00    -0.204 F 
ATOM     16  C7  UNL     1      12.579  12.836  32.800  0.00  0.00    +0.072 A 
ATOM     17  C19 UNL     1      13.076  13.935  33.515  0.00  0.00    +0.049 A 
BRANCH  11  21
ATOM     18  C1  UNL     1      15.055  16.518  36.802  0.00  0.00    +0.109 C 
ATOM     19  C2  UNL     1      14.467  15.257  36.258  0.00  0.00    +0.214 C 
ATOM     20  O1  UNL     1      15.033  14.157  36.501  0.00  0.00    -0.276 OA
ATOM     21  N1  UNL     1      13.220  15.299  35.549  0.00  0.00    -0.286 N 
ATOM     22  H4  UNL     1      12.646  16.169  35.628  0.00  0.00    +0.155 HD
ENDBRANCH  11  21
ENDBRANCH   1  16
BRANCH   9  23
ATOM     23  C14 UNL     1      10.806  12.856  27.898  0.00  0.00    -0.009 A 
ATOM     24  C15 UNL     1       9.826  13.847  27.718  0.00  0.00    +0.008 A 
ATOM     25  C16 UNL     1       8.472  13.530  27.825  0.00  0.00    +0.020 A 
ATOM     26  C17 UNL     1       8.098  12.219  28.113  0.00  0.00    +0.111 A 
ATOM     27  N4  UNL     1       9.048  11.264  28.285  0.00  0.00    -0.263 NA
ATOM     28  C18 UNL     1      10.376  11.545  28.186  0.00  0.00    +0.116 A 
ENDBRANCH   9  23
TORSDOF 3
ENDMDL
MODEL 4
REMARK VINA RESULT:    -6.582     12.902     14.231
REMARK INTER + INTRA:          -8.327
REMARK INTER:                  -7.705
REMARK INTRA:                  -0.622
REMARK UNBOUND:                -0.590
REMARK  Name = /home/qwerty/github/datacon2025hack/step_04_hit_selection/docking/ligands/lig_537.pdb
REMARK  4 active torsions:
REMARK  status: ('A' for Active; 'I' for Inactive)
REMARK    1  A    between atoms: C1_1  and  C2_2
REMARK    2  A    between atoms: N1_4  and  C3_5
REMARK    3  A    between atoms: C7_10  and  N2_11
REMARK    4  A    between atoms: C13_19  and  C14_20
REMARK                            x       y       z     vdW  Elec       q    Type
REMARK                         _______ _______ _______ _____ _____    ______ ____
ROOT
ATOM      1  N2  UNL     1       9.541   8.665  25.787  0.00  0.00    -0.267 N 
ATOM      2  C8  UNL     1       8.807   9.294  26.848  0.00  0.00    +0.307 C 
ATOM      3  O2  UNL     1       8.133  10.336  26.616  0.00  0.00    -0.252 OA
ATOM      4  N3  UNL     1       8.841   8.734  28.176  0.00  0.00    -0.278 N 
ATOM      5  C9  UNL     1       8.730   7.270  28.297  0.00  0.00    +0.110 C 
ATOM      6  C10 UNL     1       8.222   6.841  29.685  0.00  0.00    +0.019 C 
ATOM      7  C11 UNL     1       7.044   7.717  30.151  0.00  0.00    +0.004 C 
ATOM      8  C12 UNL     1       7.297   9.240  30.007  0.00  0.00    +0.027 C 
ATOM      9  C13 UNL     1       8.679   9.547  29.399  0.00  0.00    +0.109 C 
ATOM     10  H7  UNL     1      10.329   8.031  26.047  0.00  0.00    +0.156 HD
ENDROOT
BRANCH   1  16
ATOM     11  C3  UNL     1       8.219   8.702  22.284  0.00  0.00    +0.035 A 
ATOM     12  C4  UNL     1       9.031   9.690  21.701  0.00  0.00    +0.026 A 
ATOM     13  C5  UNL     1       9.987  10.360  22.468  0.00  0.00    +0.042 A 
ATOM     14  C6  UNL     1      10.161  10.037  23.816  0.00  0.00    +0.145 A 
ATOM     15  F1  UNL     1      11.053  10.745  24.554  0.00  0.00    -0.204 F 
ATOM     16  C7  UNL     1       9.388   9.018  24.402  0.00  0.00    +0.072 A 
ATOM     17  C19 UNL     1       8.412   8.367  23.633  0.00  0.00    +0.049 A 
BRANCH  11  21
ATOM     18  C1  UNL     1       6.310   5.957  20.314  0.00  0.00    +0.109 C 
ATOM     19  C2  UNL     1       7.454   6.700  20.923  0.00  0.00    +0.214 C 
ATOM     20  O1  UNL     1       8.618   6.221  20.835  0.00  0.00    -0.276 OA
ATOM     21  N1  UNL     1       7.234   7.988  21.515  0.00  0.00    -0.286 N 
ATOM     22  H4  UNL     1       6.331   8.471  21.305  0.00  0.00    +0.155 HD
ENDBRANCH  11  21
ENDBRANCH   1  16
BRANCH   9  23
ATOM     23  C14 UNL     1       9.005  11.024  29.198  0.00  0.00    -0.009 A 
ATOM     24  C15 UNL     1       7.976  11.967  29.356  0.00  0.00    +0.008 A 
ATOM     25  C16 UNL     1       8.234  13.329  29.199  0.00  0.00    +0.020 A 
ATOM     26  C17 UNL     1       9.525  13.748  28.884  0.00  0.00    +0.111 A 
ATOM     27  N4  UNL     1      10.518  12.833  28.733  0.00  0.00    -0.263 NA
ATOM     28  C18 UNL     1      10.294  11.499  28.881  0.00  0.00    +0.116 A 
ENDBRANCH   9  23
TORSDOF 3
ENDMDL
MODEL 5
REMARK VINA RESULT:    -6.333     10.325     11.907
REMARK INTER + INTRA:          -8.034
REMARK INTER:                  -7.555
REMARK INTRA:                  -0.479
REMARK UNBOUND:                -0.590
REMARK  Name = /home/qwerty/github/datacon2025hack/step_04_hit_selection/docking/ligands/lig_537.pdb
REMARK  4 active torsions:
REMARK  status: ('A' for Active; 'I' for Inactive)
REMARK    1  A    between atoms: C1_1  and  C2_2
REMARK    2  A    between atoms: N1_4  and  C3_5
REMARK    3  A    between atoms: C7_10  and  N2_11
REMARK    4  A    between atoms: C13_19  and  C14_20
REMARK                            x       y       z     vdW  Elec       q    Type
REMARK                         _______ _______ _______ _____ _____    ______ ____
ROOT
ATOM      1  N2  UNL     1       9.347   6.298  21.409  0.00  0.00    -0.267 N 
ATOM      2  C8  UNL     1       9.978   7.410  22.061  0.00  0.00    +0.307 C 
ATOM      3  O2  UNL     1      10.408   7.286  23.242  0.00  0.00    -0.252 OA
ATOM      4  N3  UNL     1      10.118   8.666  21.367  0.00  0.00    -0.278 N 
ATOM      5  C9  UNL     1      10.537   8.617  19.956  0.00  0.00    +0.110 C 
ATOM      6  C10 UNL     1      11.182   9.938  19.497  0.00  0.00    +0.019 C 
ATOM      7  C11 UNL     1      12.169  10.479  20.549  0.00  0.00    +0.004 C 
ATOM      8  C12 UNL     1      11.597  10.515  21.990  0.00  0.00    +0.027 C 
ATOM      9  C13 UNL     1      10.157   9.971  22.060  0.00  0.00    +0.109 C 
ATOM     10  H7  UNL     1       8.721   6.499  20.597  0.00  0.00    +0.156 HD
ENDROOT
BRANCH   1  16
ATOM     11  C3  UNL     1      10.406   2.754  21.993  0.00  0.00    +0.035 A 
ATOM     12  C4  UNL     1       9.458   2.345  22.946  0.00  0.00    +0.026 A 
ATOM     13  C5  UNL     1       8.496   3.242  23.414  0.00  0.00    +0.042 A 
ATOM     14  C6  UNL     1       8.452   4.549  22.922  0.00  0.00    +0.145 A 
ATOM     15  F1  UNL     1       7.547   5.419  23.438  0.00  0.00    -0.204 F 
ATOM     16  C7  UNL     1       9.365   4.960  21.933  0.00  0.00    +0.072 A 
ATOM     17  C19 UNL     1      10.344   4.061  21.485  0.00  0.00    +0.049 A 
BRANCH  11  21
ATOM     18  C1  UNL     1      13.682   0.744  21.456  0.00  0.00    +0.109 C 
ATOM     19  C2  UNL     1      12.776   1.848  21.894  0.00  0.00    +0.214 C 
ATOM     20  O1  UNL     1      13.252   2.813  22.551  0.00  0.00    -0.276 OA
ATOM     21  N1  UNL     1      11.401   1.848  21.484  0.00  0.00    -0.286 N 
ATOM     22  H4  UNL     1      11.126   1.202  20.708  0.00  0.00    +0.155 HD
ENDBRANCH  11  21
ENDBRANCH   1  16
BRANCH   9  23
ATOM     23  C14 UNL     1       9.521   9.946  23.446  0.00  0.00    -0.009 A 
ATOM     24  C15 UNL     1       8.129   9.786  23.543  0.00  0.00    +0.008 A 
ATOM     25  C16 UNL     1       7.507   9.739  24.791  0.00  0.00    +0.020 A 
ATOM     26  C17 UNL     1       8.282   9.850  25.945  0.00  0.00    +0.111 A 
ATOM     27  N4  UNL     1       9.628  10.003  25.846  0.00  0.00    -0.263 NA
ATOM     28  C18 UNL     1      10.260  10.052  24.642  0.00  0.00    +0.116 A 
ENDBRANCH   9  23
TORSDOF 3
ENDMDL
MODEL 6
REMARK VINA RESULT:    -6.283     14.409     16.947
REMARK INTER + INTRA:          -7.975
REMARK INTER:                  -7.685
REMARK INTRA:                  -0.290
REMARK UNBOUND:                -0.590
REMARK  Name = /home/qwerty/github/datacon2025hack/step_04_hit_selection/docking/ligands/lig_537.pdb
REMARK  4 active torsions:
REMARK  status: ('A' for Active; 'I' for Inactive)
REMARK    1  A    between atoms: C1_1  and  C2_2
REMARK    2  A    between atoms: N1_4  and  C3_5
REMARK    3  A    between atoms: C7_10  and  N2_11
REMARK    4  A    between atoms: C13_19  and  C14_20
REMARK                            x       y       z     vdW  Elec       q    Type
REMARK                         _______ _______ _______ _____ _____    ______ ____
ROOT
ATOM      1  N2  UNL     1      10.867  14.067  31.659  0.00  0.00    -0.267 N 
ATOM      2  C8  UNL     1      11.102  13.346  30.439  0.00  0.00    +0.307 C 
ATOM      3  O2  UNL     1      12.117  12.603  30.333  0.00  0.00    -0.252 OA
ATOM      4  N3  UNL     1      10.179  13.473  29.339  0.00  0.00    -0.278 N 
ATOM      5  C9  UNL     1       8.740  13.455  29.656  0.00  0.00    +0.110 C 
ATOM      6  C10 UNL     1       7.886  13.037  28.446  0.00  0.00    +0.019 C 
ATOM      7  C11 UNL     1       8.502  11.832  27.709  0.00  0.00    +0.004 C 
ATOM      8  C12 UNL     1      10.013  11.989  27.400  0.00  0.00    +0.027 C 
ATOM      9  C13 UNL     1      10.581  13.321  27.926  0.00  0.00    +0.109 C 
ATOM     10  H7  UNL     1      10.240  14.901  31.620  0.00  0.00    +0.156 HD
ENDROOT
BRANCH   1  16
ATOM     11  C3  UNL     1      12.154  12.335  34.719  0.00  0.00    +0.035 A 
ATOM     12  C4  UNL     1      13.032  13.308  35.228  0.00  0.00    +0.026 A 
ATOM     13  C5  UNL     1      13.219  14.513  34.548  0.00  0.00    +0.042 A 
ATOM     14  C6  UNL     1      12.518  14.774  33.368  0.00  0.00    +0.145 A 
ATOM     15  F1  UNL     1      12.764  15.926  32.695  0.00  0.00    -0.204 F 
ATOM     16  C7  UNL     1      11.600  13.830  32.871  0.00  0.00    +0.072 A 
ATOM     17  C19 UNL     1      11.436  12.611  33.545  0.00  0.00    +0.049 A 
BRANCH  11  21
ATOM     18  C1  UNL     1      10.828   9.601  37.133  0.00  0.00    +0.109 C 
ATOM     19  C2  UNL     1      11.164  10.959  36.609  0.00  0.00    +0.214 C 
ATOM     20  O1  UNL     1      10.837  11.977  37.279  0.00  0.00    -0.276 OA
ATOM     21  N1  UNL     1      11.933  11.090  35.404  0.00  0.00    -0.286 N 
ATOM     22  H4  UNL     1      12.428  10.240  35.051  0.00  0.00    +0.155 HD
ENDBRANCH  11  21
ENDBRANCH   1  16
BRANCH   9  23
ATOM     23  C14 UNL     1      12.071  13.550  27.687  0.00  0.00    -0.009 A 
ATOM     24  C15 UNL     1      12.556  14.869  27.688  0.00  0.00    +0.008 A 
ATOM     25  C16 UNL     1      13.913  15.123  27.492  0.00  0.00    +0.020 A 
ATOM     26  C17 UNL     1      14.788  14.055  27.297  0.00  0.00    +0.111 A 
ATOM     27  N4  UNL     1      14.315  12.782  27.299  0.00  0.00    -0.263 NA
ATOM     28  C18 UNL     1      12.996  12.505  27.487  0.00  0.00    +0.116 A 
ENDBRANCH   9  23
TORSDOF 3
ENDMDL
MODEL 7
REMARK VINA RESULT:    -6.215      7.346     10.192
REMARK INTER + INTRA:          -7.895
REMARK INTER:                  -7.199
REMARK INTRA:                  -0.696
REMARK UNBOUND:                -0.590
REMARK  Name = /home/qwerty/github/datacon2025hack/step_04_hit_selection/docking/ligands/lig_537.pdb
REMARK  4 active torsions:
REMARK  status: ('A' for Active; 'I' for Inactive)
REMARK    1  A    between atoms: C1_1  and  C2_2
REMARK    2  A    between atoms: N1_4  and  C3_5
REMARK    3  A    between atoms: C7_10  and  N2_11
REMARK    4  A    between atoms: C13_19  and  C14_20
REMARK                            x       y       z     vdW  Elec       q    Type
REMARK                         _______ _______ _______ _____ _____    ______ ____
ROOT
ATOM      1  N2  UNL     1      11.400   2.927  20.565  0.00  0.00    -0.267 N 
ATOM      2  C8  UNL     1      10.829   3.547  21.727  0.00  0.00    +0.307 C 
ATOM      3  O2  UNL     1      11.558   3.809  22.724  0.00  0.00    -0.252 OA
ATOM      4  N3  UNL     1       9.423   3.867  21.753  0.00  0.00    -0.278 N 
ATOM      5  C9  UNL     1       8.842   4.463  20.537  0.00  0.00    +0.110 C 
ATOM      6  C10 UNL     1       7.557   5.256  20.839  0.00  0.00    +0.019 C 
ATOM      7  C11 UNL     1       7.719   6.135  22.094  0.00  0.00    +0.004 C 
ATOM      8  C12 UNL     1       8.306   5.384  23.317  0.00  0.00    +0.027 C 
ATOM      9  C13 UNL     1       8.628   3.911  22.998  0.00  0.00    +0.109 C 
ATOM     10  H7  UNL     1      10.757   2.428  19.911  0.00  0.00    +0.156 HD
ENDROOT
BRANCH   1  16
ATOM     11  C3  UNL     1      14.804   1.369  20.478  0.00  0.00    +0.035 A 
ATOM     12  C4  UNL     1      15.571   2.428  19.963  0.00  0.00    +0.026 A 
ATOM     13  C5  UNL     1      14.962   3.637  19.619  0.00  0.00    +0.042 A 
ATOM     14  C6  UNL     1      13.588   3.813  19.805  0.00  0.00    +0.145 A 
ATOM     15  F1  UNL     1      13.011   4.974  19.405  0.00  0.00    -0.204 F 
ATOM     16  C7  UNL     1      12.815   2.778  20.364  0.00  0.00    +0.072 A 
ATOM     17  C19 UNL     1      13.429   1.558  20.684  0.00  0.00    +0.049 A 
BRANCH  11  21
ATOM     18  C1  UNL     1      16.367  -1.551  22.501  0.00  0.00    +0.109 C 
ATOM     19  C2  UNL     1      15.944  -0.161  22.154  0.00  0.00    +0.214 C 
ATOM     20  O1  UNL     1      16.141   0.770  22.982  0.00  0.00    -0.276 OA
ATOM     21  N1  UNL     1      15.407   0.117  20.852  0.00  0.00    -0.286 N 
ATOM     22  H4  UNL     1      15.536  -0.607  20.109  0.00  0.00    +0.155 HD
ENDBRANCH  11  21
ENDBRANCH   1  16
BRANCH   9  23
ATOM     23  C14 UNL     1       9.235   3.100  24.138  0.00  0.00    -0.009 A 
ATOM     24  C15 UNL     1       9.735   3.785  25.258  0.00  0.00    +0.008 A 
ATOM     25  C16 UNL     1      10.282   3.081  26.332  0.00  0.00    +0.020 A 
ATOM     26  C17 UNL     1      10.327   1.689  26.284  0.00  0.00    +0.111 A 
ATOM     27  N4  UNL     1       9.841   1.030  25.200  0.00  0.00    -0.263 NA
ATOM     28  C18 UNL     1       9.302   1.691  24.139  0.00  0.00    +0.116 A 
ENDBRANCH   9  23
TORSDOF 3
ENDMDL
MODEL 8
REMARK VINA RESULT:    -6.147      2.288      7.566
REMARK INTER + INTRA:          -7.816
REMARK INTER:                  -7.318
REMARK INTRA:                  -0.498
REMARK UNBOUND:                -0.590
REMARK  Name = /home/qwerty/github/datacon2025hack/step_04_hit_selection/docking/ligands/lig_537.pdb
REMARK  4 active torsions:
REMARK  status: ('A' for Active; 'I' for Inactive)
REMARK    1  A    between atoms: C1_1  and  C2_2
REMARK    2  A    between atoms: N1_4  and  C3_5
REMARK    3  A    between atoms: C7_10  and  N2_11
REMARK    4  A    between atoms: C13_19  and  C14_20
REMARK                            x       y       z     vdW  Elec       q    Type
REMARK                         _______ _______ _______ _____ _____    ______ ____
ROOT
ATOM      1  N2  UNL     1      17.838   1.545  25.726  0.00  0.00    -0.267 N 
ATOM      2  C8  UNL     1      17.334   0.434  24.969  0.00  0.00    +0.307 C 
ATOM      3  O2  UNL     1      18.070  -0.129  24.112  0.00  0.00    -0.252 OA
ATOM      4  N3  UNL     1      15.989  -0.036  25.189  0.00  0.00    -0.278 N 
ATOM      5  C9  UNL     1      15.526  -0.137  26.584  0.00  0.00    +0.110 C 
ATOM      6  C10 UNL     1      14.362  -1.132  26.737  0.00  0.00    +0.019 C 
ATOM      7  C11 UNL     1      14.619  -2.427  25.942  0.00  0.00    +0.004 C 
ATOM      8  C12 UNL     1      15.065  -2.188  24.477  0.00  0.00    +0.027 C 
ATOM      9  C13 UNL     1      15.180  -0.690  24.139  0.00  0.00    +0.109 C 
ATOM     10  H7  UNL     1      17.144   2.189  26.168  0.00  0.00    +0.156 HD
ENDROOT
BRANCH   1  16
ATOM     11  C3  UNL     1      21.048   3.173  24.697  0.00  0.00    +0.035 A 
ATOM     12  C4  UNL     1      21.908   2.743  25.723  0.00  0.00    +0.026 A 
ATOM     13  C5  UNL     1      21.422   1.947  26.762  0.00  0.00    +0.042 A 
ATOM     14  C6  UNL     1      20.082   1.550  26.779  0.00  0.00    +0.145 A 
ATOM     15  F1  UNL     1      19.621   0.828  27.832  0.00  0.00    -0.204 F 
ATOM     16  C7  UNL     1      19.221   1.934  25.735  0.00  0.00    +0.072 A 
ATOM     17  C19 UNL     1      19.709   2.754  24.708  0.00  0.00    +0.049 A 
BRANCH  11  21
ATOM     18  C1  UNL     1      22.325   6.144  22.551  0.00  0.00    +0.109 C 
ATOM     19  C2  UNL     1      21.636   5.414  23.658  0.00  0.00    +0.214 C 
ATOM     20  O1  UNL     1      21.088   6.072  24.584  0.00  0.00    -0.276 OA
ATOM     21  N1  UNL     1      21.524   3.984  23.608  0.00  0.00    -0.286 N 
ATOM     22  H4  UNL     1      21.724   3.513  22.697  0.00  0.00    +0.155 HD
ENDBRANCH  11  21
ENDBRANCH   1  16
BRANCH   9  23
ATOM     23  C14 UNL     1      15.639  -0.359  22.722  0.00  0.00    -0.009 A 
ATOM     24  C15 UNL     1      15.445   0.946  22.240  0.00  0.00    +0.008 A 
ATOM     25  C16 UNL     1      15.866   1.297  20.957  0.00  0.00    +0.020 A 
ATOM     26  C17 UNL     1      16.482   0.338  20.155  0.00  0.00    +0.111 A 
ATOM     27  N4  UNL     1      16.668  -0.923  20.624  0.00  0.00    -0.263 NA
ATOM     28  C18 UNL     1      16.268  -1.292  21.872  0.00  0.00    +0.116 A 
ENDBRANCH   9  23
TORSDOF 3
ENDMDL
MODEL 9
REMARK VINA RESULT:    -6.084     10.148     12.110
REMARK INTER + INTRA:          -7.742
REMARK INTER:                  -7.048
REMARK INTRA:                  -0.694
REMARK UNBOUND:                -0.590
REMARK  Name = /home/qwerty/github/datacon2025hack/step_04_hit_selection/docking/ligands/lig_537.pdb
REMARK  4 active torsions:
REMARK  status: ('A' for Active; 'I' for Inactive)
REMARK    1  A    between atoms: C1_1  and  C2_2
REMARK    2  A    between atoms: N1_4  and  C3_5
REMARK    3  A    between atoms: C7_10  and  N2_11
REMARK    4  A    between atoms: C13_19  and  C14_20
REMARK                            x       y       z     vdW  Elec       q    Type
REMARK                         _______ _______ _______ _____ _____    ______ ____
ROOT
ATOM      1  N2  UNL     1      10.378   6.155  23.627  0.00  0.00    -0.267 N 
ATOM      2  C8  UNL     1       9.819   7.309  22.980  0.00  0.00    +0.307 C 
ATOM      3  O2  UNL     1       9.692   7.325  21.725  0.00  0.00    -0.252 OA
ATOM      4  N3  UNL     1       9.406   8.444  23.766  0.00  0.00    -0.278 N 
ATOM      5  C9  UNL     1       8.674   8.173  25.015  0.00  0.00    +0.110 C 
ATOM      6  C10 UNL     1       7.822   9.376  25.459  0.00  0.00    +0.019 C 
ATOM      7  C11 UNL     1       7.063  10.000  24.271  0.00  0.00    +0.004 C 
ATOM      8  C12 UNL     1       7.952  10.270  23.030  0.00  0.00    +0.027 C 
ATOM      9  C13 UNL     1       9.411   9.829  23.249  0.00  0.00    +0.109 C 
ATOM     10  H7  UNL     1      10.775   6.277  24.586  0.00  0.00    +0.156 HD
ENDROOT
BRANCH   1  16
ATOM     11  C3  UNL     1      12.163   3.373  21.869  0.00  0.00    +0.035 A 
ATOM     12  C4  UNL     1      11.110   2.465  21.665  0.00  0.00    +0.026 A 
ATOM     13  C5  UNL     1       9.827   2.757  22.133  0.00  0.00    +0.042 A 
ATOM     14  C6  UNL     1       9.573   3.966  22.787  0.00  0.00    +0.145 A 
ATOM     15  F1  UNL     1       8.332   4.198  23.286  0.00  0.00    -0.204 F 
ATOM     16  C7  UNL     1      10.607   4.905  22.957  0.00  0.00    +0.072 A 
ATOM     17  C19 UNL     1      11.898   4.594  22.507  0.00  0.00    +0.049 A 
BRANCH  11  21
ATOM     18  C1  UNL     1      15.464   3.425  19.828  0.00  0.00    +0.109 C 
ATOM     19  C2  UNL     1      14.013   3.595  20.144  0.00  0.00    +0.214 C 
ATOM     20  O1  UNL     1      13.247   4.095  19.277  0.00  0.00    -0.276 OA
ATOM     21  N1  UNL     1      13.492   3.103  21.388  0.00  0.00    -0.286 N 
ATOM     22  H4  UNL     1      14.087   2.441  21.936  0.00  0.00    +0.155 HD
ENDBRANCH  11  21
ENDBRANCH   1  16
BRANCH   9  23
ATOM     23  C14 UNL     1      10.355  10.035  22.068  0.00  0.00    -0.009 A 
ATOM     24  C15 UNL     1       9.800  10.243  20.794  0.00  0.00    +0.008 A 
ATOM     25  C16 UNL     1      10.625  10.454  19.689  0.00  0.00    +0.020 A 
ATOM     26  C17 UNL     1      12.008  10.459  19.860  0.00  0.00    +0.111 A 
ATOM     27  N4  UNL     1      12.540  10.259  21.094  0.00  0.00    -0.263 NA
ATOM     28  C18 UNL     1      11.759  10.050  22.189  0.00  0.00    +0.116 A 
ENDBRANCH   9  23
TORSDOF 3
ENDMDL
