MODEL 1
REMARK VINA RESULT:    -7.206      0.000      0.000
REMARK INTER + INTRA:          -9.911
REMARK INTER:                  -9.102
REMARK INTRA:                  -0.809
REMARK UNBOUND:                -0.809
REMARK  Name = /home/qwerty/github/datacon2025hack/step_04_hit_selection/docking/ligands/lig_27.pdb
REMARK  5 active torsions:
REMARK  status: ('A' for Active; 'I' for Inactive)
REMARK    1  A    between atoms: C1_2  and  C8_10
REMARK    2  A    between atoms: N1_3  and  C2_4
REMARK    3  A    between atoms: C11_13  and  N2_14
REMARK    4  A    between atoms: C14_17  and  O2_18
REMARK    5  A    between atoms: C19_25  and  C20_26
REMARK                            x       y       z     vdW  Elec       q    Type
REMARK                         _______ _______ _______ _____ _____    ______ ____
ROOT
ATOM      1  N2  UNL     1      20.490   2.559  26.489  0.00  0.00    -0.298 N 
ATOM      2  C12 UNL     1      19.600   2.922  27.553  0.00  0.00    +0.149 A 
ATOM      3  C13 UNL     1      18.681   3.961  27.540  0.00  0.00    +0.112 A 
ATOM      4  C14 UNL     1      18.035   3.827  28.749  0.00  0.00    +0.219 A 
ATOM      5  N3  UNL     1      18.539   2.772  29.420  0.00  0.00    -0.174 N 
ATOM      6  C15 UNL     1      18.138   2.295  30.710  0.00  0.00    +0.198 A 
ATOM      7  N4  UNL     1      17.132   2.847  31.432  0.00  0.00    -0.221 NA
ATOM      8  C16 UNL     1      16.975   2.198  32.613  0.00  0.00    +0.081 A 
ATOM      9  C17 UNL     1      16.024   2.532  33.574  0.00  0.00    +0.029 A 
ATOM     10  C18 UNL     1      15.969   1.783  34.762  0.00  0.00    +0.010 A 
ATOM     11  C19 UNL     1      16.862   0.705  34.985  0.00  0.00    -0.017 A 
ATOM     12  C25 UNL     1      17.816   0.383  33.994  0.00  0.00    +0.025 A 
ATOM     13  C26 UNL     1      17.846   1.142  32.828  0.00  0.00    +0.042 A 
ATOM     14  S1  UNL     1      18.867   0.987  31.506  0.00  0.00    -0.048 S 
ATOM     15  N6  UNL     1      19.488   2.206  28.690  0.00  0.00    -0.146 NA
ATOM     16  H9  UNL     1      20.829   1.572  26.461  0.00  0.00    +0.154 HD
ENDROOT
BRANCH   1  20
ATOM     17  C8  UNL     1      21.665   5.294  23.443  0.00  0.00    +0.037 A 
ATOM     18  C9  UNL     1      22.328   5.263  24.682  0.00  0.00    +0.015 A 
ATOM     19  C10 UNL     1      21.941   4.358  25.672  0.00  0.00    +0.024 A 
ATOM     20  C11 UNL     1      20.900   3.448  25.437  0.00  0.00    +0.032 A 
ATOM     21  C27 UNL     1      20.231   3.478  24.202  0.00  0.00    +0.024 A 
ATOM     22  C28 UNL     1      20.617   4.385  23.211  0.00  0.00    +0.015 A 
BRANCH  17  24
ATOM     23  O1  UNL     1      21.488   7.387  22.341  0.00  0.00    -0.270 OA
ATOM     24  C1  UNL     1      22.072   6.270  22.404  0.00  0.00    +0.248 C 
ATOM     25  N1  UNL     1      23.079   5.935  21.433  0.00  0.00    -0.282 N 
ATOM     26  H1  UNL     1      23.245   4.923  21.228  0.00  0.00    +0.155 HD
BRANCH  25  27
ATOM     27  C2  UNL     1      23.749   6.901  20.605  0.00  0.00    +0.034 A 
ATOM     28  C3  UNL     1      24.851   7.602  21.119  0.00  0.00    +0.023 A 
ATOM     29  C4  UNL     1      25.507   8.562  20.341  0.00  0.00    +0.002 A 
ATOM     30  C5  UNL     1      25.058   8.840  19.047  0.00  0.00    +0.000 A 
ATOM     31  C6  UNL     1      23.949   8.164  18.532  0.00  0.00    +0.002 A 
ATOM     32  C7  UNL     1      23.290   7.203  19.308  0.00  0.00    +0.023 A 
ENDBRANCH  25  27
ENDBRANCH  17  24
ENDBRANCH   1  20
BRANCH  11  33
ATOM     33  C20 UNL     1      16.802  -0.074  36.249  0.00  0.00    -0.015 A 
ATOM     34  C21 UNL     1      16.256  -1.369  36.269  0.00  0.00    +0.028 A 
ATOM     35  C22 UNL     1      16.213  -2.084  37.467  0.00  0.00    +0.111 A 
ATOM     36  N5  UNL     1      16.698  -1.531  38.610  0.00  0.00    -0.263 NA
ATOM     37  C23 UNL     1      17.234  -0.282  38.624  0.00  0.00    +0.111 A 
ATOM     38  C24 UNL     1      17.295   0.469  37.448  0.00  0.00    +0.028 A 
ENDBRANCH  11  33
BRANCH   4  39
ATOM     39  O2  UNL     1      17.009   4.644  29.216  0.00  0.00    -0.492 OA
ATOM     40  H11 UNL     1      16.073   4.279  29.345  0.00  0.00    +0.294 HD
ENDBRANCH   4  39
TORSDOF 5
ENDMDL
MODEL 2
REMARK VINA RESULT:    -6.880      8.575     11.900
REMARK INTER + INTRA:          -9.499
REMARK INTER:                  -8.694
REMARK INTRA:                  -0.804
REMARK UNBOUND:                -0.809
REMARK  Name = /home/qwerty/github/datacon2025hack/step_04_hit_selection/docking/ligands/lig_27.pdb
REMARK  5 active torsions:
REMARK  status: ('A' for Active; 'I' for Inactive)
REMARK    1  A    between atoms: C1_2  and  C8_10
REMARK    2  A    between atoms: N1_3  and  C2_4
REMARK    3  A    between atoms: C11_13  and  N2_14
REMARK    4  A    between atoms: C14_17  and  O2_18
REMARK    5  A    between atoms: C19_25  and  C20_26
REMARK                            x       y       z     vdW  Elec       q    Type
REMARK                         _______ _______ _______ _____ _____    ______ ____
ROOT
ATOM      1  N2  UNL     1      15.258   4.978  27.109  0.00  0.00    -0.298 N 
ATOM      2  C12 UNL     1      15.145   6.406  27.033  0.00  0.00    +0.149 A 
ATOM      3  C13 UNL     1      16.114   7.285  26.573  0.00  0.00    +0.112 A 
ATOM      4  C14 UNL     1      15.483   8.508  26.629  0.00  0.00    +0.219 A 
ATOM      5  N3  UNL     1      14.225   8.350  27.084  0.00  0.00    -0.174 N 
ATOM      6  C15 UNL     1      13.242   9.374  27.283  0.00  0.00    +0.198 A 
ATOM      7  N4  UNL     1      13.454  10.681  26.990  0.00  0.00    -0.221 NA
ATOM      8  C16 UNL     1      12.356  11.423  27.285  0.00  0.00    +0.081 A 
ATOM      9  C17 UNL     1      12.265  12.801  27.097  0.00  0.00    +0.029 A 
ATOM     10  C18 UNL     1      11.072  13.455  27.449  0.00  0.00    +0.010 A 
ATOM     11  C19 UNL     1       9.976  12.733  27.985  0.00  0.00    -0.017 A 
ATOM     12  C25 UNL     1      10.092  11.335  28.161  0.00  0.00    +0.025 A 
ATOM     13  C26 UNL     1      11.285  10.716  27.804  0.00  0.00    +0.042 A 
ATOM     14  S1  UNL     1      11.693   9.092  27.913  0.00  0.00    -0.048 S 
ATOM     15  N6  UNL     1      14.006   7.067  27.321  0.00  0.00    -0.146 NA
ATOM     16  H9  UNL     1      14.372   4.424  27.093  0.00  0.00    +0.154 HD
ENDROOT
BRANCH   1  20
ATOM     17  C8  UNL     1      18.890   2.757  27.220  0.00  0.00    +0.037 A 
ATOM     18  C9  UNL     1      18.187   2.933  26.015  0.00  0.00    +0.015 A 
ATOM     19  C10 UNL     1      17.000   3.670  25.987  0.00  0.00    +0.024 A 
ATOM     20  C11 UNL     1      16.504   4.265  27.155  0.00  0.00    +0.032 A 
ATOM     21  C27 UNL     1      17.201   4.088  28.362  0.00  0.00    +0.024 A 
ATOM     22  C28 UNL     1      18.387   3.350  28.393  0.00  0.00    +0.015 A 
BRANCH  17  24
ATOM     23  O1  UNL     1      20.820   1.844  26.188  0.00  0.00    -0.270 OA
ATOM     24  C1  UNL     1      20.139   1.959  27.243  0.00  0.00    +0.248 C 
ATOM     25  N1  UNL     1      20.548   1.268  28.437  0.00  0.00    -0.282 N 
ATOM     26  H1  UNL     1      19.812   1.024  29.139  0.00  0.00    +0.155 HD
BRANCH  25  27
ATOM     27  C2  UNL     1      21.870   0.742  28.647  0.00  0.00    +0.034 A 
ATOM     28  C3  UNL     1      22.063  -0.649  28.669  0.00  0.00    +0.023 A 
ATOM     29  C4  UNL     1      23.335  -1.185  28.893  0.00  0.00    +0.002 A 
ATOM     30  C5  UNL     1      24.424  -0.336  29.111  0.00  0.00    +0.000 A 
ATOM     31  C6  UNL     1      24.240   1.049  29.113  0.00  0.00    +0.002 A 
ATOM     32  C7  UNL     1      22.969   1.589  28.890  0.00  0.00    +0.023 A 
ENDBRANCH  25  27
ENDBRANCH  17  24
ENDBRANCH   1  20
BRANCH  11  33
ATOM     33  C20 UNL     1       8.723  13.435  28.362  0.00  0.00    -0.015 A 
ATOM     34  C21 UNL     1       8.278  13.445  29.695  0.00  0.00    +0.028 A 
ATOM     35  C22 UNL     1       7.100  14.116  30.026  0.00  0.00    +0.111 A 
ATOM     36  N5  UNL     1       6.386  14.758  29.065  0.00  0.00    -0.263 NA
ATOM     37  C23 UNL     1       6.789  14.769  27.767  0.00  0.00    +0.111 A 
ATOM     38  C24 UNL     1       7.961  14.109  27.391  0.00  0.00    +0.028 A 
ENDBRANCH  11  33
BRANCH   4  39
ATOM     39  O2  UNL     1      16.046   9.728  26.264  0.00  0.00    -0.492 OA
ATOM     40  H11 UNL     1      15.550  10.367  25.654  0.00  0.00    +0.294 HD
ENDBRANCH   4  39
TORSDOF 5
ENDMDL
MODEL 3
REMARK VINA RESULT:    -6.796      8.381     11.837
REMARK INTER + INTRA:          -9.392
REMARK INTER:                  -8.666
REMARK INTRA:                  -0.726
REMARK UNBOUND:                -0.809
REMARK  Name = /home/qwerty/github/datacon2025hack/step_04_hit_selection/docking/ligands/lig_27.pdb
REMARK  5 active torsions:
REMARK  status: ('A' for Active; 'I' for Inactive)
REMARK    1  A    between atoms: C1_2  and  C8_10
REMARK    2  A    between atoms: N1_3  and  C2_4
REMARK    3  A    between atoms: C11_13  and  N2_14
REMARK    4  A    between atoms: C14_17  and  O2_18
REMARK    5  A    between atoms: C19_25  and  C20_26
REMARK                            x       y       z     vdW  Elec       q    Type
REMARK                         _______ _______ _______ _____ _____    ______ ____
ROOT
ATOM      1  N2  UNL     1      17.441   7.164  30.578  0.00  0.00    -0.298 N 
ATOM      2  C12 UNL     1      16.008   7.122  30.625  0.00  0.00    +0.149 A 
ATOM      3  C13 UNL     1      15.231   6.075  31.096  0.00  0.00    +0.112 A 
ATOM      4  C14 UNL     1      13.947   6.566  31.000  0.00  0.00    +0.219 A 
ATOM      5  N3  UNL     1      13.977   7.822  30.513  0.00  0.00    -0.174 N 
ATOM      6  C15 UNL     1      12.857   8.682  30.268  0.00  0.00    +0.198 A 
ATOM      7  N4  UNL     1      11.575   8.336  30.543  0.00  0.00    -0.221 NA
ATOM      8  C16 UNL     1      10.723   9.338  30.205  0.00  0.00    +0.081 A 
ATOM      9  C17 UNL     1       9.340   9.282  30.365  0.00  0.00    +0.029 A 
ATOM     10  C18 UNL     1       8.568  10.387  29.969  0.00  0.00    +0.010 A 
ATOM     11  C19 UNL     1       9.178  11.542  29.416  0.00  0.00    -0.017 A 
ATOM     12  C25 UNL     1      10.583  11.575  29.268  0.00  0.00    +0.025 A 
ATOM     13  C26 UNL     1      11.321  10.466  29.669  0.00  0.00    +0.042 A 
ATOM     14  S1  UNL     1      12.981  10.235  29.600  0.00  0.00    -0.048 S 
ATOM     15  N6  UNL     1      15.233   8.174  30.293  0.00  0.00    -0.146 NA
ATOM     16  H9  UNL     1      17.895   8.105  30.579  0.00  0.00    +0.154 HD
ENDROOT
BRANCH   1  20
ATOM     17  C8  UNL     1      20.049   3.797  30.577  0.00  0.00    +0.037 A 
ATOM     18  C9  UNL     1      20.000   4.673  31.675  0.00  0.00    +0.015 A 
ATOM     19  C10 UNL     1      19.136   5.771  31.669  0.00  0.00    +0.024 A 
ATOM     20  C11 UNL     1      18.286   6.002  30.579  0.00  0.00    +0.032 A 
ATOM     21  C27 UNL     1      18.334   5.132  29.477  0.00  0.00    +0.024 A 
ATOM     22  C28 UNL     1      19.200   4.034  29.480  0.00  0.00    +0.015 A 
BRANCH  17  24
ATOM     23  O1  UNL     1      21.000   1.870  31.579  0.00  0.00    -0.270 OA
ATOM     24  C1  UNL     1      20.981   2.644  30.584  0.00  0.00    +0.248 C 
ATOM     25  N1  UNL     1      21.903   2.437  29.499  0.00  0.00    -0.282 N 
ATOM     26  H1  UNL     1      22.171   3.265  28.918  0.00  0.00    +0.155 HD
BRANCH  25  27
ATOM     27  C2  UNL     1      22.608   1.205  29.269  0.00  0.00    +0.034 A 
ATOM     28  C3  UNL     1      21.885   0.050  28.933  0.00  0.00    +0.023 A 
ATOM     29  C4  UNL     1      22.545  -1.166  28.725  0.00  0.00    +0.002 A 
ATOM     30  C5  UNL     1      23.934  -1.240  28.864  0.00  0.00    +0.000 A 
ATOM     31  C6  UNL     1      24.662  -0.102  29.220  0.00  0.00    +0.002 A 
ATOM     32  C7  UNL     1      24.005   1.116  29.429  0.00  0.00    +0.023 A 
ENDBRANCH  25  27
ENDBRANCH  17  24
ENDBRANCH   1  20
BRANCH  11  33
ATOM     33  C20 UNL     1       8.351  12.700  28.991  0.00  0.00    -0.015 A 
ATOM     34  C21 UNL     1       8.338  13.120  27.650  0.00  0.00    +0.028 A 
ATOM     35  C22 UNL     1       7.549  14.209  27.274  0.00  0.00    +0.111 A 
ATOM     36  N5  UNL     1       6.797  14.860  28.199  0.00  0.00    -0.263 NA
ATOM     37  C23 UNL     1       6.786  14.478  29.503  0.00  0.00    +0.111 A 
ATOM     38  C24 UNL     1       7.561  13.395  29.923  0.00  0.00    +0.028 A 
ENDBRANCH  11  33
BRANCH   4  39
ATOM     39  O2  UNL     1      12.788   5.882  31.358  0.00  0.00    -0.492 OA
ATOM     40  H11 UNL     1      11.928   6.013  30.840  0.00  0.00    +0.294 HD
ENDBRANCH   4  39
TORSDOF 5
ENDMDL
MODEL 4
REMARK VINA RESULT:    -6.736     10.399     11.281
REMARK INTER + INTRA:          -9.317
REMARK INTER:                  -8.501
REMARK INTRA:                  -0.816
REMARK UNBOUND:                -0.809
REMARK  Name = /home/qwerty/github/datacon2025hack/step_04_hit_selection/docking/ligands/lig_27.pdb
REMARK  5 active torsions:
REMARK  status: ('A' for Active; 'I' for Inactive)
REMARK    1  A    between atoms: C1_2  and  C8_10
REMARK    2  A    between atoms: N1_3  and  C2_4
REMARK    3  A    between atoms: C11_13  and  N2_14
REMARK    4  A    between atoms: C14_17  and  O2_18
REMARK    5  A    between atoms: C19_25  and  C20_26
REMARK                            x       y       z     vdW  Elec       q    Type
REMARK                         _______ _______ _______ _____ _____    ______ ____
ROOT
ATOM      1  N2  UNL     1      19.356  12.208  27.269  0.00  0.00    -0.298 N 
ATOM      2  C12 UNL     1      18.237  13.000  27.692  0.00  0.00    +0.149 A 
ATOM      3  C13 UNL     1      17.674  14.063  27.003  0.00  0.00    +0.112 A 
ATOM      4  C14 UNL     1      16.597  14.413  27.787  0.00  0.00    +0.219 A 
ATOM      5  N3  UNL     1      16.531  13.599  28.859  0.00  0.00    -0.174 N 
ATOM      6  C15 UNL     1      15.558  13.628  29.910  0.00  0.00    +0.198 A 
ATOM      7  N4  UNL     1      14.514  14.493  29.939  0.00  0.00    -0.221 NA
ATOM      8  C16 UNL     1      13.759  14.300  31.050  0.00  0.00    +0.081 A 
ATOM      9  C17 UNL     1      12.619  15.036  31.364  0.00  0.00    +0.029 A 
ATOM     10  C18 UNL     1      11.929  14.740  32.552  0.00  0.00    +0.010 A 
ATOM     11  C19 UNL     1      12.378  13.713  33.420  0.00  0.00    -0.017 A 
ATOM     12  C25 UNL     1      13.535  12.978  33.077  0.00  0.00    +0.025 A 
ATOM     13  C26 UNL     1      14.197  13.294  31.895  0.00  0.00    +0.042 A 
ATOM     14  S1  UNL     1      15.583  12.596  31.255  0.00  0.00    -0.048 S 
ATOM     15  N6  UNL     1      17.523  12.724  28.802  0.00  0.00    -0.146 NA
ATOM     16  H9  UNL     1      19.432  11.240  27.652  0.00  0.00    +0.154 HD
ENDROOT
BRANCH   1  20
ATOM     17  C8  UNL     1      22.242  13.619  24.474  0.00  0.00    +0.037 A 
ATOM     18  C9  UNL     1      22.345  13.935  25.840  0.00  0.00    +0.015 A 
ATOM     19  C10 UNL     1      21.397  13.461  26.750  0.00  0.00    +0.024 A 
ATOM     20  C11 UNL     1      20.343  12.643  26.320  0.00  0.00    +0.032 A 
ATOM     21  C27 UNL     1      20.234  12.329  24.956  0.00  0.00    +0.024 A 
ATOM     22  C28 UNL     1      21.180  12.804  24.042  0.00  0.00    +0.015 A 
BRANCH  17  24
ATOM     23  O1  UNL     1      24.449  13.788  23.621  0.00  0.00    -0.270 OA
ATOM     24  C1  UNL     1      23.243  14.140  23.511  0.00  0.00    +0.248 C 
ATOM     25  N1  UNL     1      22.863  15.087  22.496  0.00  0.00    -0.282 N 
ATOM     26  H1  UNL     1      22.013  15.671  22.664  0.00  0.00    +0.155 HD
BRANCH  25  27
ATOM     27  C2  UNL     1      23.672  15.401  21.349  0.00  0.00    +0.034 A 
ATOM     28  C3  UNL     1      23.481  14.686  20.155  0.00  0.00    +0.023 A 
ATOM     29  C4  UNL     1      24.269  14.957  19.032  0.00  0.00    +0.002 A 
ATOM     30  C5  UNL     1      25.264  15.937  19.095  0.00  0.00    +0.000 A 
ATOM     31  C6  UNL     1      25.478  16.639  20.284  0.00  0.00    +0.002 A 
ATOM     32  C7  UNL     1      24.692  16.370  21.410  0.00  0.00    +0.023 A 
ENDBRANCH  25  27
ENDBRANCH  17  24
ENDBRANCH   1  20
BRANCH  11  33
ATOM     33  C20 UNL     1      11.645  13.416  34.678  0.00  0.00    -0.015 A 
ATOM     34  C21 UNL     1      10.537  14.189  35.064  0.00  0.00    +0.028 A 
ATOM     35  C22 UNL     1       9.862  13.888  36.248  0.00  0.00    +0.111 A 
ATOM     36  N5  UNL     1      10.273  12.852  37.024  0.00  0.00    -0.263 NA
ATOM     37  C23 UNL     1      11.340  12.084  36.679  0.00  0.00    +0.111 A 
ATOM     38  C24 UNL     1      12.045  12.350  35.503  0.00  0.00    +0.028 A 
ENDBRANCH  11  33
BRANCH   4  39
ATOM     39  O2  UNL     1      15.698  15.442  27.519  0.00  0.00    -0.492 OA
ATOM     40  H11 UNL     1      15.003  15.716  28.204  0.00  0.00    +0.294 HD
ENDBRANCH   4  39
TORSDOF 5
ENDMDL
MODEL 5
REMARK VINA RESULT:    -6.695      8.253     11.388
REMARK INTER + INTRA:          -9.265
REMARK INTER:                  -8.603
REMARK INTRA:                  -0.662
REMARK UNBOUND:                -0.809
REMARK  Name = /home/qwerty/github/datacon2025hack/step_04_hit_selection/docking/ligands/lig_27.pdb
REMARK  5 active torsions:
REMARK  status: ('A' for Active; 'I' for Inactive)
REMARK    1  A    between atoms: C1_2  and  C8_10
REMARK    2  A    between atoms: N1_3  and  C2_4
REMARK    3  A    between atoms: C11_13  and  N2_14
REMARK    4  A    between atoms: C14_17  and  O2_18
REMARK    5  A    between atoms: C19_25  and  C20_26
REMARK                            x       y       z     vdW  Elec       q    Type
REMARK                         _______ _______ _______ _____ _____    ______ ____
ROOT
ATOM      1  N2  UNL     1      18.253   7.828  28.357  0.00  0.00    -0.298 N 
ATOM      2  C12 UNL     1      16.893   7.719  28.799  0.00  0.00    +0.149 A 
ATOM      3  C13 UNL     1      16.348   6.679  29.538  0.00  0.00    +0.112 A 
ATOM      4  C14 UNL     1      15.055   7.096  29.764  0.00  0.00    +0.219 A 
ATOM      5  N3  UNL     1      14.862   8.305  29.201  0.00  0.00    -0.174 N 
ATOM      6  C15 UNL     1      13.659   9.083  29.214  0.00  0.00    +0.198 A 
ATOM      7  N4  UNL     1      12.527   8.699  29.854  0.00  0.00    -0.221 NA
ATOM      8  C16 UNL     1      11.546   9.624  29.694  0.00  0.00    +0.081 A 
ATOM      9  C17 UNL     1      10.265   9.514  30.231  0.00  0.00    +0.029 A 
ATOM     10  C18 UNL     1       9.338  10.540  29.986  0.00  0.00    +0.010 A 
ATOM     11  C19 UNL     1       9.691  11.671  29.207  0.00  0.00    -0.017 A 
ATOM     12  C25 UNL     1      10.998  11.762  28.676  0.00  0.00    +0.025 A 
ATOM     13  C26 UNL     1      11.894  10.730  28.936  0.00  0.00    +0.042 A 
ATOM     14  S1  UNL     1      13.487  10.577  28.430  0.00  0.00    -0.048 S 
ATOM     15  N6  UNL     1      15.984   8.698  28.620  0.00  0.00    -0.146 NA
ATOM     16  H9  UNL     1      18.622   8.787  28.168  0.00  0.00    +0.154 HD
ENDROOT
BRANCH   1  20
ATOM     17  C8  UNL     1      20.805   4.446  27.925  0.00  0.00    +0.037 A 
ATOM     18  C9  UNL     1      19.868   4.776  26.930  0.00  0.00    +0.015 A 
ATOM     19  C10 UNL     1      19.040   5.892  27.077  0.00  0.00    +0.024 A 
ATOM     20  C11 UNL     1      19.148   6.714  28.208  0.00  0.00    +0.032 A 
ATOM     21  C27 UNL     1      20.080   6.386  29.206  0.00  0.00    +0.024 A 
ATOM     22  C28 UNL     1      20.908   5.269  29.062  0.00  0.00    +0.015 A 
BRANCH  17  24
ATOM     23  O1  UNL     1      22.540   3.231  26.857  0.00  0.00    -0.270 OA
ATOM     24  C1  UNL     1      21.668   3.250  27.769  0.00  0.00    +0.248 C 
ATOM     25  N1  UNL     1      21.480   2.094  28.603  0.00  0.00    -0.282 N 
ATOM     26  H1  UNL     1      20.541   1.951  29.039  0.00  0.00    +0.155 HD
BRANCH  25  27
ATOM     27  C2  UNL     1      22.445   1.036  28.738  0.00  0.00    +0.034 A 
ATOM     28  C3  UNL     1      22.027  -0.299  28.609  0.00  0.00    +0.023 A 
ATOM     29  C4  UNL     1      22.942  -1.346  28.757  0.00  0.00    +0.002 A 
ATOM     30  C5  UNL     1      24.281  -1.070  29.048  0.00  0.00    +0.000 A 
ATOM     31  C6  UNL     1      24.704   0.253  29.200  0.00  0.00    +0.002 A 
ATOM     32  C7  UNL     1      23.791   1.304  29.054  0.00  0.00    +0.023 A 
ENDBRANCH  25  27
ENDBRANCH  17  24
ENDBRANCH   1  20
BRANCH  11  33
ATOM     33  C20 UNL     1       8.700  12.746  28.946  0.00  0.00    -0.015 A 
ATOM     34  C21 UNL     1       7.926  13.278  29.991  0.00  0.00    +0.028 A 
ATOM     35  C22 UNL     1       7.003  14.291  29.722  0.00  0.00    +0.111 A 
ATOM     36  N5  UNL     1       6.854  14.761  28.456  0.00  0.00    -0.263 NA
ATOM     37  C23 UNL     1       7.587  14.268  27.423  0.00  0.00    +0.111 A 
ATOM     38  C24 UNL     1       8.521  13.254  27.647  0.00  0.00    +0.028 A 
ENDBRANCH  11  33
BRANCH   4  39
ATOM     39  O2  UNL     1      14.088   6.389  30.474  0.00  0.00    -0.492 OA
ATOM     40  H11 UNL     1      14.350   5.638  31.102  0.00  0.00    +0.294 HD
ENDBRANCH   4  39
TORSDOF 5
ENDMDL
MODEL 6
REMARK VINA RESULT:    -6.687      8.379     12.064
REMARK INTER + INTRA:          -9.255
REMARK INTER:                  -8.438
REMARK INTRA:                  -0.817
REMARK UNBOUND:                -0.809
REMARK  Name = /home/qwerty/github/datacon2025hack/step_04_hit_selection/docking/ligands/lig_27.pdb
REMARK  5 active torsions:
REMARK  status: ('A' for Active; 'I' for Inactive)
REMARK    1  A    between atoms: C1_2  and  C8_10
REMARK    2  A    between atoms: N1_3  and  C2_4
REMARK    3  A    between atoms: C11_13  and  N2_14
REMARK    4  A    between atoms: C14_17  and  O2_18
REMARK    5  A    between atoms: C19_25  and  C20_26
REMARK                            x       y       z     vdW  Elec       q    Type
REMARK                         _______ _______ _______ _____ _____    ______ ____
ROOT
ATOM      1  N2  UNL     1      14.859   4.526  29.518  0.00  0.00    -0.298 N 
ATOM      2  C12 UNL     1      14.772   5.857  28.989  0.00  0.00    +0.149 A 
ATOM      3  C13 UNL     1      15.715   6.489  28.192  0.00  0.00    +0.112 A 
ATOM      4  C14 UNL     1      15.119   7.695  27.895  0.00  0.00    +0.219 A 
ATOM      5  N3  UNL     1      13.904   7.757  28.474  0.00  0.00    -0.174 N 
ATOM      6  C15 UNL     1      12.967   8.839  28.405  0.00  0.00    +0.198 A 
ATOM      7  N4  UNL     1      13.181   9.968  27.686  0.00  0.00    -0.221 NA
ATOM      8  C16 UNL     1      12.132  10.821  27.807  0.00  0.00    +0.081 A 
ATOM      9  C17 UNL     1      12.055  12.067  27.188  0.00  0.00    +0.029 A 
ATOM     10  C18 UNL     1      10.914  12.859  27.400  0.00  0.00    +0.010 A 
ATOM     11  C19 UNL     1       9.855  12.406  28.227  0.00  0.00    -0.017 A 
ATOM     12  C25 UNL     1       9.955  11.137  28.841  0.00  0.00    +0.025 A 
ATOM     13  C26 UNL     1      11.097  10.376  28.613  0.00  0.00    +0.042 A 
ATOM     14  S1  UNL     1      11.477   8.855  29.213  0.00  0.00    -0.048 S 
ATOM     15  N6  UNL     1      13.679   6.633  29.135  0.00  0.00    -0.146 NA
ATOM     16  H9  UNL     1      13.964   4.043  29.754  0.00  0.00    +0.154 HD
ENDROOT
BRANCH   1  20
ATOM     17  C8  UNL     1      18.568   2.496  30.030  0.00  0.00    +0.037 A 
ATOM     18  C9  UNL     1      18.109   3.417  30.988  0.00  0.00    +0.015 A 
ATOM     19  C10 UNL     1      16.888   4.072  30.815  0.00  0.00    +0.024 A 
ATOM     20  C11 UNL     1      16.089   3.804  29.696  0.00  0.00    +0.032 A 
ATOM     21  C27 UNL     1      16.544   2.889  28.733  0.00  0.00    +0.024 A 
ATOM     22  C28 UNL     1      17.767   2.233  28.903  0.00  0.00    +0.015 A 
BRANCH  17  24
ATOM     23  O1  UNL     1      20.141   1.278  31.321  0.00  0.00    -0.270 OA
ATOM     24  C1  UNL     1      19.873   1.818  30.212  0.00  0.00    +0.248 C 
ATOM     25  N1  UNL     1      20.858   1.822  29.163  0.00  0.00    -0.282 N 
ATOM     26  H1  UNL     1      20.812   2.586  28.452  0.00  0.00    +0.155 HD
BRANCH  25  27
ATOM     27  C2  UNL     1      21.997   0.945  29.129  0.00  0.00    +0.034 A 
ATOM     28  C3  UNL     1      23.285   1.483  29.289  0.00  0.00    +0.023 A 
ATOM     29  C4  UNL     1      24.411   0.654  29.238  0.00  0.00    +0.002 A 
ATOM     30  C5  UNL     1      24.261  -0.717  29.012  0.00  0.00    +0.000 A 
ATOM     31  C6  UNL     1      22.986  -1.260  28.829  0.00  0.00    +0.002 A 
ATOM     32  C7  UNL     1      21.858  -0.434  28.879  0.00  0.00    +0.023 A 
ENDBRANCH  25  27
ENDBRANCH  17  24
ENDBRANCH   1  20
BRANCH  11  33
ATOM     33  C20 UNL     1       8.658  13.256  28.452  0.00  0.00    -0.015 A 
ATOM     34  C21 UNL     1       8.121  13.414  29.741  0.00  0.00    +0.028 A 
ATOM     35  C22 UNL     1       6.998  14.222  29.928  0.00  0.00    +0.111 A 
ATOM     36  N5  UNL     1       6.426  14.853  28.870  0.00  0.00    -0.263 NA
ATOM     37  C23 UNL     1       6.921  14.722  27.611  0.00  0.00    +0.111 A 
ATOM     38  C24 UNL     1       8.043  13.923  27.378  0.00  0.00    +0.028 A 
ENDBRANCH  11  33
BRANCH   4  39
ATOM     39  O2  UNL     1      15.674   8.701  27.108  0.00  0.00    -0.492 OA
ATOM     40  H11 UNL     1      16.423   9.283  27.463  0.00  0.00    +0.294 HD
ENDBRANCH   4  39
TORSDOF 5
ENDMDL
MODEL 7
REMARK VINA RESULT:    -6.614      2.451     14.501
REMARK INTER + INTRA:          -9.162
REMARK INTER:                  -8.418
REMARK INTRA:                  -0.744
REMARK UNBOUND:                -0.809
REMARK  Name = /home/qwerty/github/datacon2025hack/step_04_hit_selection/docking/ligands/lig_27.pdb
REMARK  5 active torsions:
REMARK  status: ('A' for Active; 'I' for Inactive)
REMARK    1  A    between atoms: C1_2  and  C8_10
REMARK    2  A    between atoms: N1_3  and  C2_4
REMARK    3  A    between atoms: C11_13  and  N2_14
REMARK    4  A    between atoms: C14_17  and  O2_18
REMARK    5  A    between atoms: C19_25  and  C20_26
REMARK                            x       y       z     vdW  Elec       q    Type
REMARK                         _______ _______ _______ _____ _____    ______ ____
ROOT
ATOM      1  N2  UNL     1      19.173   3.743  31.131  0.00  0.00    -0.298 N 
ATOM      2  C12 UNL     1      18.915   3.493  29.743  0.00  0.00    +0.149 A 
ATOM      3  C13 UNL     1      17.863   2.755  29.221  0.00  0.00    +0.112 A 
ATOM      4  C14 UNL     1      18.025   2.892  27.860  0.00  0.00    +0.219 A 
ATOM      5  N3  UNL     1      19.097   3.668  27.606  0.00  0.00    -0.174 N 
ATOM      6  C15 UNL     1      19.601   4.055  26.321  0.00  0.00    +0.198 A 
ATOM      7  N4  UNL     1      19.012   3.703  25.151  0.00  0.00    -0.221 NA
ATOM      8  C16 UNL     1      19.705   4.202  24.096  0.00  0.00    +0.081 A 
ATOM      9  C17 UNL     1      19.352   4.010  22.761  0.00  0.00    +0.029 A 
ATOM     10  C18 UNL     1      20.159   4.576  21.760  0.00  0.00    +0.010 A 
ATOM     11  C19 UNL     1      21.313   5.330  22.093  0.00  0.00    -0.017 A 
ATOM     12  C25 UNL     1      21.647   5.513  23.453  0.00  0.00    +0.025 A 
ATOM     13  C26 UNL     1      20.830   4.941  24.422  0.00  0.00    +0.042 A 
ATOM     14  S1  UNL     1      20.994   4.994  26.092  0.00  0.00    -0.048 S 
ATOM     15  N6  UNL     1      19.639   4.050  28.751  0.00  0.00    -0.146 NA
ATOM     16  H9  UNL     1      19.727   4.596  31.371  0.00  0.00    +0.154 HD
ENDROOT
BRANCH   1  20
ATOM     17  C8  UNL     1      17.777   1.399  34.401  0.00  0.00    +0.037 A 
ATOM     18  C9  UNL     1      17.414   2.751  34.275  0.00  0.00    +0.015 A 
ATOM     19  C10 UNL     1      17.871   3.510  33.195  0.00  0.00    +0.024 A 
ATOM     20  C11 UNL     1      18.678   2.929  32.207  0.00  0.00    +0.032 A 
ATOM     21  C27 UNL     1      19.047   1.579  32.331  0.00  0.00    +0.024 A 
ATOM     22  C28 UNL     1      18.592   0.819  33.412  0.00  0.00    +0.015 A 
BRANCH  17  24
ATOM     23  O1  UNL     1      17.665   0.931  36.723  0.00  0.00    -0.270 OA
ATOM     24  C1  UNL     1      17.302   0.605  35.560  0.00  0.00    +0.248 C 
ATOM     25  N1  UNL     1      16.485  -0.563  35.366  0.00  0.00    -0.282 N 
ATOM     26  H1  UNL     1      16.537  -1.050  34.443  0.00  0.00    +0.155 HD
BRANCH  25  27
ATOM     27  C2  UNL     1      15.732  -1.199  36.414  0.00  0.00    +0.034 A 
ATOM     28  C3  UNL     1      16.164  -2.436  36.918  0.00  0.00    +0.023 A 
ATOM     29  C4  UNL     1      15.438  -3.085  37.923  0.00  0.00    +0.002 A 
ATOM     30  C5  UNL     1      14.267  -2.509  38.423  0.00  0.00    +0.000 A 
ATOM     31  C6  UNL     1      13.816  -1.289  37.913  0.00  0.00    +0.002 A 
ATOM     32  C7  UNL     1      14.539  -0.637  36.908  0.00  0.00    +0.023 A 
ENDBRANCH  25  27
ENDBRANCH  17  24
ENDBRANCH   1  20
BRANCH  11  33
ATOM     33  C20 UNL     1      22.164   5.915  21.025  0.00  0.00    -0.015 A 
ATOM     34  C21 UNL     1      21.845   5.729  19.669  0.00  0.00    +0.028 A 
ATOM     35  C22 UNL     1      22.657   6.292  18.683  0.00  0.00    +0.111 A 
ATOM     36  N5  UNL     1      23.752   7.018  19.032  0.00  0.00    -0.263 NA
ATOM     37  C23 UNL     1      24.087   7.218  20.334  0.00  0.00    +0.111 A 
ATOM     38  C24 UNL     1      23.303   6.671  21.352  0.00  0.00    +0.028 A 
ENDBRANCH  11  33
BRANCH   4  39
ATOM     39  O2  UNL     1      17.207   2.328  26.885  0.00  0.00    -0.492 OA
ATOM     40  H11 UNL     1      16.690   1.476  27.070  0.00  0.00    +0.294 HD
ENDBRANCH   4  39
TORSDOF 5
ENDMDL
MODEL 8
REMARK VINA RESULT:    -6.542      9.960     17.595
REMARK INTER + INTRA:          -9.072
REMARK INTER:                  -8.258
REMARK INTRA:                  -0.814
REMARK UNBOUND:                -0.809
REMARK  Name = /home/qwerty/github/datacon2025hack/step_04_hit_selection/docking/ligands/lig_27.pdb
REMARK  5 active torsions:
REMARK  status: ('A' for Active; 'I' for Inactive)
REMARK    1  A    between atoms: C1_2  and  C8_10
REMARK    2  A    between atoms: N1_3  and  C2_4
REMARK    3  A    between atoms: C11_13  and  N2_14
REMARK    4  A    between atoms: C14_17  and  O2_18
REMARK    5  A    between atoms: C19_25  and  C20_26
REMARK                            x       y       z     vdW  Elec       q    Type
REMARK                         _______ _______ _______ _____ _____    ______ ____
ROOT
ATOM      1  N2  UNL     1      17.426  12.046  29.354  0.00  0.00    -0.298 N 
ATOM      2  C12 UNL     1      18.646  12.740  29.055  0.00  0.00    +0.149 A 
ATOM      3  C13 UNL     1      19.560  13.231  29.975  0.00  0.00    +0.112 A 
ATOM      4  C14 UNL     1      20.573  13.724  29.182  0.00  0.00    +0.219 A 
ATOM      5  N3  UNL     1      20.271  13.525  27.883  0.00  0.00    -0.174 N 
ATOM      6  C15 UNL     1      21.063  13.887  26.746  0.00  0.00    +0.198 A 
ATOM      7  N4  UNL     1      22.285  14.468  26.840  0.00  0.00    -0.221 NA
ATOM      8  C16 UNL     1      22.800  14.706  25.607  0.00  0.00    +0.081 A 
ATOM      9  C17 UNL     1      24.041  15.296  25.373  0.00  0.00    +0.029 A 
ATOM     10  C18 UNL     1      24.457  15.492  24.046  0.00  0.00    +0.010 A 
ATOM     11  C19 UNL     1      23.637  15.100  22.958  0.00  0.00    -0.017 A 
ATOM     12  C25 UNL     1      22.385  14.500  23.221  0.00  0.00    +0.025 A 
ATOM     13  C26 UNL     1      21.999  14.318  24.546  0.00  0.00    +0.042 A 
ATOM     14  S1  UNL     1      20.580  13.647  25.138  0.00  0.00    -0.048 S 
ATOM     15  N6  UNL     1      19.101  12.913  27.797  0.00  0.00    -0.146 NA
ATOM     16  H9  UNL     1      17.044  11.408  28.620  0.00  0.00    +0.154 HD
ENDROOT
BRANCH   1  20
ATOM     17  C8  UNL     1      15.293  12.207  33.036  0.00  0.00    +0.037 A 
ATOM     18  C9  UNL     1      16.162  11.140  32.750  0.00  0.00    +0.015 A 
ATOM     19  C10 UNL     1      16.863  11.099  31.543  0.00  0.00    +0.024 A 
ATOM     20  C11 UNL     1      16.730  12.135  30.607  0.00  0.00    +0.032 A 
ATOM     21  C27 UNL     1      15.860  13.201  30.887  0.00  0.00    +0.024 A 
ATOM     22  C28 UNL     1      15.155  13.243  32.093  0.00  0.00    +0.015 A 
BRANCH  17  24
ATOM     23  O1  UNL     1      14.974  12.923  35.274  0.00  0.00    -0.270 OA
ATOM     24  C1  UNL     1      14.539  12.233  34.312  0.00  0.00    +0.248 C 
ATOM     25  N1  UNL     1      13.354  11.435  34.484  0.00  0.00    -0.282 N 
ATOM     26  H1  UNL     1      13.242  10.589  33.880  0.00  0.00    +0.155 HD
BRANCH  25  27
ATOM     27  C2  UNL     1      12.402  11.628  35.544  0.00  0.00    +0.034 A 
ATOM     28  C3  UNL     1      12.304  10.669  36.565  0.00  0.00    +0.023 A 
ATOM     29  C4  UNL     1      11.371  10.824  37.596  0.00  0.00    +0.002 A 
ATOM     30  C5  UNL     1      10.519  11.932  37.608  0.00  0.00    +0.000 A 
ATOM     31  C6  UNL     1      10.593  12.881  36.586  0.00  0.00    +0.002 A 
ATOM     32  C7  UNL     1      11.524  12.730  35.552  0.00  0.00    +0.023 A 
ENDBRANCH  25  27
ENDBRANCH  17  24
ENDBRANCH   1  20
BRANCH  11  33
ATOM     33  C20 UNL     1      24.083  15.321  21.559  0.00  0.00    -0.015 A 
ATOM     34  C21 UNL     1      25.108  16.238  21.269  0.00  0.00    +0.028 A 
ATOM     35  C22 UNL     1      25.514  16.426  19.946  0.00  0.00    +0.111 A 
ATOM     36  N5  UNL     1      24.922  15.726  18.943  0.00  0.00    -0.263 NA
ATOM     37  C23 UNL     1      23.929  14.832  19.191  0.00  0.00    +0.111 A 
ATOM     38  C24 UNL     1      23.491  14.613  20.499  0.00  0.00    +0.028 A 
ENDBRANCH  11  33
BRANCH   4  39
ATOM     39  O2  UNL     1      21.740  14.329  29.640  0.00  0.00    -0.492 OA
ATOM     40  H11 UNL     1      22.218  15.025  29.079  0.00  0.00    +0.294 HD
ENDBRANCH   4  39
TORSDOF 5
ENDMDL
MODEL 9
REMARK VINA RESULT:    -6.486      9.841     10.383
REMARK INTER + INTRA:          -9.001
REMARK INTER:                  -8.267
REMARK INTRA:                  -0.734
REMARK UNBOUND:                -0.809
REMARK  Name = /home/qwerty/github/datacon2025hack/step_04_hit_selection/docking/ligands/lig_27.pdb
REMARK  5 active torsions:
REMARK  status: ('A' for Active; 'I' for Inactive)
REMARK    1  A    between atoms: C1_2  and  C8_10
REMARK    2  A    between atoms: N1_3  and  C2_4
REMARK    3  A    between atoms: C11_13  and  N2_14
REMARK    4  A    between atoms: C14_17  and  O2_18
REMARK    5  A    between atoms: C19_25  and  C20_26
REMARK                            x       y       z     vdW  Elec       q    Type
REMARK                         _______ _______ _______ _____ _____    ______ ____
ROOT
ATOM      1  N2  UNL     1      15.742   8.019  20.795  0.00  0.00    -0.298 N 
ATOM      2  C12 UNL     1      14.544   8.125  21.576  0.00  0.00    +0.149 A 
ATOM      3  C13 UNL     1      13.846   9.289  21.860  0.00  0.00    +0.112 A 
ATOM      4  C14 UNL     1      12.748   8.837  22.558  0.00  0.00    +0.219 A 
ATOM      5  N3  UNL     1      12.798   7.494  22.666  0.00  0.00    -0.174 N 
ATOM      6  C15 UNL     1      11.846   6.642  23.313  0.00  0.00    +0.198 A 
ATOM      7  N4  UNL     1      10.707   7.097  23.891  0.00  0.00    -0.221 NA
ATOM      8  C16 UNL     1      10.000   6.072  24.432  0.00  0.00    +0.081 A 
ATOM      9  C17 UNL     1       8.784   6.220  25.097  0.00  0.00    +0.029 A 
ATOM     10  C18 UNL     1       8.154   5.077  25.617  0.00  0.00    +0.010 A 
ATOM     11  C19 UNL     1       8.738   3.792  25.471  0.00  0.00    -0.017 A 
ATOM     12  C25 UNL     1       9.968   3.668  24.789  0.00  0.00    +0.025 A 
ATOM     13  C26 UNL     1      10.569   4.818  24.285  0.00  0.00    +0.042 A 
ATOM     14  S1  UNL     1      12.017   4.960  23.449  0.00  0.00    -0.048 S 
ATOM     15  N6  UNL     1      13.887   7.050  22.058  0.00  0.00    -0.146 NA
ATOM     16  H9  UNL     1      15.940   7.100  20.340  0.00  0.00    +0.154 HD
ENDROOT
BRANCH   1  20
ATOM     17  C8  UNL     1      18.405  11.291  20.210  0.00  0.00    +0.037 A 
ATOM     18  C9  UNL     1      18.594  10.386  21.268  0.00  0.00    +0.015 A 
ATOM     19  C10 UNL     1      17.720   9.311  21.448  0.00  0.00    +0.024 A 
ATOM     20  C11 UNL     1      16.654   9.104  20.561  0.00  0.00    +0.032 A 
ATOM     21  C27 UNL     1      16.458  10.009  19.504  0.00  0.00    +0.024 A 
ATOM     22  C28 UNL     1      17.331  11.086  19.324  0.00  0.00    +0.015 A 
BRANCH  17  24
ATOM     23  O1  UNL     1      19.278  13.401  20.851  0.00  0.00    -0.270 OA
ATOM     24  C1  UNL     1      19.327  12.439  20.036  0.00  0.00    +0.248 C 
ATOM     25  N1  UNL     1      20.232  12.494  18.919  0.00  0.00    -0.282 N 
ATOM     26  H1  UNL     1      19.988  11.943  18.064  0.00  0.00    +0.155 HD
BRANCH  25  27
ATOM     27  C2  UNL     1      21.356  13.387  18.839  0.00  0.00    +0.034 A 
ATOM     28  C3  UNL     1      22.630  12.925  19.207  0.00  0.00    +0.023 A 
ATOM     29  C4  UNL     1      23.736  13.781  19.159  0.00  0.00    +0.002 A 
ATOM     30  C5  UNL     1      23.575  15.110  18.756  0.00  0.00    +0.000 A 
ATOM     31  C6  UNL     1      22.309  15.586  18.409  0.00  0.00    +0.002 A 
ATOM     32  C7  UNL     1      21.200  14.734  18.456  0.00  0.00    +0.023 A 
ENDBRANCH  25  27
ENDBRANCH  17  24
ENDBRANCH   1  20
BRANCH  11  33
ATOM     33  C20 UNL     1       8.067   2.592  26.034  0.00  0.00    -0.015 A 
ATOM     34  C21 UNL     1       6.930   2.721  26.849  0.00  0.00    +0.028 A 
ATOM     35  C22 UNL     1       6.314   1.578  27.363  0.00  0.00    +0.111 A 
ATOM     36  N5  UNL     1       6.811   0.346  27.076  0.00  0.00    -0.263 NA
ATOM     37  C23 UNL     1       7.908   0.188  26.290  0.00  0.00    +0.111 A 
ATOM     38  C24 UNL     1       8.556   1.304  25.756  0.00  0.00    +0.028 A 
ENDBRANCH  11  33
BRANCH   4  39
ATOM     39  O2  UNL     1      11.728   9.635  23.071  0.00  0.00    -0.492 OA
ATOM     40  H11 UNL     1      11.064   9.262  23.739  0.00  0.00    +0.294 HD
ENDBRANCH   4  39
TORSDOF 5
ENDMDL
