REMARK  Name = /home/qwerty/github/datacon2025hack/step_04_hit_selection/docking/ligands/lig_811.pdb
REMARK  4 active torsions:
REMARK  status: ('A' for Active; 'I' for Inactive)
REMARK    1  A    between atoms: C1_1  and  C2_2
REMARK    2  A    between atoms: C3_4  and  C4_5
REMARK    3  A    between atoms: C10_12  and  C11_13
REMARK    4  A    between atoms: N2_15  and  C12_16
REMARK                            x       y       z     vdW  Elec       q    Type
REMARK                         _______ _______ _______ _____ _____    ______ ____
ROOT
ATOM      1  C11 UNL     1       0.635   0.604  -0.267  0.00  0.00    +0.250 C 
ATOM      2  O1  UNL     1       1.258   0.882  -1.327  0.00  0.00    -0.270 OA
ATOM      3  N2  UNL     1       1.346   0.516   0.980  0.00  0.00    -0.281 N 
ATOM      4  H9  UNL     1       0.804   0.661   1.862  0.00  0.00    +0.155 HD
ENDROOT
BRANCH   3   5
ATOM      5  C12 UNL     1       2.773   0.375   1.082  0.00  0.00    +0.037 A 
ATOM      6  C13 UNL     1       3.445   0.922   2.205  0.00  0.00    +0.027 A 
ATOM      7  C14 UNL     1       4.837   0.781   2.348  0.00  0.00    +0.051 A 
ATOM      8  C15 UNL     1       5.523   0.077   1.364  0.00  0.00    +0.166 A 
ATOM      9  C16 UNL     1       4.888  -0.466   0.296  0.00  0.00    +0.168 A 
ATOM     10  C17 UNL     1       3.512  -0.349   0.115  0.00  0.00    +0.072 A 
ATOM     11  O2  UNL     1       5.808  -1.114  -0.506  0.00  0.00    -0.453 OA
ATOM     12  C18 UNL     1       7.102  -0.964   0.094  0.00  0.00    +0.466 C 
ATOM     13  O3  UNL     1       6.874  -0.198   1.286  0.00  0.00    -0.453 OA
ENDBRANCH   3   5
BRANCH   1  20
ATOM     14  C1  UNL     1      -1.189   2.115  -2.158  0.00  0.00    +0.066 C 
ATOM     15  C2  UNL     1      -1.691   1.076  -1.198  0.00  0.00    +0.051 A 
ATOM     16  N1  UNL     1      -3.025   0.804  -1.192  0.00  0.00    -0.251 NA
ATOM     17  C3  UNL     1      -3.591  -0.103  -0.351  0.00  0.00    +0.078 A 
ATOM     18  C8  UNL     1      -2.778  -0.794   0.555  0.00  0.00    +0.029 A 
ATOM     19  C9  UNL     1      -1.406  -0.546   0.575  0.00  0.00    +0.017 A 
ATOM     20  C10 UNL     1      -0.834   0.387  -0.304  0.00  0.00    +0.058 A 
BRANCH  17  21
ATOM     21  C4  UNL     1      -5.048  -0.337  -0.411  0.00  0.00    +0.038 A 
ATOM     22  C5  UNL     1      -5.935   0.300  -1.275  0.00  0.00    +0.017 A 
ATOM     23  C6  UNL     1      -7.263  -0.116  -1.115  0.00  0.00    +0.008 A 
ATOM     24  C7  UNL     1      -7.433  -1.078  -0.129  0.00  0.00    +0.046 A 
ATOM     25  S1  UNL     1      -5.929  -1.412   0.543  0.00  0.00    -0.095 S 
ENDBRANCH  17  21
ENDBRANCH   1  20
TORSDOF 3
