REMARK  Name = /home/qwerty/github/datacon2025hack/step_04_hit_selection/docking/ligands/lig_118.pdb
REMARK  3 active torsions:
REMARK  status: ('A' for Active; 'I' for Inactive)
REMARK    1  A    between atoms: C1_2  and  C10_16
REMARK    2  A    between atoms: N1_3  and  C2_4
REMARK    3  A    between atoms: C4_7  and  C5_9
REMARK                            x       y       z     vdW  Elec       q    Type
REMARK                         _______ _______ _______ _____ _____    ______ ____
ROOT
ATOM      1  O1  UNL     1       2.057  -1.958  -1.491  0.00  0.00    -0.270 OA
ATOM      2  C1  UNL     1       2.289  -1.020  -0.681  0.00  0.00    +0.246 C 
ATOM      3  N1  UNL     1       1.414   0.115  -0.633  0.00  0.00    -0.305 N 
ATOM      4  H1  UNL     1       1.484   0.770   0.177  0.00  0.00    +0.149 HD
ENDROOT
BRANCH   2   5
ATOM      5  C10 UNL     1       3.434  -1.134   0.238  0.00  0.00    +0.063 A 
ATOM      6  C11 UNL     1       3.972  -2.326   0.724  0.00  0.00    +0.098 A 
ATOM      7  N4  UNL     1       5.017  -2.078   1.546  0.00  0.00    -0.345 N 
ATOM      8  C12 UNL     1       5.148  -0.743   1.570  0.00  0.00    +0.139 A 
ATOM      9  N5  UNL     1       6.104  -0.050   2.239  0.00  0.00    -0.237 NA
ATOM     10  C13 UNL     1       6.139   1.311   2.127  0.00  0.00    +0.113 A 
ATOM     11  C14 UNL     1       5.208   1.988   1.309  0.00  0.00    +0.020 A 
ATOM     12  C15 UNL     1       4.229   1.259   0.613  0.00  0.00    +0.014 A 
ATOM     13  C16 UNL     1       4.213  -0.126   0.784  0.00  0.00    +0.031 A 
ATOM     14  H14 UNL     1       5.606  -2.781   2.044  0.00  0.00    +0.167 HD
ENDBRANCH   2   5
BRANCH   3  15
ATOM     15  C2  UNL     1       0.402   0.338  -1.670  0.00  0.00    +0.108 C 
ATOM     16  C3  UNL     1      -0.532   1.471  -1.371  0.00  0.00    +0.131 C 
ATOM     17  N2  UNL     1      -1.729   0.634  -1.173  0.00  0.00    -0.297 N 
ATOM     18  C4  UNL     1      -3.105   0.833  -0.852  0.00  0.00    +0.228 C 
ATOM     19  O2  UNL     1      -3.533   2.002  -0.656  0.00  0.00    -0.275 OA
ATOM     20  C9  UNL     1      -0.825  -0.494  -1.464  0.00  0.00    +0.131 C 
BRANCH  18  21
ATOM     21  C5  UNL     1      -4.033  -0.346  -0.729  0.00  0.00    +0.162 C 
ATOM     22  C6  UNL     1      -4.627  -0.468   0.691  0.00  0.00    +0.041 C 
ATOM     23  C7  UNL     1      -6.123  -0.110   0.588  0.00  0.00    +0.105 C 
ATOM     24  N3  UNL     1      -6.422  -0.039  -0.828  0.00  0.00    -0.315 N 
ATOM     25  C8  UNL     1      -5.233  -0.162  -1.575  0.00  0.00    +0.225 C 
ATOM     26  O3  UNL     1      -5.212  -0.118  -2.834  0.00  0.00    -0.275 OA
ATOM     27  H10 UNL     1      -7.365   0.157  -1.231  0.00  0.00    +0.149 HD
ENDBRANCH  18  21
ENDBRANCH   3  15
TORSDOF 3
