REMARK  Name = /home/qwerty/github/datacon2025hack/step_04_hit_selection/docking/ligands/lig_80.pdb
REMARK  6 active torsions:
REMARK  status: ('A' for Active; 'I' for Inactive)
REMARK    1  A    between atoms: C1_1  and  C2_2
REMARK    2  A    between atoms: C4_4  and  C5_5
REMARK    3  A    between atoms: N1_6  and  C6_7
REMARK    4  A    between atoms: C9_10  and  N2_11
REMARK    5  A    between atoms: C10_12  and  C11_14
REMARK    6  A    between atoms: C14_17  and  C15_18
REMARK                            x       y       z     vdW  Elec       q    Type
REMARK                         _______ _______ _______ _____ _____    ______ ____
ROOT
ATOM      1  N2  UNL     1      -0.634   0.453  -0.084  0.00  0.00    -0.282 N 
ATOM      2  C10 UNL     1       0.365  -0.581   0.005  0.00  0.00    +0.248 C 
ATOM      3  O1  UNL     1       0.014  -1.788   0.102  0.00  0.00    -0.270 OA
ATOM      4  H10 UNL     1      -0.339   1.431  -0.295  0.00  0.00    +0.155 HD
ENDROOT
BRANCH   1   8
ATOM      5  C6  UNL     1      -4.829  -0.184   0.264  0.00  0.00    +0.066 A 
ATOM      6  C7  UNL     1      -4.318   0.766  -0.633  0.00  0.00    +0.029 A 
ATOM      7  C8  UNL     1      -2.939   0.963  -0.745  0.00  0.00    +0.025 A 
ATOM      8  C9  UNL     1      -2.047   0.213   0.034  0.00  0.00    +0.034 A 
ATOM      9  C23 UNL     1      -2.560  -0.707   0.965  0.00  0.00    +0.025 A 
ATOM     10  C24 UNL     1      -3.939  -0.903   1.078  0.00  0.00    +0.029 A 
BRANCH   5  16
ATOM     11  C1  UNL     1      -9.590   0.959   0.466  0.00  0.00    +0.067 C 
ATOM     12  C2  UNL     1      -8.344   0.139   0.499  0.00  0.00    +0.061 A 
ATOM     13  C3  UNL     1      -8.287  -1.240   0.553  0.00  0.00    +0.047 A 
ATOM     14  C4  UNL     1      -6.939  -1.525   0.470  0.00  0.00    +0.042 A 
ATOM     15  C5  UNL     1      -6.354  -2.904   0.436  0.00  0.00    +0.066 C 
ATOM     16  N1  UNL     1      -6.251  -0.362   0.383  0.00  0.00    -0.237 N 
ATOM     17  N6  UNL     1      -7.104   0.650   0.377  0.00  0.00    -0.171 NA
ENDBRANCH   5  16
ENDBRANCH   1   8
BRANCH   2  18
ATOM     18  C11 UNL     1       1.812  -0.257  -0.022  0.00  0.00    +0.037 A 
ATOM     19  C12 UNL     1       2.302   0.859  -0.723  0.00  0.00    +0.014 A 
ATOM     20  C13 UNL     1       3.670   1.142  -0.739  0.00  0.00    +0.012 A 
ATOM     21  C14 UNL     1       4.584   0.315  -0.063  0.00  0.00    +0.017 A 
ATOM     22  C21 UNL     1       4.094  -0.807   0.629  0.00  0.00    +0.012 A 
ATOM     23  C22 UNL     1       2.725  -1.091   0.644  0.00  0.00    +0.014 A 
BRANCH  21  24
ATOM     24  C15 UNL     1       6.034   0.636  -0.092  0.00  0.00    +0.141 A 
ATOM     25  N3  UNL     1       6.521   1.775  -0.664  0.00  0.00    -0.208 NA
ATOM     26  C16 UNL     1       7.844   1.658  -0.471  0.00  0.00    +0.178 A 
ATOM     27  N4  UNL     1       8.799   2.539  -0.859  0.00  0.00    -0.234 NA
ATOM     28  C17 UNL     1      10.108   2.255  -0.581  0.00  0.00    +0.113 A 
ATOM     29  C18 UNL     1      10.457   1.063   0.098  0.00  0.00    +0.022 A 
ATOM     30  C19 UNL     1       9.450   0.162   0.491  0.00  0.00    +0.031 A 
ATOM     31  C20 UNL     1       8.139   0.507   0.181  0.00  0.00    +0.086 A 
ATOM     32  N5  UNL     1       7.007  -0.160   0.433  0.00  0.00    -0.337 N 
ATOM     33  H16 UNL     1       6.921  -1.083   0.913  0.00  0.00    +0.167 HD
ENDBRANCH  21  24
ENDBRANCH   2  18
TORSDOF 4
