MODEL 1
REMARK VINA RESULT:    -6.575      0.000      0.000
REMARK INTER + INTRA:          -8.372
REMARK INTER:                  -7.920
REMARK INTRA:                  -0.453
REMARK UNBOUND:                -0.453
REMARK  Name = /home/qwerty/github/datacon2025hack/step_04_hit_selection/docking/ligands/lig_594.pdb
REMARK  4 active torsions:
REMARK  status: ('A' for Active; 'I' for Inactive)
REMARK    1  A    between atoms: C1_2  and  C10_15
REMARK    2  A    between atoms: N1_3  and  C2_4
REMARK    3  A    between atoms: C6_9  and  C7_10
REMARK    4  A    between atoms: C7_10  and  O2_11
REMARK                            x       y       z     vdW  Elec       q    Type
REMARK                         _______ _______ _______ _____ _____    ______ ____
ROOT
ATOM      1  O1  UNL     1      13.202   3.553  22.434  0.00  0.00    -0.270 OA
ATOM      2  C1  UNL     1      12.441   3.074  21.552  0.00  0.00    +0.250 C 
ATOM      3  N1  UNL     1      12.713   1.785  20.973  0.00  0.00    -0.281 N 
ATOM      4  H1  UNL     1      12.058   1.413  20.252  0.00  0.00    +0.155 HD
ENDROOT
BRANCH   3   5
ATOM      5  C2  UNL     1      13.875   0.995  21.273  0.00  0.00    +0.036 A 
ATOM      6  C3  UNL     1      14.991   1.054  20.399  0.00  0.00    +0.025 A 
ATOM      7  C4  UNL     1      16.140   0.276  20.641  0.00  0.00    +0.032 A 
ATOM      8  C5  UNL     1      16.134  -0.557  21.754  0.00  0.00    +0.089 A 
ATOM      9  N2  UNL     1      17.104  -1.396  22.160  0.00  0.00    -0.230 NA
ATOM     10  C6  UNL     1      16.563  -1.962  23.270  0.00  0.00    +0.134 A 
ATOM     11  N3  UNL     1      15.309  -1.528  23.551  0.00  0.00    -0.340 N 
ATOM     12  C8  UNL     1      15.058  -0.635  22.587  0.00  0.00    +0.068 A 
ATOM     13  C9  UNL     1      13.903   0.115  22.381  0.00  0.00    +0.051 A 
ATOM     14  H7  UNL     1      14.682  -1.826  24.331  0.00  0.00    +0.167 HD
BRANCH  10  15
ATOM     15  C7  UNL     1      17.256  -3.027  24.061  0.00  0.00    +0.229 C 
BRANCH  15  16
ATOM     16  O2  UNL     1      18.386  -2.495  24.696  0.00  0.00    -0.387 OA
ATOM     17  H6  UNL     1      18.142  -2.369  25.650  0.00  0.00    +0.210 HD
ENDBRANCH  15  16
ENDBRANCH  10  15
ENDBRANCH   3   5
BRANCH   2  18
ATOM     18  C10 UNL     1      11.259   3.850  21.139  0.00  0.00    +0.064 A 
ATOM     19  C11 UNL     1      11.166   4.642  19.995  0.00  0.00    +0.098 A 
ATOM     20  N4  UNL     1       9.944   5.214  19.910  0.00  0.00    -0.345 N 
ATOM     21  C12 UNL     1       9.264   4.777  20.981  0.00  0.00    +0.139 A 
ATOM     22  N5  UNL     1       7.971   5.064  21.273  0.00  0.00    -0.237 NA
ATOM     23  C13 UNL     1       7.398   4.496  22.376  0.00  0.00    +0.113 A 
ATOM     24  C14 UNL     1       8.133   3.604  23.188  0.00  0.00    +0.020 A 
ATOM     25  C15 UNL     1       9.468   3.308  22.869  0.00  0.00    +0.014 A 
ATOM     26  C16 UNL     1      10.021   3.937  21.754  0.00  0.00    +0.031 A 
ATOM     27  H10 UNL     1       9.598   5.849  19.157  0.00  0.00    +0.167 HD
ENDBRANCH   2  18
TORSDOF 4
ENDMDL
MODEL 2
REMARK VINA RESULT:    -6.371     17.352     19.546
REMARK INTER + INTRA:          -8.128
REMARK INTER:                  -7.736
REMARK INTRA:                  -0.391
REMARK UNBOUND:                -0.453
REMARK  Name = /home/qwerty/github/datacon2025hack/step_04_hit_selection/docking/ligands/lig_594.pdb
REMARK  4 active torsions:
REMARK  status: ('A' for Active; 'I' for Inactive)
REMARK    1  A    between atoms: C1_2  and  C10_15
REMARK    2  A    between atoms: N1_3  and  C2_4
REMARK    3  A    between atoms: C6_9  and  C7_10
REMARK    4  A    between atoms: C7_10  and  O2_11
REMARK                            x       y       z     vdW  Elec       q    Type
REMARK                         _______ _______ _______ _____ _____    ______ ____
ROOT
ATOM      1  O1  UNL     1      19.692   8.120  35.056  0.00  0.00    -0.270 OA
ATOM      2  C1  UNL     1      20.590   8.359  35.908  0.00  0.00    +0.250 C 
ATOM      3  N1  UNL     1      20.367   9.321  36.954  0.00  0.00    -0.281 N 
ATOM      4  H1  UNL     1      21.128   9.489  37.649  0.00  0.00    +0.155 HD
ENDROOT
BRANCH   3   5
ATOM      5  C2  UNL     1      19.184  10.127  37.071  0.00  0.00    +0.036 A 
ATOM      6  C3  UNL     1      18.087   9.633  37.824  0.00  0.00    +0.025 A 
ATOM      7  C4  UNL     1      16.899  10.379  37.942  0.00  0.00    +0.032 A 
ATOM      8  C5  UNL     1      16.835  11.604  37.287  0.00  0.00    +0.089 A 
ATOM      9  N2  UNL     1      15.801  12.463  37.245  0.00  0.00    -0.230 NA
ATOM     10  C6  UNL     1      16.277  13.464  36.459  0.00  0.00    +0.134 A 
ATOM     11  N3  UNL     1      17.537  13.251  36.005  0.00  0.00    -0.340 N 
ATOM     12  C8  UNL     1      17.876  12.075  36.545  0.00  0.00    +0.068 A 
ATOM     13  C9  UNL     1      19.067  11.368  36.400  0.00  0.00    +0.051 A 
ATOM     14  H7  UNL     1      18.107  13.859  35.375  0.00  0.00    +0.167 HD
BRANCH  10  15
ATOM     15  C7  UNL     1      15.455  14.651  36.066  0.00  0.00    +0.229 C 
BRANCH  15  16
ATOM     16  O2  UNL     1      16.179  15.830  36.282  0.00  0.00    -0.387 OA
ATOM     17  H6  UNL     1      16.040  16.399  35.479  0.00  0.00    +0.210 HD
ENDBRANCH  15  16
ENDBRANCH  10  15
ENDBRANCH   3   5
BRANCH   2  18
ATOM     18  C10 UNL     1      21.862   7.622  35.821  0.00  0.00    +0.064 A 
ATOM     19  C11 UNL     1      22.461   6.910  36.860  0.00  0.00    +0.098 A 
ATOM     20  N4  UNL     1      23.619   6.348  36.446  0.00  0.00    -0.345 N 
ATOM     21  C12 UNL     1      23.745   6.687  35.154  0.00  0.00    +0.139 A 
ATOM     22  N5  UNL     1      24.744   6.296  34.323  0.00  0.00    -0.237 NA
ATOM     23  C13 UNL     1      24.705   6.680  33.012  0.00  0.00    +0.113 A 
ATOM     24  C14 UNL     1      23.629   7.452  32.522  0.00  0.00    +0.020 A 
ATOM     25  C15 UNL     1      22.595   7.842  33.390  0.00  0.00    +0.014 A 
ATOM     26  C16 UNL     1      22.695   7.456  34.727  0.00  0.00    +0.031 A 
ATOM     27  H10 UNL     1      24.269   5.758  37.011  0.00  0.00    +0.167 HD
ENDBRANCH   2  18
TORSDOF 4
ENDMDL
MODEL 3
REMARK VINA RESULT:    -6.301      3.714      5.244
REMARK INTER + INTRA:          -8.042
REMARK INTER:                  -7.620
REMARK INTRA:                  -0.422
REMARK UNBOUND:                -0.453
REMARK  Name = /home/qwerty/github/datacon2025hack/step_04_hit_selection/docking/ligands/lig_594.pdb
REMARK  4 active torsions:
REMARK  status: ('A' for Active; 'I' for Inactive)
REMARK    1  A    between atoms: C1_2  and  C10_15
REMARK    2  A    between atoms: N1_3  and  C2_4
REMARK    3  A    between atoms: C6_9  and  C7_10
REMARK    4  A    between atoms: C7_10  and  O2_11
REMARK                            x       y       z     vdW  Elec       q    Type
REMARK                         _______ _______ _______ _____ _____    ______ ____
ROOT
ATOM      1  O1  UNL     1      12.612   7.254  21.624  0.00  0.00    -0.270 OA
ATOM      2  C1  UNL     1      11.604   7.275  20.869  0.00  0.00    +0.250 C 
ATOM      3  N1  UNL     1      11.090   6.057  20.303  0.00  0.00    -0.281 N 
ATOM      4  H1  UNL     1      10.247   6.108  19.689  0.00  0.00    +0.155 HD
ENDROOT
BRANCH   3   5
ATOM      5  C2  UNL     1      11.701   4.768  20.470  0.00  0.00    +0.036 A 
ATOM      6  C3  UNL     1      11.134   3.852  21.392  0.00  0.00    +0.025 A 
ATOM      7  C4  UNL     1      11.717   2.588  21.606  0.00  0.00    +0.032 A 
ATOM      8  C5  UNL     1      12.870   2.278  20.893  0.00  0.00    +0.089 A 
ATOM      9  N2  UNL     1      13.599   1.150  20.956  0.00  0.00    -0.230 NA
ATOM     10  C6  UNL     1      14.607   1.397  20.078  0.00  0.00    +0.134 A 
ATOM     11  N3  UNL     1      14.541   2.622  19.500  0.00  0.00    -0.340 N 
ATOM     12  C8  UNL     1      13.433   3.161  20.020  0.00  0.00    +0.068 A 
ATOM     13  C9  UNL     1      12.890   4.421  19.783  0.00  0.00    +0.051 A 
ATOM     14  H7  UNL     1      15.204   3.049  18.814  0.00  0.00    +0.167 HD
BRANCH  10  15
ATOM     15  C7  UNL     1      15.729   0.437  19.837  0.00  0.00    +0.229 C 
BRANCH  15  16
ATOM     16  O2  UNL     1      15.460  -0.342  18.704  0.00  0.00    -0.387 OA
ATOM     17  H6  UNL     1      16.083  -1.115  18.738  0.00  0.00    +0.210 HD
ENDBRANCH  15  16
ENDBRANCH  10  15
ENDBRANCH   3   5
BRANCH   2  18
ATOM     18  C10 UNL     1      10.953   8.567  20.593  0.00  0.00    +0.064 A 
ATOM     19  C11 UNL     1      11.288   9.441  19.559  0.00  0.00    +0.098 A 
ATOM     20  N4  UNL     1      10.493  10.535  19.584  0.00  0.00    -0.345 N 
ATOM     21  C12 UNL     1       9.653  10.349  20.614  0.00  0.00    +0.139 A 
ATOM     22  N5  UNL     1       8.648  11.183  20.980  0.00  0.00    -0.237 NA
ATOM     23  C13 UNL     1       7.838  10.828  22.022  0.00  0.00    +0.113 A 
ATOM     24  C14 UNL     1       8.029   9.601  22.694  0.00  0.00    +0.020 A 
ATOM     25  C15 UNL     1       9.068   8.742  22.299  0.00  0.00    +0.014 A 
ATOM     26  C16 UNL     1       9.890   9.161  21.252  0.00  0.00    +0.031 A 
ATOM     27  H10 UNL     1      10.518  11.346  18.927  0.00  0.00    +0.167 HD
ENDBRANCH   2  18
TORSDOF 4
ENDMDL
MODEL 4
REMARK VINA RESULT:    -6.300     17.223     17.757
REMARK INTER + INTRA:          -8.041
REMARK INTER:                  -7.577
REMARK INTRA:                  -0.464
REMARK UNBOUND:                -0.453
REMARK  Name = /home/qwerty/github/datacon2025hack/step_04_hit_selection/docking/ligands/lig_594.pdb
REMARK  4 active torsions:
REMARK  status: ('A' for Active; 'I' for Inactive)
REMARK    1  A    between atoms: C1_2  and  C10_15
REMARK    2  A    between atoms: N1_3  and  C2_4
REMARK    3  A    between atoms: C6_9  and  C7_10
REMARK    4  A    between atoms: C7_10  and  O2_11
REMARK                            x       y       z     vdW  Elec       q    Type
REMARK                         _______ _______ _______ _____ _____    ______ ____
ROOT
ATOM      1  O1  UNL     1      18.229   9.000  35.506  0.00  0.00    -0.270 OA
ATOM      2  C1  UNL     1      18.637   9.949  36.228  0.00  0.00    +0.250 C 
ATOM      3  N1  UNL     1      20.013  10.013  36.641  0.00  0.00    -0.281 N 
ATOM      4  H1  UNL     1      20.321  10.818  37.231  0.00  0.00    +0.155 HD
ENDROOT
BRANCH   3   5
ATOM      5  C2  UNL     1      20.991   9.001  36.352  0.00  0.00    +0.036 A 
ATOM      6  C3  UNL     1      21.203   7.961  37.293  0.00  0.00    +0.025 A 
ATOM      7  C4  UNL     1      22.170   6.964  37.061  0.00  0.00    +0.032 A 
ATOM      8  C5  UNL     1      22.914   7.044  35.889  0.00  0.00    +0.089 A 
ATOM      9  N2  UNL     1      23.896   6.221  35.479  0.00  0.00    -0.230 NA
ATOM     10  C6  UNL     1      24.276   6.776  34.298  0.00  0.00    +0.134 A 
ATOM     11  N3  UNL     1      23.592   7.903  33.978  0.00  0.00    -0.340 N 
ATOM     12  C8  UNL     1      22.731   8.052  34.990  0.00  0.00    +0.068 A 
ATOM     13  C9  UNL     1      21.787   9.058  35.183  0.00  0.00    +0.051 A 
ATOM     14  H7  UNL     1      23.715   8.516  33.141  0.00  0.00    +0.167 HD
BRANCH  10  15
ATOM     15  C7  UNL     1      25.401   6.239  33.471  0.00  0.00    +0.229 C 
BRANCH  15  16
ATOM     16  O2  UNL     1      25.189   4.882  33.195  0.00  0.00    -0.387 OA
ATOM     17  H6  UNL     1      24.300   4.651  33.574  0.00  0.00    +0.210 HD
ENDBRANCH  15  16
ENDBRANCH  10  15
ENDBRANCH   3   5
BRANCH   2  18
ATOM     18  C10 UNL     1      17.682  10.998  36.624  0.00  0.00    +0.064 A 
ATOM     19  C11 UNL     1      16.885  10.981  37.769  0.00  0.00    +0.098 A 
ATOM     20  N4  UNL     1      16.125  12.097  37.836  0.00  0.00    -0.345 N 
ATOM     21  C12 UNL     1      16.448  12.822  36.754  0.00  0.00    +0.139 A 
ATOM     22  N5  UNL     1      15.958  14.048  36.443  0.00  0.00    -0.237 NA
ATOM     23  C13 UNL     1      16.428  14.687  35.329  0.00  0.00    +0.113 A 
ATOM     24  C14 UNL     1      17.425  14.091  34.526  0.00  0.00    +0.020 A 
ATOM     25  C15 UNL     1      17.931  12.825  34.865  0.00  0.00    +0.014 A 
ATOM     26  C16 UNL     1      17.398  12.196  35.991  0.00  0.00    +0.031 A 
ATOM     27  H10 UNL     1      15.443  12.350  38.585  0.00  0.00    +0.167 HD
ENDBRANCH   2  18
TORSDOF 4
ENDMDL
MODEL 5
REMARK VINA RESULT:    -6.240     17.114     17.616
REMARK INTER + INTRA:          -7.970
REMARK INTER:                  -7.549
REMARK INTRA:                  -0.420
REMARK UNBOUND:                -0.453
REMARK  Name = /home/qwerty/github/datacon2025hack/step_04_hit_selection/docking/ligands/lig_594.pdb
REMARK  4 active torsions:
REMARK  status: ('A' for Active; 'I' for Inactive)
REMARK    1  A    between atoms: C1_2  and  C10_15
REMARK    2  A    between atoms: N1_3  and  C2_4
REMARK    3  A    between atoms: C6_9  and  C7_10
REMARK    4  A    between atoms: C7_10  and  O2_11
REMARK                            x       y       z     vdW  Elec       q    Type
REMARK                         _______ _______ _______ _____ _____    ______ ____
ROOT
ATOM      1  O1  UNL     1      16.251  10.621  35.243  0.00  0.00    -0.270 OA
ATOM      2  C1  UNL     1      15.902  11.018  36.386  0.00  0.00    +0.250 C 
ATOM      3  N1  UNL     1      16.518  10.474  37.567  0.00  0.00    -0.281 N 
ATOM      4  H1  UNL     1      16.212  10.832  38.500  0.00  0.00    +0.155 HD
ENDROOT
BRANCH   3   5
ATOM      5  C2  UNL     1      17.486   9.413  37.558  0.00  0.00    +0.036 A 
ATOM      6  C3  UNL     1      17.036   8.070  37.627  0.00  0.00    +0.025 A 
ATOM      7  C4  UNL     1      17.952   7.001  37.646  0.00  0.00    +0.032 A 
ATOM      8  C5  UNL     1      19.308   7.310  37.609  0.00  0.00    +0.089 A 
ATOM      9  N2  UNL     1      20.348   6.458  37.642  0.00  0.00    -0.230 NA
ATOM     10  C6  UNL     1      21.419   7.294  37.602  0.00  0.00    +0.134 A 
ATOM     11  N3  UNL     1      21.086   8.608  37.567  0.00  0.00    -0.340 N 
ATOM     12  C8  UNL     1      19.749   8.599  37.564  0.00  0.00    +0.068 A 
ATOM     13  C9  UNL     1      18.876   9.684  37.546  0.00  0.00    +0.051 A 
ATOM     14  H7  UNL     1      21.725   9.435  37.554  0.00  0.00    +0.167 HD
BRANCH  10  15
ATOM     15  C7  UNL     1      22.833   6.809  37.673  0.00  0.00    +0.229 C 
BRANCH  15  16
ATOM     16  O2  UNL     1      23.607   7.437  36.689  0.00  0.00    -0.387 OA
ATOM     17  H6  UNL     1      24.357   6.819  36.482  0.00  0.00    +0.210 HD
ENDBRANCH  15  16
ENDBRANCH  10  15
ENDBRANCH   3   5
BRANCH   2  18
ATOM     18  C10 UNL     1      14.866  12.059  36.489  0.00  0.00    +0.064 A 
ATOM     19  C11 UNL     1      15.027  13.310  37.085  0.00  0.00    +0.098 A 
ATOM     20  N4  UNL     1      13.883  14.026  37.006  0.00  0.00    -0.345 N 
ATOM     21  C12 UNL     1      13.010  13.244  36.351  0.00  0.00    +0.139 A 
ATOM     22  N5  UNL     1      11.743  13.583  36.005  0.00  0.00    -0.237 NA
ATOM     23  C13 UNL     1      10.991  12.695  35.288  0.00  0.00    +0.113 A 
ATOM     24  C14 UNL     1      11.532  11.452  34.892  0.00  0.00    +0.020 A 
ATOM     25  C15 UNL     1      12.849  11.117  35.249  0.00  0.00    +0.014 A 
ATOM     26  C16 UNL     1      13.567  12.040  36.010  0.00  0.00    +0.031 A 
ATOM     27  H10 UNL     1      13.720  14.994  37.363  0.00  0.00    +0.167 HD
ENDBRANCH   2  18
TORSDOF 4
ENDMDL
MODEL 6
REMARK VINA RESULT:    -6.084     13.119     14.947
REMARK INTER + INTRA:          -7.782
REMARK INTER:                  -7.535
REMARK INTRA:                  -0.247
REMARK UNBOUND:                -0.453
REMARK  Name = /home/qwerty/github/datacon2025hack/step_04_hit_selection/docking/ligands/lig_594.pdb
REMARK  4 active torsions:
REMARK  status: ('A' for Active; 'I' for Inactive)
REMARK    1  A    between atoms: C1_2  and  C10_15
REMARK    2  A    between atoms: N1_3  and  C2_4
REMARK    3  A    between atoms: C6_9  and  C7_10
REMARK    4  A    between atoms: C7_10  and  O2_11
REMARK                            x       y       z     vdW  Elec       q    Type
REMARK                         _______ _______ _______ _____ _____    ______ ____
ROOT
ATOM      1  O1  UNL     1      21.708   6.027  32.183  0.00  0.00    -0.270 OA
ATOM      2  C1  UNL     1      21.817   5.711  33.398  0.00  0.00    +0.250 C 
ATOM      3  N1  UNL     1      21.781   4.331  33.800  0.00  0.00    -0.281 N 
ATOM      4  H1  UNL     1      21.884   4.102  34.813  0.00  0.00    +0.155 HD
ENDROOT
BRANCH   3   5
ATOM      5  C2  UNL     1      21.542   3.235  32.902  0.00  0.00    +0.036 A 
ATOM      6  C3  UNL     1      20.470   2.345  33.173  0.00  0.00    +0.025 A 
ATOM      7  C4  UNL     1      20.218   1.243  32.334  0.00  0.00    +0.032 A 
ATOM      8  C5  UNL     1      21.061   1.052  31.244  0.00  0.00    +0.089 A 
ATOM      9  N2  UNL     1      21.019   0.064  30.333  0.00  0.00    -0.230 NA
ATOM     10  C6  UNL     1      22.071   0.358  29.525  0.00  0.00    +0.134 A 
ATOM     11  N3  UNL     1      22.762   1.461  29.907  0.00  0.00    -0.340 N 
ATOM     12  C8  UNL     1      22.104   1.891  30.989  0.00  0.00    +0.068 A 
ATOM     13  C9  UNL     1      22.390   2.990  31.796  0.00  0.00    +0.051 A 
ATOM     14  H7  UNL     1      23.614   1.874  29.464  0.00  0.00    +0.167 HD
BRANCH  10  15
ATOM     15  C7  UNL     1      22.477  -0.504  28.371  0.00  0.00    +0.229 C 
BRANCH  15  16
ATOM     16  O2  UNL     1      22.919  -1.750  28.833  0.00  0.00    -0.387 OA
ATOM     17  H6  UNL     1      23.909  -1.694  28.896  0.00  0.00    +0.210 HD
ENDBRANCH  15  16
ENDBRANCH  10  15
ENDBRANCH   3   5
BRANCH   2  18
ATOM     18  C10 UNL     1      22.000   6.780  34.394  0.00  0.00    +0.064 A 
ATOM     19  C11 UNL     1      23.208   7.131  34.998  0.00  0.00    +0.098 A 
ATOM     20  N4  UNL     1      23.029   8.156  35.861  0.00  0.00    -0.345 N 
ATOM     21  C12 UNL     1      21.724   8.462  35.794  0.00  0.00    +0.139 A 
ATOM     22  N5  UNL     1      21.109   9.469  36.464  0.00  0.00    -0.237 NA
ATOM     23  C13 UNL     1      19.777   9.692  36.249  0.00  0.00    +0.113 A 
ATOM     24  C14 UNL     1      19.057   8.903  35.326  0.00  0.00    +0.020 A 
ATOM     25  C15 UNL     1      19.708   7.870  34.631  0.00  0.00    +0.014 A 
ATOM     26  C16 UNL     1      21.059   7.657  34.909  0.00  0.00    +0.031 A 
ATOM     27  H10 UNL     1      23.759   8.622  36.444  0.00  0.00    +0.167 HD
ENDBRANCH   2  18
TORSDOF 4
ENDMDL
MODEL 7
REMARK VINA RESULT:    -6.070      7.411      9.585
REMARK INTER + INTRA:          -7.765
REMARK INTER:                  -7.302
REMARK INTRA:                  -0.462
REMARK UNBOUND:                -0.453
REMARK  Name = /home/qwerty/github/datacon2025hack/step_04_hit_selection/docking/ligands/lig_594.pdb
REMARK  4 active torsions:
REMARK  status: ('A' for Active; 'I' for Inactive)
REMARK    1  A    between atoms: C1_2  and  C10_15
REMARK    2  A    between atoms: N1_3  and  C2_4
REMARK    3  A    between atoms: C6_9  and  C7_10
REMARK    4  A    between atoms: C7_10  and  O2_11
REMARK                            x       y       z     vdW  Elec       q    Type
REMARK                         _______ _______ _______ _____ _____    ______ ____
ROOT
ATOM      1  O1  UNL     1      17.594   5.788  20.912  0.00  0.00    -0.270 OA
ATOM      2  C1  UNL     1      16.791   5.723  19.943  0.00  0.00    +0.250 C 
ATOM      3  N1  UNL     1      16.809   6.725  18.911  0.00  0.00    -0.281 N 
ATOM      4  H1  UNL     1      16.137   6.636  18.117  0.00  0.00    +0.155 HD
ENDROOT
BRANCH   3   5
ATOM      5  C2  UNL     1      17.649   7.890  18.931  0.00  0.00    +0.036 A 
ATOM      6  C3  UNL     1      18.965   7.798  18.409  0.00  0.00    +0.025 A 
ATOM      7  C4  UNL     1      19.829   8.909  18.433  0.00  0.00    +0.032 A 
ATOM      8  C5  UNL     1      19.354  10.088  18.996  0.00  0.00    +0.089 A 
ATOM      9  N2  UNL     1      20.009  11.253  19.144  0.00  0.00    -0.230 NA
ATOM     10  C6  UNL     1      19.087  12.037  19.763  0.00  0.00    +0.134 A 
ATOM     11  N3  UNL     1      17.914  11.406  20.017  0.00  0.00    -0.340 N 
ATOM     12  C8  UNL     1      18.098  10.178  19.519  0.00  0.00    +0.068 A 
ATOM     13  C9  UNL     1      17.213   9.103  19.518  0.00  0.00    +0.051 A 
ATOM     14  H7  UNL     1      17.068  11.785  20.498  0.00  0.00    +0.167 HD
BRANCH  10  15
ATOM     15  C7  UNL     1      19.372  13.441  20.197  0.00  0.00    +0.229 C 
BRANCH  15  16
ATOM     16  O2  UNL     1      19.769  14.212  19.097  0.00  0.00    -0.387 OA
ATOM     17  H6  UNL     1      20.698  13.937  18.879  0.00  0.00    +0.210 HD
ENDBRANCH  15  16
ENDBRANCH  10  15
ENDBRANCH   3   5
BRANCH   2  18
ATOM     18  C10 UNL     1      15.850   4.592  19.879  0.00  0.00    +0.064 A 
ATOM     19  C11 UNL     1      16.175   3.282  19.531  0.00  0.00    +0.098 A 
ATOM     20  N4  UNL     1      15.079   2.491  19.575  0.00  0.00    -0.345 N 
ATOM     21  C12 UNL     1      14.072   3.289  19.963  0.00  0.00    +0.139 A 
ATOM     22  N5  UNL     1      12.792   2.901  20.185  0.00  0.00    -0.237 NA
ATOM     23  C13 UNL     1      11.887   3.823  20.632  0.00  0.00    +0.113 A 
ATOM     24  C14 UNL     1      12.284   5.156  20.881  0.00  0.00    +0.020 A 
ATOM     25  C15 UNL     1      13.615   5.542  20.656  0.00  0.00    +0.014 A 
ATOM     26  C16 UNL     1      14.495   4.575  20.167  0.00  0.00    +0.031 A 
ATOM     27  H10 UNL     1      15.032   1.469  19.368  0.00  0.00    +0.167 HD
ENDBRANCH   2  18
TORSDOF 4
ENDMDL
MODEL 8
REMARK VINA RESULT:    -6.022      2.194      8.649
REMARK INTER + INTRA:          -7.707
REMARK INTER:                  -7.262
REMARK INTRA:                  -0.445
REMARK UNBOUND:                -0.453
REMARK  Name = /home/qwerty/github/datacon2025hack/step_04_hit_selection/docking/ligands/lig_594.pdb
REMARK  4 active torsions:
REMARK  status: ('A' for Active; 'I' for Inactive)
REMARK    1  A    between atoms: C1_2  and  C10_15
REMARK    2  A    between atoms: N1_3  and  C2_4
REMARK    3  A    between atoms: C6_9  and  C7_10
REMARK    4  A    between atoms: C7_10  and  O2_11
REMARK                            x       y       z     vdW  Elec       q    Type
REMARK                         _______ _______ _______ _____ _____    ______ ____
ROOT
ATOM      1  O1  UNL     1      13.488   2.433  23.250  0.00  0.00    -0.270 OA
ATOM      2  C1  UNL     1      13.280   1.419  22.532  0.00  0.00    +0.250 C 
ATOM      3  N1  UNL     1      12.006   1.227  21.892  0.00  0.00    -0.281 N 
ATOM      4  H1  UNL     1      11.869   0.381  21.295  0.00  0.00    +0.155 HD
ENDROOT
BRANCH   3   5
ATOM      5  C2  UNL     1      10.874   2.093  22.071  0.00  0.00    +0.036 A 
ATOM      6  C3  UNL     1      10.053   1.924  23.216  0.00  0.00    +0.025 A 
ATOM      7  C4  UNL     1       8.919   2.733  23.418  0.00  0.00    +0.032 A 
ATOM      8  C5  UNL     1       8.626   3.690  22.451  0.00  0.00    +0.089 A 
ATOM      9  N2  UNL     1       7.590   4.547  22.428  0.00  0.00    -0.230 NA
ATOM     10  C6  UNL     1       7.787   5.220  21.264  0.00  0.00    +0.134 A 
ATOM     11  N3  UNL     1       8.875   4.806  20.569  0.00  0.00    -0.340 N 
ATOM     12  C8  UNL     1       9.398   3.844  21.338  0.00  0.00    +0.068 A 
ATOM     13  C9  UNL     1      10.525   3.062  21.100  0.00  0.00    +0.051 A 
ATOM     14  H7  UNL     1       9.221   5.151  19.646  0.00  0.00    +0.167 HD
BRANCH  10  15
ATOM     15  C7  UNL     1       6.843   6.266  20.759  0.00  0.00    +0.229 C 
BRANCH  15  16
ATOM     16  O2  UNL     1       5.605   5.687  20.452  0.00  0.00    -0.387 OA
ATOM     17  H6  UNL     1       5.032   6.416  20.095  0.00  0.00    +0.210 HD
ENDBRANCH  15  16
ENDBRANCH  10  15
ENDBRANCH   3   5
BRANCH   2  18
ATOM     18  C10 UNL     1      14.369   0.445  22.347  0.00  0.00    +0.064 A 
ATOM     19  C11 UNL     1      15.207   0.365  21.235  0.00  0.00    +0.098 A 
ATOM     20  N4  UNL     1      16.103  -0.637  21.385  0.00  0.00    -0.345 N 
ATOM     21  C12 UNL     1      15.845  -1.176  22.587  0.00  0.00    +0.139 A 
ATOM     22  N5  UNL     1      16.537  -2.187  23.170  0.00  0.00    -0.237 NA
ATOM     23  C13 UNL     1      16.187  -2.592  24.427  0.00  0.00    +0.113 A 
ATOM     24  C14 UNL     1      15.136  -1.954  25.121  0.00  0.00    +0.020 A 
ATOM     25  C15 UNL     1      14.433  -0.902  24.510  0.00  0.00    +0.014 A 
ATOM     26  C16 UNL     1      14.803  -0.545  23.212  0.00  0.00    +0.031 A 
ATOM     27  H10 UNL     1      16.850  -0.919  20.713  0.00  0.00    +0.167 HD
ENDBRANCH   2  18
TORSDOF 4
ENDMDL
MODEL 9
REMARK VINA RESULT:    -5.819      2.901      3.929
REMARK INTER + INTRA:          -7.462
REMARK INTER:                  -7.057
REMARK INTRA:                  -0.405
REMARK UNBOUND:                -0.453
REMARK  Name = /home/qwerty/github/datacon2025hack/step_04_hit_selection/docking/ligands/lig_594.pdb
REMARK  4 active torsions:
REMARK  status: ('A' for Active; 'I' for Inactive)
REMARK    1  A    between atoms: C1_2  and  C10_15
REMARK    2  A    between atoms: N1_3  and  C2_4
REMARK    3  A    between atoms: C6_9  and  C7_10
REMARK    4  A    between atoms: C7_10  and  O2_11
REMARK                            x       y       z     vdW  Elec       q    Type
REMARK                         _______ _______ _______ _____ _____    ______ ____
ROOT
ATOM      1  O1  UNL     1      11.894   5.588  22.386  0.00  0.00    -0.270 OA
ATOM      2  C1  UNL     1      11.182   5.532  21.348  0.00  0.00    +0.250 C 
ATOM      3  N1  UNL     1      11.556   4.680  20.251  0.00  0.00    -0.281 N 
ATOM      4  H1  UNL     1      10.939   4.650  19.410  0.00  0.00    +0.155 HD
ENDROOT
BRANCH   3   5
ATOM      5  C2  UNL     1      12.768   3.911  20.204  0.00  0.00    +0.036 A 
ATOM      6  C3  UNL     1      13.935   4.498  19.651  0.00  0.00    +0.025 A 
ATOM      7  C4  UNL     1      15.137   3.770  19.561  0.00  0.00    +0.032 A 
ATOM      8  C5  UNL     1      15.133   2.456  20.019  0.00  0.00    +0.089 A 
ATOM      9  N2  UNL     1      16.152   1.579  20.008  0.00  0.00    -0.230 NA
ATOM     10  C6  UNL     1      15.590   0.464  20.546  0.00  0.00    +0.134 A 
ATOM     11  N3  UNL     1      14.280   0.611  20.865  0.00  0.00    -0.340 N 
ATOM     12  C8  UNL     1      14.011   1.879  20.532  0.00  0.00    +0.068 A 
ATOM     13  C9  UNL     1      12.803   2.563  20.636  0.00  0.00    +0.051 A 
ATOM     14  H7  UNL     1      13.630  -0.101  21.267  0.00  0.00    +0.167 HD
BRANCH  10  15
ATOM     15  C7  UNL     1      16.329  -0.829  20.695  0.00  0.00    +0.229 C 
BRANCH  15  16
ATOM     16  O2  UNL     1      15.717  -1.621  21.675  0.00  0.00    -0.387 OA
ATOM     17  H6  UNL     1      15.090  -2.227  21.198  0.00  0.00    +0.210 HD
ENDBRANCH  15  16
ENDBRANCH  10  15
ENDBRANCH   3   5
BRANCH   2  18
ATOM     18  C10 UNL     1       9.953   6.341  21.288  0.00  0.00    +0.064 A 
ATOM     19  C11 UNL     1       8.669   5.853  21.048  0.00  0.00    +0.098 A 
ATOM     20  N4  UNL     1       7.766   6.859  21.062  0.00  0.00    -0.345 N 
ATOM     21  C12 UNL     1       8.468   7.973  21.325  0.00  0.00    +0.139 A 
ATOM     22  N5  UNL     1       7.955   9.219  21.478  0.00  0.00    -0.237 NA
ATOM     23  C13 UNL     1       8.795  10.248  21.799  0.00  0.00    +0.113 A 
ATOM     24  C14 UNL     1      10.175  10.015  21.992  0.00  0.00    +0.020 A 
ATOM     25  C15 UNL     1      10.692   8.718  21.839  0.00  0.00    +0.014 A 
ATOM     26  C16 UNL     1       9.803   7.706  21.478  0.00  0.00    +0.031 A 
ATOM     27  H10 UNL     1       6.735   6.782  20.918  0.00  0.00    +0.167 HD
ENDBRANCH   2  18
TORSDOF 4
ENDMDL
