REMARK  Name = /home/qwerty/github/datacon2025hack/step_04_hit_selection/docking/ligands/lig_575.pdb
REMARK  5 active torsions:
REMARK  status: ('A' for Active; 'I' for Inactive)
REMARK    1  A    between atoms: C1_1  and  C2_2
REMARK    2  A    between atoms: C4_4  and  N1_5
REMARK    3  A    between atoms: C5_6  and  C6_8
REMARK    4  A    between atoms: C8_12  and  O3_13
REMARK    5  A    between atoms: C10_15  and  C11_16
REMARK                            x       y       z     vdW  Elec       q    Type
REMARK                         _______ _______ _______ _____ _____    ______ ____
ROOT
ATOM      1  C6  UNL     1      -0.417  -0.531   0.441  0.00  0.00    +0.302 C 
ATOM      2  O2  UNL     1      -0.682  -0.217   1.633  0.00  0.00    -0.265 OA
ATOM      3  N2  UNL     1      -1.470  -1.053  -0.398  0.00  0.00    -0.284 N 
ATOM      4  C7  UNL     1      -1.244  -1.885  -1.571  0.00  0.00    +0.140 C 
ATOM      5  C8  UNL     1      -2.578  -2.578  -1.853  0.00  0.00    +0.134 C 
ATOM      6  C9  UNL     1      -3.636  -1.755  -1.113  0.00  0.00    +0.060 C 
ATOM      7  C10 UNL     1      -2.877  -1.008  -0.012  0.00  0.00    +0.109 C 
ENDROOT
BRANCH   7   8
ATOM      8  C11 UNL     1      -3.366   0.418   0.138  0.00  0.00    -0.024 A 
ATOM      9  C12 UNL     1      -3.047   1.394  -0.825  0.00  0.00    +0.005 A 
ATOM     10  C13 UNL     1      -3.518   2.703  -0.686  0.00  0.00    +0.003 A 
ATOM     11  C14 UNL     1      -4.316   3.048   0.408  0.00  0.00    +0.038 A 
ATOM     12  C15 UNL     1      -4.649   2.083   1.363  0.00  0.00    +0.124 A 
ATOM     13  F1  UNL     1      -5.429   2.418   2.420  0.00  0.00    -0.205 F 
ATOM     14  C16 UNL     1      -4.180   0.772   1.227  0.00  0.00    +0.043 A 
ENDBRANCH   7   8
BRANCH   1  16
ATOM     15  N1  UNL     1       2.018   0.013   0.857  0.00  0.00    -0.276 N 
ATOM     16  C5  UNL     1       0.965  -0.343  -0.056  0.00  0.00    +0.303 C 
ATOM     17  O1  UNL     1       1.209  -0.439  -1.289  0.00  0.00    -0.265 OA
ATOM     18  H5  UNL     1       1.754   0.404   1.789  0.00  0.00    +0.155 HD
BRANCH  15  22
ATOM     19  C1  UNL     1       6.611   1.826   1.454  0.00  0.00    +0.047 C 
ATOM     20  C2  UNL     1       5.670   0.836   0.825  0.00  0.00    -0.012 A 
ATOM     21  C3  UNL     1       4.299   0.878   1.119  0.00  0.00    +0.031 A 
ATOM     22  C4  UNL     1       3.416  -0.032   0.525  0.00  0.00    +0.052 A 
ATOM     23  C17 UNL     1       3.938  -1.008  -0.338  0.00  0.00    +0.135 A 
ATOM     24  N3  UNL     1       5.269  -1.039  -0.609  0.00  0.00    -0.241 NA
ATOM     25  C18 UNL     1       6.139  -0.149  -0.064  0.00  0.00    +0.132 A 
ATOM     26 CL1  UNL     1       7.841  -0.274  -0.486  0.00  0.00    -0.062 Cl
ENDBRANCH  15  22
ENDBRANCH   1  16
BRANCH   5  27
ATOM     27  O3  UNL     1      -2.564  -3.910  -1.397  0.00  0.00    -0.390 OA
ATOM     28  H9  UNL     1      -2.379  -3.897  -0.421  0.00  0.00    +0.210 HD
ENDBRANCH   5  27
TORSDOF 4
