MODEL 1
REMARK VINA RESULT:    -6.534      0.000      0.000
REMARK INTER + INTRA:          -7.718
REMARK INTER:                  -7.680
REMARK INTRA:                  -0.038
REMARK UNBOUND:                -0.038
REMARK  Name = /home/qwerty/github/datacon2025hack/step_04_hit_selection/docking/ligands/lig_16.pdb
REMARK  3 active torsions:
REMARK  status: ('A' for Active; 'I' for Inactive)
REMARK    1  A    between atoms: C1_2  and  C14_19
REMARK    2  A    between atoms: N1_3  and  C2_4
REMARK    3  A    between atoms: C4_7  and  C5_9
REMARK                            x       y       z     vdW  Elec       q    Type
REMARK                         _______ _______ _______ _____ _____    ______ ____
ROOT
ATOM      1  C2  UNL     1      19.479   0.842  30.910  0.00  0.00    +0.108 C 
ATOM      2  C3  UNL     1      18.753   0.232  32.071  0.00  0.00    +0.132 C 
ATOM      3  N2  UNL     1      18.801   1.429  32.931  0.00  0.00    -0.293 N 
ATOM      4  C4  UNL     1      18.344   1.774  34.241  0.00  0.00    +0.253 C 
ATOM      5  O2  UNL     1      17.732   0.909  34.922  0.00  0.00    -0.269 OA
ATOM      6  C13 UNL     1      19.520   2.045  31.798  0.00  0.00    +0.132 C 
ENDROOT
BRANCH   4   7
ATOM      7  C5  UNL     1      18.573   3.115  34.809  0.00  0.00    +0.075 A 
ATOM      8  C6  UNL     1      18.051   3.575  36.017  0.00  0.00    +0.024 A 
ATOM      9  C7  UNL     1      18.441   4.886  36.321  0.00  0.00    -0.036 A 
ATOM     10  C8  UNL     1      19.229   5.469  35.339  0.00  0.00    -0.006 A 
ATOM     11  S1  UNL     1      19.502   4.346  34.120  0.00  0.00    -0.088 S 
ATOM     12  C9  UNL     1      19.850   6.828  35.448  0.00  0.00    +0.043 C 
ATOM     13  C10 UNL     1      19.119   7.676  36.504  0.00  0.00    +0.005 C 
ATOM     14  C11 UNL     1      18.874   6.874  37.795  0.00  0.00    +0.005 C 
ATOM     15  C12 UNL     1      17.980   5.647  37.532  0.00  0.00    +0.036 C 
ENDBRANCH   4   7
BRANCH   1  18
ATOM     16  O1  UNL     1      21.048   1.338  28.613  0.00  0.00    -0.270 OA
ATOM     17  C1  UNL     1      21.546   0.573  29.482  0.00  0.00    +0.247 C 
ATOM     18  N1  UNL     1      20.806   0.268  30.674  0.00  0.00    -0.305 N 
ATOM     19  H1  UNL     1      21.196  -0.420  31.355  0.00  0.00    +0.149 HD
BRANCH  17  20
ATOM     20  C14 UNL     1      22.888   0.007  29.253  0.00  0.00    +0.074 A 
ATOM     21  C15 UNL     1      23.229  -1.295  28.930  0.00  0.00    +0.147 A 
ATOM     22  N3  UNL     1      24.569  -1.385  28.816  0.00  0.00    -0.182 NA
ATOM     23  N4  UNL     1      25.078  -0.188  29.056  0.00  0.00    -0.284 N 
ATOM     24  C16 UNL     1      24.090   0.682  29.326  0.00  0.00    +0.118 A 
ATOM     25  H17 UNL     1      26.099   0.030  29.037  0.00  0.00    +0.188 HD
ENDBRANCH  17  20
ENDBRANCH   1  18
TORSDOF 3
ENDMDL
MODEL 2
REMARK VINA RESULT:    -6.471     12.907     15.645
REMARK INTER + INTRA:          -7.644
REMARK INTER:                  -7.238
REMARK INTRA:                  -0.406
REMARK UNBOUND:                -0.038
REMARK  Name = /home/qwerty/github/datacon2025hack/step_04_hit_selection/docking/ligands/lig_16.pdb
REMARK  3 active torsions:
REMARK  status: ('A' for Active; 'I' for Inactive)
REMARK    1  A    between atoms: C1_2  and  C14_19
REMARK    2  A    between atoms: N1_3  and  C2_4
REMARK    3  A    between atoms: C4_7  and  C5_9
REMARK                            x       y       z     vdW  Elec       q    Type
REMARK                         _______ _______ _______ _____ _____    ______ ____
ROOT
ATOM      1  C2  UNL     1      23.492  11.481  19.866  0.00  0.00    +0.108 C 
ATOM      2  C3  UNL     1      24.407  10.444  19.286  0.00  0.00    +0.132 C 
ATOM      3  N2  UNL     1      23.743   9.285  19.910  0.00  0.00    -0.293 N 
ATOM      4  C4  UNL     1      23.932   7.867  19.910  0.00  0.00    +0.253 C 
ATOM      5  O2  UNL     1      24.880   7.378  19.240  0.00  0.00    -0.269 OA
ATOM      6  C13 UNL     1      22.835  10.292  20.493  0.00  0.00    +0.132 C 
ENDROOT
BRANCH   4   7
ATOM      7  C5  UNL     1      23.047   6.971  20.676  0.00  0.00    +0.075 A 
ATOM      8  C6  UNL     1      23.063   6.819  22.062  0.00  0.00    +0.024 A 
ATOM      9  C7  UNL     1      22.102   5.911  22.527  0.00  0.00    -0.036 A 
ATOM     10  C8  UNL     1      21.364   5.320  21.510  0.00  0.00    -0.006 A 
ATOM     11  S1  UNL     1      21.850   5.965  20.038  0.00  0.00    -0.088 S 
ATOM     12  C9  UNL     1      20.221   4.379  21.733  0.00  0.00    +0.043 C 
ATOM     13  C10 UNL     1      20.289   3.763  23.141  0.00  0.00    +0.005 C 
ATOM     14  C11 UNL     1      20.576   4.836  24.208  0.00  0.00    +0.005 C 
ATOM     15  C12 UNL     1      21.937   5.516  23.967  0.00  0.00    +0.036 C 
ENDBRANCH   4   7
BRANCH   1  18
ATOM     16  O1  UNL     1      22.533  14.032  20.608  0.00  0.00    -0.270 OA
ATOM     17  C1  UNL     1      23.585  13.637  21.180  0.00  0.00    +0.247 C 
ATOM     18  N1  UNL     1      24.138  12.353  20.851  0.00  0.00    -0.305 N 
ATOM     19  H1  UNL     1      25.046  12.064  21.277  0.00  0.00    +0.149 HD
BRANCH  17  20
ATOM     20  C14 UNL     1      24.226  14.508  22.182  0.00  0.00    +0.074 A 
ATOM     21  C15 UNL     1      24.606  15.833  22.053  0.00  0.00    +0.147 A 
ATOM     22  N3  UNL     1      25.162  16.247  23.208  0.00  0.00    -0.182 NA
ATOM     23  N4  UNL     1      25.144  15.231  24.055  0.00  0.00    -0.284 N 
ATOM     24  C16 UNL     1      24.585  14.159  23.469  0.00  0.00    +0.118 A 
ATOM     25  H17 UNL     1      25.515  15.273  25.030  0.00  0.00    +0.188 HD
ENDBRANCH  17  20
ENDBRANCH   1  18
TORSDOF 3
ENDMDL
MODEL 3
REMARK VINA RESULT:    -6.321      6.557     10.132
REMARK INTER + INTRA:          -7.468
REMARK INTER:                  -7.224
REMARK INTRA:                  -0.243
REMARK UNBOUND:                -0.038
REMARK  Name = /home/qwerty/github/datacon2025hack/step_04_hit_selection/docking/ligands/lig_16.pdb
REMARK  3 active torsions:
REMARK  status: ('A' for Active; 'I' for Inactive)
REMARK    1  A    between atoms: C1_2  and  C14_19
REMARK    2  A    between atoms: N1_3  and  C2_4
REMARK    3  A    between atoms: C4_7  and  C5_9
REMARK                            x       y       z     vdW  Elec       q    Type
REMARK                         _______ _______ _______ _____ _____    ______ ____
ROOT
ATOM      1  C2  UNL     1      19.876   1.790  27.902  0.00  0.00    +0.108 C 
ATOM      2  C3  UNL     1      20.089   3.090  27.188  0.00  0.00    +0.132 C 
ATOM      3  N2  UNL     1      19.158   2.815  26.079  0.00  0.00    -0.293 N 
ATOM      4  C4  UNL     1      18.713   3.510  24.911  0.00  0.00    +0.253 C 
ATOM      5  O2  UNL     1      19.170   4.659  24.673  0.00  0.00    -0.269 OA
ATOM      6  C13 UNL     1      18.938   1.527  26.766  0.00  0.00    +0.132 C 
ENDROOT
BRANCH   4   7
ATOM      7  C5  UNL     1      17.735   2.912  23.984  0.00  0.00    +0.075 A 
ATOM      8  C6  UNL     1      17.788   3.001  22.593  0.00  0.00    +0.024 A 
ATOM      9  C7  UNL     1      16.738   2.327  21.958  0.00  0.00    -0.036 A 
ATOM     10  C8  UNL     1      15.839   1.747  22.843  0.00  0.00    -0.006 A 
ATOM     11  S1  UNL     1      16.373   2.009  24.413  0.00  0.00    -0.088 S 
ATOM     12  C9  UNL     1      14.675   0.900  22.432  0.00  0.00    +0.043 C 
ATOM     13  C10 UNL     1      14.302   1.163  20.963  0.00  0.00    +0.005 C 
ATOM     14  C11 UNL     1      15.552   1.181  20.063  0.00  0.00    +0.005 C 
ATOM     15  C12 UNL     1      16.521   2.306  20.471  0.00  0.00    +0.036 C 
ENDBRANCH   4   7
BRANCH   1  18
ATOM     16  O1  UNL     1      21.710   1.530  30.034  0.00  0.00    -0.270 OA
ATOM     17  C1  UNL     1      21.930   0.825  29.012  0.00  0.00    +0.247 C 
ATOM     18  N1  UNL     1      21.045   0.907  27.884  0.00  0.00    -0.305 N 
ATOM     19  H1  UNL     1      21.273   0.374  27.017  0.00  0.00    +0.149 HD
BRANCH  17  20
ATOM     20  C14 UNL     1      23.098  -0.075  29.000  0.00  0.00    +0.074 A 
ATOM     21  C15 UNL     1      24.434   0.248  29.168  0.00  0.00    +0.147 A 
ATOM     22  N3  UNL     1      25.173  -0.875  29.080  0.00  0.00    -0.182 NA
ATOM     23  N4  UNL     1      24.350  -1.888  28.864  0.00  0.00    -0.284 N 
ATOM     24  C16 UNL     1      23.084  -1.441  28.808  0.00  0.00    +0.118 A 
ATOM     25  H17 UNL     1      24.656  -2.880  28.753  0.00  0.00    +0.188 HD
ENDBRANCH  17  20
ENDBRANCH   1  18
TORSDOF 3
ENDMDL
MODEL 4
REMARK VINA RESULT:    -6.278     12.817     15.070
REMARK INTER + INTRA:          -7.417
REMARK INTER:                  -7.081
REMARK INTRA:                  -0.336
REMARK UNBOUND:                -0.038
REMARK  Name = /home/qwerty/github/datacon2025hack/step_04_hit_selection/docking/ligands/lig_16.pdb
REMARK  3 active torsions:
REMARK  status: ('A' for Active; 'I' for Inactive)
REMARK    1  A    between atoms: C1_2  and  C14_19
REMARK    2  A    between atoms: N1_3  and  C2_4
REMARK    3  A    between atoms: C4_7  and  C5_9
REMARK                            x       y       z     vdW  Elec       q    Type
REMARK                         _______ _______ _______ _____ _____    ______ ____
ROOT
ATOM      1  C2  UNL     1      12.417  14.397  33.490  0.00  0.00    +0.108 C 
ATOM      2  C3  UNL     1      12.413  14.944  32.094  0.00  0.00    +0.132 C 
ATOM      3  N2  UNL     1      11.546  13.900  31.520  0.00  0.00    -0.293 N 
ATOM      4  C4  UNL     1      10.996  13.612  30.231  0.00  0.00    +0.253 C 
ATOM      5  O2  UNL     1      11.256  14.383  29.270  0.00  0.00    -0.269 OA
ATOM      6  C13 UNL     1      11.542  13.344  32.887  0.00  0.00    +0.132 C 
ENDROOT
BRANCH   4   7
ATOM      7  C5  UNL     1      10.136  12.436  30.006  0.00  0.00    +0.075 A 
ATOM      8  C6  UNL     1      10.496  11.115  30.272  0.00  0.00    +0.024 A 
ATOM      9  C7  UNL     1       9.479  10.198  29.976  0.00  0.00    -0.036 A 
ATOM     10  C8  UNL     1       8.342  10.788  29.440  0.00  0.00    -0.006 A 
ATOM     11  S1  UNL     1       8.563  12.451  29.390  0.00  0.00    -0.088 S 
ATOM     12  C9  UNL     1       7.081  10.050  29.113  0.00  0.00    +0.043 C 
ATOM     13  C10 UNL     1       7.356   8.544  28.959  0.00  0.00    +0.005 C 
ATOM     14  C11 UNL     1       8.240   8.016  30.104  0.00  0.00    +0.005 C 
ATOM     15  C12 UNL     1       9.616   8.707  30.114  0.00  0.00    +0.036 C 
ENDBRANCH   4   7
BRANCH   1  18
ATOM     16  O1  UNL     1      13.770  15.201  35.835  0.00  0.00    -0.270 OA
ATOM     17  C1  UNL     1      14.341  14.329  35.126  0.00  0.00    +0.247 C 
ATOM     18  N1  UNL     1      13.718  13.874  33.915  0.00  0.00    -0.305 N 
ATOM     19  H1  UNL     1      14.229  13.204  33.299  0.00  0.00    +0.149 HD
BRANCH  17  20
ATOM     20  C14 UNL     1      15.642  13.791  35.563  0.00  0.00    +0.074 A 
ATOM     21  C15 UNL     1      16.748  13.481  34.789  0.00  0.00    +0.147 A 
ATOM     22  N3  UNL     1      17.726  13.010  35.586  0.00  0.00    -0.182 NA
ATOM     23  N4  UNL     1      17.274  13.013  36.830  0.00  0.00    -0.284 N 
ATOM     24  C16 UNL     1      16.014  13.479  36.855  0.00  0.00    +0.118 A 
ATOM     25  H17 UNL     1      17.827  12.695  37.657  0.00  0.00    +0.188 HD
ENDBRANCH  17  20
ENDBRANCH   1  18
TORSDOF 3
ENDMDL
MODEL 5
REMARK VINA RESULT:    -6.087      7.279      9.576
REMARK INTER + INTRA:          -7.192
REMARK INTER:                  -6.835
REMARK INTRA:                  -0.356
REMARK UNBOUND:                -0.038
REMARK  Name = /home/qwerty/github/datacon2025hack/step_04_hit_selection/docking/ligands/lig_16.pdb
REMARK  3 active torsions:
REMARK  status: ('A' for Active; 'I' for Inactive)
REMARK    1  A    between atoms: C1_2  and  C14_19
REMARK    2  A    between atoms: N1_3  and  C2_4
REMARK    3  A    between atoms: C4_7  and  C5_9
REMARK                            x       y       z     vdW  Elec       q    Type
REMARK                         _______ _______ _______ _____ _____    ______ ____
ROOT
ATOM      1  C2  UNL     1      20.680   4.946  23.140  0.00  0.00    +0.108 C 
ATOM      2  C3  UNL     1      20.271   3.525  22.895  0.00  0.00    +0.132 C 
ATOM      3  N2  UNL     1      20.460   3.067  24.284  0.00  0.00    -0.293 N 
ATOM      4  C4  UNL     1      20.301   1.834  24.992  0.00  0.00    +0.253 C 
ATOM      5  O2  UNL     1      19.904   0.817  24.365  0.00  0.00    -0.269 OA
ATOM      6  C13 UNL     1      20.869   4.461  24.543  0.00  0.00    +0.132 C 
ENDROOT
BRANCH   4   7
ATOM      7  C5  UNL     1      20.591   1.731  26.433  0.00  0.00    +0.075 A 
ATOM      8  C6  UNL     1      19.679   1.332  27.410  0.00  0.00    +0.024 A 
ATOM      9  C7  UNL     1      20.228   1.310  28.699  0.00  0.00    -0.036 A 
ATOM     10  C8  UNL     1      21.550   1.730  28.743  0.00  0.00    -0.006 A 
ATOM     11  S1  UNL     1      22.067   2.068  27.182  0.00  0.00    -0.088 S 
ATOM     12  C9  UNL     1      22.398   1.724  29.977  0.00  0.00    +0.043 C 
ATOM     13  C10 UNL     1      21.520   1.691  31.240  0.00  0.00    +0.005 C 
ATOM     14  C11 UNL     1      20.398   0.645  31.115  0.00  0.00    +0.005 C 
ATOM     15  C12 UNL     1      19.454   0.972  29.942  0.00  0.00    +0.036 C 
ENDBRANCH   4   7
BRANCH   1  18
ATOM     16  O1  UNL     1      21.035   7.236  21.525  0.00  0.00    -0.270 OA
ATOM     17  C1  UNL     1      22.046   6.503  21.694  0.00  0.00    +0.247 C 
ATOM     18  N1  UNL     1      21.943   5.317  22.497  0.00  0.00    -0.305 N 
ATOM     19  H1  UNL     1      22.765   4.679  22.573  0.00  0.00    +0.149 HD
BRANCH  17  20
ATOM     20  C14 UNL     1      23.321   6.884  21.059  0.00  0.00    +0.074 A 
ATOM     21  C15 UNL     1      23.699   6.741  19.735  0.00  0.00    +0.147 A 
ATOM     22  N3  UNL     1      24.951   7.215  19.580  0.00  0.00    -0.182 NA
ATOM     23  N4  UNL     1      25.370   7.649  20.757  0.00  0.00    -0.284 N 
ATOM     24  C16 UNL     1      24.409   7.465  21.679  0.00  0.00    +0.118 A 
ATOM     25  H17 UNL     1      26.311   8.069  20.928  0.00  0.00    +0.188 HD
ENDBRANCH  17  20
ENDBRANCH   1  18
TORSDOF 3
ENDMDL
MODEL 6
REMARK VINA RESULT:    -5.920     10.602     13.625
REMARK INTER + INTRA:          -6.996
REMARK INTER:                  -6.610
REMARK INTRA:                  -0.387
REMARK UNBOUND:                -0.038
REMARK  Name = /home/qwerty/github/datacon2025hack/step_04_hit_selection/docking/ligands/lig_16.pdb
REMARK  3 active torsions:
REMARK  status: ('A' for Active; 'I' for Inactive)
REMARK    1  A    between atoms: C1_2  and  C14_19
REMARK    2  A    between atoms: N1_3  and  C2_4
REMARK    3  A    between atoms: C4_7  and  C5_9
REMARK                            x       y       z     vdW  Elec       q    Type
REMARK                         _______ _______ _______ _____ _____    ______ ____
ROOT
ATOM      1  C2  UNL     1      13.668  10.940  35.369  0.00  0.00    +0.108 C 
ATOM      2  C3  UNL     1      12.669  11.986  35.761  0.00  0.00    +0.132 C 
ATOM      3  N2  UNL     1      12.401  12.466  34.393  0.00  0.00    -0.293 N 
ATOM      4  C4  UNL     1      11.565  13.461  33.796  0.00  0.00    +0.253 C 
ATOM      5  O2  UNL     1      10.827  14.163  34.537  0.00  0.00    -0.269 OA
ATOM      6  C13 UNL     1      13.386  11.444  33.989  0.00  0.00    +0.132 C 
ENDROOT
BRANCH   4   7
ATOM      7  C5  UNL     1      11.548  13.680  32.339  0.00  0.00    +0.075 A 
ATOM      8  C6  UNL     1      10.621  13.130  31.454  0.00  0.00    +0.024 A 
ATOM      9  C7  UNL     1      10.833  13.517  30.124  0.00  0.00    -0.036 A 
ATOM     10  C8  UNL     1      11.944  14.332  29.957  0.00  0.00    -0.006 A 
ATOM     11  S1  UNL     1      12.632  14.631  31.459  0.00  0.00    -0.088 S 
ATOM     12  C9  UNL     1      12.348  14.954  28.656  0.00  0.00    +0.043 C 
ATOM     13  C10 UNL     1      11.716  14.200  27.473  0.00  0.00    +0.005 C 
ATOM     14  C11 UNL     1      10.223  13.920  27.721  0.00  0.00    +0.005 C 
ATOM     15  C12 UNL     1      10.017  13.029  28.960  0.00  0.00    +0.036 C 
ENDBRANCH   4   7
BRANCH   1  18
ATOM     16  O1  UNL     1      15.391   9.061  36.586  0.00  0.00    -0.270 OA
ATOM     17  C1  UNL     1      15.853  10.222  36.416  0.00  0.00    +0.247 C 
ATOM     18  N1  UNL     1      15.035  11.234  35.809  0.00  0.00    -0.305 N 
ATOM     19  H1  UNL     1      15.400  12.209  35.735  0.00  0.00    +0.149 HD
BRANCH  17  20
ATOM     20  C14 UNL     1      17.233  10.514  36.844  0.00  0.00    +0.074 A 
ATOM     21  C15 UNL     1      18.123  11.430  36.310  0.00  0.00    +0.147 A 
ATOM     22  N3  UNL     1      19.281  11.372  36.998  0.00  0.00    -0.182 NA
ATOM     23  N4  UNL     1      19.148  10.454  37.941  0.00  0.00    -0.284 N 
ATOM     24  C16 UNL     1      17.920   9.911  37.879  0.00  0.00    +0.118 A 
ATOM     25  H17 UNL     1      19.897  10.199  38.623  0.00  0.00    +0.188 HD
ENDBRANCH  17  20
ENDBRANCH   1  18
TORSDOF 3
ENDMDL
MODEL 7
REMARK VINA RESULT:    -5.914      7.175      8.890
REMARK INTER + INTRA:          -6.989
REMARK INTER:                  -6.610
REMARK INTRA:                  -0.379
REMARK UNBOUND:                -0.038
REMARK  Name = /home/qwerty/github/datacon2025hack/step_04_hit_selection/docking/ligands/lig_16.pdb
REMARK  3 active torsions:
REMARK  status: ('A' for Active; 'I' for Inactive)
REMARK    1  A    between atoms: C1_2  and  C14_19
REMARK    2  A    between atoms: N1_3  and  C2_4
REMARK    3  A    between atoms: C4_7  and  C5_9
REMARK                            x       y       z     vdW  Elec       q    Type
REMARK                         _______ _______ _______ _____ _____    ______ ____
ROOT
ATOM      1  C2  UNL     1      19.912   8.181  34.930  0.00  0.00    +0.108 C 
ATOM      2  C3  UNL     1      19.717   8.254  36.414  0.00  0.00    +0.132 C 
ATOM      3  N2  UNL     1      18.656   9.277  36.382  0.00  0.00    -0.293 N 
ATOM      4  C4  UNL     1      17.858   9.964  37.350  0.00  0.00    +0.253 C 
ATOM      5  O2  UNL     1      18.022   9.704  38.572  0.00  0.00    -0.269 OA
ATOM      6  C13 UNL     1      18.837   9.221  34.918  0.00  0.00    +0.132 C 
ENDROOT
BRANCH   4   7
ATOM      7  C5  UNL     1      16.853  10.965  36.950  0.00  0.00    +0.075 A 
ATOM      8  C6  UNL     1      15.471  10.788  37.019  0.00  0.00    +0.024 A 
ATOM      9  C7  UNL     1      14.751  11.909  36.587  0.00  0.00    -0.036 A 
ATOM     10  C8  UNL     1      15.559  12.945  36.139  0.00  0.00    -0.006 A 
ATOM     11  S1  UNL     1      17.167  12.506  36.336  0.00  0.00    -0.088 S 
ATOM     12  C9  UNL     1      15.051  14.284  35.701  0.00  0.00    +0.043 C 
ATOM     13  C10 UNL     1      13.560  14.206  35.328  0.00  0.00    +0.005 C 
ATOM     14  C11 UNL     1      12.759  13.426  36.387  0.00  0.00    +0.005 C 
ATOM     15  C12 UNL     1      13.251  11.972  36.505  0.00  0.00    +0.036 C 
ENDBRANCH   4   7
BRANCH   1  18
ATOM     16  O1  UNL     1      21.743   6.734  33.337  0.00  0.00    -0.270 OA
ATOM     17  C1  UNL     1      22.080   7.904  33.664  0.00  0.00    +0.247 C 
ATOM     18  N1  UNL     1      21.205   8.700  34.478  0.00  0.00    -0.305 N 
ATOM     19  H1  UNL     1      21.523   9.640  34.801  0.00  0.00    +0.149 HD
BRANCH  17  20
ATOM     20  C14 UNL     1      23.375   8.432  33.196  0.00  0.00    +0.074 A 
ATOM     21  C15 UNL     1      23.618   9.569  32.444  0.00  0.00    +0.147 A 
ATOM     22  N3  UNL     1      24.944   9.682  32.232  0.00  0.00    -0.182 NA
ATOM     23  N4  UNL     1      25.539   8.658  32.822  0.00  0.00    -0.284 N 
ATOM     24  C16 UNL     1      24.620   7.878  33.416  0.00  0.00    +0.118 A 
ATOM     25  H17 UNL     1      26.570   8.494  32.815  0.00  0.00    +0.188 HD
ENDBRANCH  17  20
ENDBRANCH   1  18
TORSDOF 3
ENDMDL
MODEL 8
REMARK VINA RESULT:    -5.902     14.758     17.212
REMARK INTER + INTRA:          -6.975
REMARK INTER:                  -6.617
REMARK INTRA:                  -0.357
REMARK UNBOUND:                -0.038
REMARK  Name = /home/qwerty/github/datacon2025hack/step_04_hit_selection/docking/ligands/lig_16.pdb
REMARK  3 active torsions:
REMARK  status: ('A' for Active; 'I' for Inactive)
REMARK    1  A    between atoms: C1_2  and  C14_19
REMARK    2  A    between atoms: N1_3  and  C2_4
REMARK    3  A    between atoms: C4_7  and  C5_9
REMARK                            x       y       z     vdW  Elec       q    Type
REMARK                         _______ _______ _______ _____ _____    ______ ____
ROOT
ATOM      1  C2  UNL     1       9.382  10.499  27.521  0.00  0.00    +0.108 C 
ATOM      2  C3  UNL     1       8.214  10.878  26.661  0.00  0.00    +0.132 C 
ATOM      3  N2  UNL     1       8.596  10.047  25.505  0.00  0.00    -0.293 N 
ATOM      4  C4  UNL     1       8.055   9.774  24.209  0.00  0.00    +0.253 C 
ATOM      5  O2  UNL     1       6.981  10.335  23.865  0.00  0.00    -0.269 OA
ATOM      6  C13 UNL     1       9.755   9.666  26.336  0.00  0.00    +0.132 C 
ENDROOT
BRANCH   4   7
ATOM      7  C5  UNL     1       8.726   8.855  23.272  0.00  0.00    +0.075 A 
ATOM      8  C6  UNL     1       8.586   7.467  23.269  0.00  0.00    +0.024 A 
ATOM      9  C7  UNL     1       9.328   6.842  22.258  0.00  0.00    -0.036 A 
ATOM     10  C8  UNL     1      10.081   7.726  21.499  0.00  0.00    -0.006 A 
ATOM     11  S1  UNL     1       9.783   9.291  22.029  0.00  0.00    -0.088 S 
ATOM     12  C9  UNL     1      10.897   7.333  20.306  0.00  0.00    +0.043 C 
ATOM     13  C10 UNL     1      11.207   5.827  20.331  0.00  0.00    +0.005 C 
ATOM     14  C11 UNL     1       9.950   5.002  20.666  0.00  0.00    +0.005 C 
ATOM     15  C12 UNL     1       9.404   5.354  22.062  0.00  0.00    +0.036 C 
ENDBRANCH   4   7
BRANCH   1  18
ATOM     16  O1  UNL     1       9.108  12.422  29.572  0.00  0.00    -0.270 OA
ATOM     17  C1  UNL     1      10.118  12.534  28.826  0.00  0.00    +0.247 C 
ATOM     18  N1  UNL     1      10.323  11.598  27.756  0.00  0.00    -0.305 N 
ATOM     19  H1  UNL     1      11.122  11.739  27.101  0.00  0.00    +0.149 HD
BRANCH  17  20
ATOM     20  C14 UNL     1      11.073  13.630  29.073  0.00  0.00    +0.074 A 
ATOM     21  C15 UNL     1      11.764  13.922  30.236  0.00  0.00    +0.147 A 
ATOM     22  N3  UNL     1      12.528  15.013  30.032  0.00  0.00    -0.182 NA
ATOM     23  N4  UNL     1      12.341  15.413  28.785  0.00  0.00    -0.284 N 
ATOM     24  C16 UNL     1      11.465  14.600  28.172  0.00  0.00    +0.118 A 
ATOM     25  H17 UNL     1      12.812  16.242  28.358  0.00  0.00    +0.188 HD
ENDBRANCH  17  20
ENDBRANCH   1  18
TORSDOF 3
ENDMDL
MODEL 9
REMARK VINA RESULT:    -5.827      4.905      9.176
REMARK INTER + INTRA:          -6.886
REMARK INTER:                  -6.534
REMARK INTRA:                  -0.352
REMARK UNBOUND:                -0.038
REMARK  Name = /home/qwerty/github/datacon2025hack/step_04_hit_selection/docking/ligands/lig_16.pdb
REMARK  3 active torsions:
REMARK  status: ('A' for Active; 'I' for Inactive)
REMARK    1  A    between atoms: C1_2  and  C14_19
REMARK    2  A    between atoms: N1_3  and  C2_4
REMARK    3  A    between atoms: C4_7  and  C5_9
REMARK                            x       y       z     vdW  Elec       q    Type
REMARK                         _______ _______ _______ _____ _____    ______ ____
ROOT
ATOM      1  C2  UNL     1      22.635   4.793  33.828  0.00  0.00    +0.108 C 
ATOM      2  C3  UNL     1      21.864   3.515  33.690  0.00  0.00    +0.132 C 
ATOM      3  N2  UNL     1      21.828   3.514  32.216  0.00  0.00    -0.293 N 
ATOM      4  C4  UNL     1      21.296   2.660  31.200  0.00  0.00    +0.253 C 
ATOM      5  O2  UNL     1      20.683   1.613  31.540  0.00  0.00    -0.269 OA
ATOM      6  C13 UNL     1      22.584   4.776  32.334  0.00  0.00    +0.132 C 
ENDROOT
BRANCH   4   7
ATOM      7  C5  UNL     1      21.450   2.977  29.768  0.00  0.00    +0.075 A 
ATOM      8  C6  UNL     1      20.932   4.108  29.136  0.00  0.00    +0.024 A 
ATOM      9  C7  UNL     1      21.241   4.164  27.771  0.00  0.00    -0.036 A 
ATOM     10  C8  UNL     1      21.959   3.064  27.322  0.00  0.00    -0.006 A 
ATOM     11  S1  UNL     1      22.272   2.049  28.621  0.00  0.00    -0.088 S 
ATOM     12  C9  UNL     1      22.487   2.912  25.929  0.00  0.00    +0.043 C 
ATOM     13  C10 UNL     1      21.731   3.833  24.956  0.00  0.00    +0.005 C 
ATOM     14  C11 UNL     1      21.578   5.252  25.532  0.00  0.00    +0.005 C 
ATOM     15  C12 UNL     1      20.763   5.242  26.839  0.00  0.00    +0.036 C 
ENDBRANCH   4   7
BRANCH   1  18
ATOM     16  O1  UNL     1      23.408   6.264  36.113  0.00  0.00    -0.270 OA
ATOM     17  C1  UNL     1      22.320   6.597  35.569  0.00  0.00    +0.247 C 
ATOM     18  N1  UNL     1      21.857   5.892  34.408  0.00  0.00    -0.305 N 
ATOM     19  H1  UNL     1      20.923   6.127  34.006  0.00  0.00    +0.149 HD
BRANCH  17  20
ATOM     20  C14 UNL     1      21.545   7.713  36.142  0.00  0.00    +0.074 A 
ATOM     21  C15 UNL     1      21.191   8.910  35.544  0.00  0.00    +0.147 A 
ATOM     22  N3  UNL     1      20.488   9.651  36.423  0.00  0.00    -0.182 NA
ATOM     23  N4  UNL     1      20.389   8.961  37.548  0.00  0.00    -0.284 N 
ATOM     24  C16 UNL     1      21.019   7.782  37.416  0.00  0.00    +0.118 A 
ATOM     25  H17 UNL     1      19.893   9.300  38.403  0.00  0.00    +0.188 HD
ENDBRANCH  17  20
ENDBRANCH   1  18
TORSDOF 3
ENDMDL
