REMARK  Name = /home/qwerty/github/datacon2025hack/step_04_hit_selection/docking/ligands/lig_409.pdb
REMARK  4 active torsions:
REMARK  status: ('A' for Active; 'I' for Inactive)
REMARK    1  A    between atoms: N1_3  and  C2_4
REMARK    2  A    between atoms: C5_7  and  O2_8
REMARK    3  A    between atoms: O2_8  and  C6_9
REMARK    4  A    between atoms: N4_17  and  C12_18
REMARK                            x       y       z     vdW  Elec       q    Type
REMARK                         _______ _______ _______ _____ _____    ______ ____
ROOT
ATOM      1  O1  UNL     1       0.915  -0.261   1.135  0.00  0.00    -0.252 OA
ATOM      2  C1  UNL     1       1.025  -1.446   0.719  0.00  0.00    +0.308 C 
ATOM      3  N1  UNL     1      -0.125  -2.304   0.669  0.00  0.00    -0.268 N 
ATOM      4  N4  UNL     1       2.315  -1.973   0.371  0.00  0.00    -0.269 N 
ATOM      5  H1  UNL     1       0.040  -3.335   0.615  0.00  0.00    +0.156 HD
ATOM      6  H9  UNL     1       2.417  -3.012   0.323  0.00  0.00    +0.156 HD
ENDROOT
BRANCH   4   7
ATOM      7  C12 UNL     1       3.492  -1.168   0.187  0.00  0.00    +0.038 A 
ATOM      8  C13 UNL     1       4.751  -1.708   0.505  0.00  0.00    +0.027 A 
ATOM      9  C14 UNL     1       5.914  -0.953   0.322  0.00  0.00    +0.051 A 
ATOM     10  C15 UNL     1       5.829   0.342  -0.193  0.00  0.00    +0.162 A 
ATOM     11  C16 UNL     1       4.585   0.871  -0.561  0.00  0.00    +0.164 A 
ATOM     12  C17 UNL     1       3.419   0.126  -0.365  0.00  0.00    +0.072 A 
ATOM     13  O3  UNL     1       4.531   2.148  -1.128  0.00  0.00    -0.485 OA
ATOM     14  C18 UNL     1       5.716   2.804  -1.585  0.00  0.00    +0.270 C 
ATOM     15  C19 UNL     1       6.881   2.527  -0.625  0.00  0.00    +0.270 C 
ATOM     16  O4  UNL     1       6.976   1.126  -0.356  0.00  0.00    -0.485 OA
ENDBRANCH   4   7
BRANCH   3  17
ATOM     17  C2  UNL     1      -1.483  -1.844   0.788  0.00  0.00    +0.053 A 
ATOM     18  C3  UNL     1      -1.888  -0.596   0.287  0.00  0.00    +0.030 A 
ATOM     19  C4  UNL     1      -3.220  -0.195   0.401  0.00  0.00    +0.069 A 
ATOM     20  C5  UNL     1      -4.154  -1.059   0.995  0.00  0.00    +0.221 A 
ATOM     21  N3  UNL     1      -3.740  -2.264   1.469  0.00  0.00    -0.219 NA
ATOM     22  C11 UNL     1      -2.448  -2.675   1.370  0.00  0.00    +0.138 A 
BRANCH  20  23
ATOM     23  O2  UNL     1      -5.500  -0.699   1.154  0.00  0.00    -0.437 OA
BRANCH  23  24
ATOM     24  C6  UNL     1      -6.228   0.131   0.288  0.00  0.00    +0.148 A 
ATOM     25  C7  UNL     1      -5.968   0.188  -1.092  0.00  0.00    +0.049 A 
ATOM     26  C8  UNL     1      -6.735   1.017  -1.912  0.00  0.00    +0.023 A 
ATOM     27  C9  UNL     1      -7.763   1.775  -1.348  0.00  0.00    +0.111 A 
ATOM     28  N2  UNL     1      -8.015   1.694  -0.014  0.00  0.00    -0.260 NA
ATOM     29  C10 UNL     1      -7.281   0.893   0.804  0.00  0.00    +0.157 A 
ENDBRANCH  23  24
ENDBRANCH  20  23
ENDBRANCH   3  17
TORSDOF 4
