REMARK  Name = /home/qwerty/github/datacon2025hack/step_04_hit_selection/docking/ligands/lig_394.pdb
REMARK  5 active torsions:
REMARK  status: ('A' for Active; 'I' for Inactive)
REMARK    1  A    between atoms: N1_3  and  C2_4
REMARK    2  A    between atoms: C2_4  and  C3_5
REMARK    3  A    between atoms: C4_7  and  C5_8
REMARK    4  A    between atoms: N6_20  and  C13_21
REMARK    5  A    between atoms: C16_24  and  C17_25
REMARK                            x       y       z     vdW  Elec       q    Type
REMARK                         _______ _______ _______ _____ _____    ______ ____
ROOT
ATOM      1  O1  UNL     1       2.078   1.339   2.970  0.00  0.00    -0.253 OA
ATOM      2  C1  UNL     1       1.869   1.408   1.728  0.00  0.00    +0.303 C 
ATOM      3  N1  UNL     1       2.918   1.859   0.854  0.00  0.00    -0.292 N 
ATOM      4  N5  UNL     1       0.586   1.010   1.202  0.00  0.00    -0.283 N 
ATOM      5  C11 UNL     1      -0.239   0.076   1.982  0.00  0.00    +0.128 C 
ATOM      6  C12 UNL     1      -1.360  -0.532   1.135  0.00  0.00    +0.125 C 
ATOM      7  N6  UNL     1      -2.107   0.521   0.432  0.00  0.00    -0.311 N 
ATOM      8  C23 UNL     1      -1.384   1.669  -0.139  0.00  0.00    +0.125 C 
ATOM      9  C24 UNL     1       0.136   1.466  -0.120  0.00  0.00    +0.128 C 
ATOM     10  H1  UNL     1       2.803   1.763  -0.180  0.00  0.00    +0.151 HD
ENDROOT
BRANCH   7  11
ATOM     11  C13 UNL     1      -3.523   0.351   0.187  0.00  0.00    +0.144 A 
ATOM     12  C14 UNL     1      -4.338   1.426  -0.198  0.00  0.00    +0.047 A 
ATOM     13  C15 UNL     1      -5.696   1.212  -0.426  0.00  0.00    +0.033 A 
ATOM     14  C16 UNL     1      -6.229  -0.074  -0.269  0.00  0.00    +0.093 A 
ATOM     15  N7  UNL     1      -5.397  -1.078   0.122  0.00  0.00    -0.147 NA
ATOM     16  N8  UNL     1      -4.097  -0.874   0.339  0.00  0.00    -0.134 NA
BRANCH  14  17
ATOM     17  C17 UNL     1      -7.668  -0.363  -0.498  0.00  0.00    +0.002 A 
ATOM     18  C18 UNL     1      -8.429   0.384  -1.420  0.00  0.00    +0.013 A 
ATOM     19  C19 UNL     1      -9.779   0.088  -1.629  0.00  0.00    +0.039 A 
ATOM     20  C20 UNL     1     -10.386  -0.956  -0.927  0.00  0.00    +0.123 A 
ATOM     21  F2  UNL     1     -11.695  -1.241  -1.133  0.00  0.00    -0.205 F 
ATOM     22  C21 UNL     1      -9.642  -1.709  -0.017  0.00  0.00    +0.039 A 
ATOM     23  C22 UNL     1      -8.290  -1.419   0.195  0.00  0.00    +0.013 A 
ENDBRANCH  14  17
ENDBRANCH   7  11
BRANCH   3  24
ATOM     24  C2  UNL     1       4.248   2.215   1.344  0.00  0.00    +0.181 C 
BRANCH  24  25
ATOM     25  C3  UNL     1       5.144   1.021   1.282  0.00  0.00    +0.143 A 
ATOM     26  N2  UNL     1       6.006   0.783   0.273  0.00  0.00    -0.210 NA
ATOM     27  C4  UNL     1       6.517  -0.421   0.618  0.00  0.00    +0.181 A 
ATOM     28  N3  UNL     1       5.988  -0.897   1.765  0.00  0.00    -0.152 NA
ATOM     29  N4  UNL     1       5.126   0.016   2.172  0.00  0.00    -0.261 N 
ATOM     30  H8  UNL     1       4.539  -0.060   3.032  0.00  0.00    +0.190 HD
BRANCH  27  31
ATOM     31  C5  UNL     1       7.533  -1.140  -0.180  0.00  0.00    +0.021 A 
ATOM     32  C6  UNL     1       7.946  -2.433   0.190  0.00  0.00    +0.014 A 
ATOM     33  C7  UNL     1       8.904  -3.113  -0.570  0.00  0.00    +0.039 A 
ATOM     34  C8  UNL     1       9.459  -2.511  -1.701  0.00  0.00    +0.123 A 
ATOM     35  F1  UNL     1      10.386  -3.174  -2.435  0.00  0.00    -0.205 F 
ATOM     36  C9  UNL     1       9.058  -1.225  -2.075  0.00  0.00    +0.039 A 
ATOM     37  C10 UNL     1       8.099  -0.542  -1.320  0.00  0.00    +0.014 A 
ENDBRANCH  27  31
ENDBRANCH  24  25
ENDBRANCH   3  24
TORSDOF 5
