REMARK  Name = /home/qwerty/github/datacon2025hack/step_04_hit_selection/docking/ligands/lig_429.pdb
REMARK  5 active torsions:
REMARK  status: ('A' for Active; 'I' for Inactive)
REMARK    1  A    between atoms: C1_1  and  C2_2
REMARK    2  A    between atoms: C2_2  and  N1_3
REMARK    3  A    between atoms: C2_2  and  C13_19
REMARK    4  A    between atoms: N2_6  and  C4_7
REMARK    5  A    between atoms: N3_13  and  C10_14
REMARK                            x       y       z     vdW  Elec       q    Type
REMARK                         _______ _______ _______ _____ _____    ______ ____
ROOT
ATOM      1  N1  UNL     1       2.100   1.431  -0.803  0.00  0.00    -0.293 N 
ATOM      2  C3  UNL     1       0.905   0.828  -0.289  0.00  0.00    +0.304 C 
ATOM      3  O1  UNL     1       0.505  -0.274  -0.754  0.00  0.00    -0.252 OA
ATOM      4  N2  UNL     1       0.190   1.469   0.779  0.00  0.00    -0.269 N 
ATOM      5  H5  UNL     1       2.386   2.363  -0.426  0.00  0.00    +0.151 HD
ATOM      6  H6  UNL     1       0.696   2.198   1.331  0.00  0.00    +0.156 HD
ENDROOT
BRANCH   4   7
ATOM      7  C4  UNL     1      -1.123   1.079   1.217  0.00  0.00    +0.037 A 
ATOM      8  C5  UNL     1      -1.461   1.211   2.570  0.00  0.00    +0.027 A 
ATOM      9  C6  UNL     1      -2.735   0.862   3.018  0.00  0.00    +0.049 A 
ATOM     10  C7  UNL     1      -3.689   0.379   2.119  0.00  0.00    +0.143 A 
ATOM     11  C8  UNL     1      -3.384   0.264   0.749  0.00  0.00    +0.080 A 
ATOM     12  C9  UNL     1      -2.095   0.629   0.306  0.00  0.00    +0.050 A 
ATOM     13  N3  UNL     1      -4.417  -0.175  -0.168  0.00  0.00    -0.269 N 
ATOM     14  C10 UNL     1      -4.175  -0.242  -1.616  0.00  0.00    +0.138 C 
ATOM     15  C11 UNL     1      -5.714  -0.509   0.366  0.00  0.00    +0.257 C 
ATOM     16  O2  UNL     1      -6.710  -0.651  -0.394  0.00  0.00    -0.272 OA
ATOM     17  C12 UNL     1      -5.872  -0.758   1.836  0.00  0.00    +0.325 C 
ATOM     18  O3  UNL     1      -4.960   0.037   2.590  0.00  0.00    -0.481 OA
ENDBRANCH   4   7
BRANCH   1  20
ATOM     19  C1  UNL     1       3.954   1.758  -2.396  0.00  0.00    +0.033 C 
ATOM     20  C2  UNL     1       2.927   0.776  -1.822  0.00  0.00    +0.102 C 
BRANCH  20  21
ATOM     21  C13 UNL     1       3.626  -0.431  -1.235  0.00  0.00    -0.027 A 
ATOM     22  C14 UNL     1       3.577  -1.670  -1.900  0.00  0.00    +0.005 A 
ATOM     23  C15 UNL     1       4.222  -2.788  -1.360  0.00  0.00    +0.000 A 
ATOM     24  C16 UNL     1       4.925  -2.678  -0.158  0.00  0.00    +0.000 A 
ATOM     25  C17 UNL     1       4.987  -1.450   0.507  0.00  0.00    +0.000 A 
ATOM     26  C18 UNL     1       4.344  -0.330  -0.029  0.00  0.00    +0.005 A 
ENDBRANCH  20  21
ENDBRANCH   1  20
TORSDOF 3
