REMARK  Name = /home/qwerty/github/datacon2025hack/step_04_hit_selection/docking/ligands/lig_412.pdb
REMARK  6 active torsions:
REMARK  status: ('A' for Active; 'I' for Inactive)
REMARK    1  A    between atoms: N1_3  and  C2_4
REMARK    2  A    between atoms: C2_4  and  C3_5
REMARK    3  A    between atoms: C7_10  and  C8_12
REMARK    4  A    between atoms: N5_21  and  C15_22
REMARK    5  A    between atoms: C23_30  and  N6_31
REMARK    6  A    between atoms: N6_31  and  C24_32
REMARK                            x       y       z     vdW  Elec       q    Type
REMARK                         _______ _______ _______ _____ _____    ______ ____
ROOT
ATOM      1  O1  UNL     1       0.978  -1.607  -0.943  0.00  0.00    -0.253 OA
ATOM      2  C1  UNL     1       1.073  -0.476  -0.392  0.00  0.00    +0.304 C 
ATOM      3  N1  UNL     1      -0.101   0.175   0.114  0.00  0.00    -0.299 N 
ATOM      4  N5  UNL     1       2.355   0.150  -0.233  0.00  0.00    -0.269 N 
ATOM      5  H1  UNL     1       0.015   1.092   0.603  0.00  0.00    +0.150 HD
ATOM      6  H20 UNL     1       2.424   0.942   0.446  0.00  0.00    +0.156 HD
ENDROOT
BRANCH   4   7
ATOM      7  C15 UNL     1       3.555  -0.293  -0.891  0.00  0.00    +0.038 A 
ATOM      8  C16 UNL     1       3.526  -0.836  -2.194  0.00  0.00    +0.023 A 
ATOM      9  C17 UNL     1       4.715  -1.244  -2.821  0.00  0.00    +0.002 A 
ATOM     10  C18 UNL     1       5.944  -1.105  -2.164  0.00  0.00    +0.005 A 
ATOM     11  C19 UNL     1       5.964  -0.544  -0.885  0.00  0.00    -0.026 A 
ATOM     12  C20 UNL     1       4.805  -0.143  -0.265  0.00  0.00    -0.021 A 
ATOM     13  C21 UNL     1       5.068   0.416   1.084  0.00  0.00    +0.039 C 
ATOM     14  C22 UNL     1       6.585   0.245   1.281  0.00  0.00    +0.028 C 
ATOM     15  C23 UNL     1       7.165  -0.319  -0.043  0.00  0.00    +0.085 C 
BRANCH  15  16
ATOM     16  N6  UNL     1       8.076   0.620  -0.716  0.00  0.00    -0.307 NA
ATOM     17  H29 UNL     1       7.668   1.585  -0.697  0.00  0.00    +0.123 HD
BRANCH  16  18
ATOM     18  C24 UNL     1       9.369   0.658  -0.032  0.00  0.00    +0.054 C 
ATOM     19  C25 UNL     1      10.506   1.062  -0.952  0.00  0.00    +0.020 C 
ATOM     20  C26 UNL     1      10.354  -0.388  -0.524  0.00  0.00    +0.020 C 
ENDBRANCH  16  18
ENDBRANCH  15  16
ENDBRANCH   4   7
BRANCH   3  21
ATOM     21  C2  UNL     1      -1.437  -0.387  -0.092  0.00  0.00    +0.110 C 
BRANCH  21  22
ATOM     22  C3  UNL     1      -2.521   0.439   0.641  0.00  0.00    +0.024 C 
ATOM     23  C4  UNL     1      -2.381   0.354   2.179  0.00  0.00    +0.008 C 
ATOM     24  C5  UNL     1      -2.702  -1.046   2.738  0.00  0.00    +0.019 C 
ATOM     25  C6  UNL     1      -3.792  -1.782   1.938  0.00  0.00    +0.108 C 
ATOM     26  N2  UNL     1      -4.617  -0.828   1.191  0.00  0.00    -0.296 N 
ATOM     27  C7  UNL     1      -5.979  -0.582   1.594  0.00  0.00    +0.267 C 
ATOM     28  O2  UNL     1      -6.296  -0.686   2.811  0.00  0.00    -0.268 OA
ATOM     29  C14 UNL     1      -3.956   0.039   0.200  0.00  0.00    +0.113 C 
BRANCH  27  30
ATOM     30  C8  UNL     1      -7.022  -0.198   0.626  0.00  0.00    +0.147 A 
ATOM     31  C9  UNL     1      -6.982  -0.390  -0.761  0.00  0.00    +0.057 A 
ATOM     32  C10 UNL     1      -8.174   0.156  -1.174  0.00  0.00    +0.040 A 
ATOM     33  N3  UNL     1      -8.837   0.605  -0.138  0.00  0.00    -0.268 N 
ATOM     34  N4  UNL     1      -8.164   0.443   0.984  0.00  0.00    -0.166 NA
ATOM     35  C11 UNL     1      -9.942   1.466  -0.472  0.00  0.00    +0.144 C 
ATOM     36  C12 UNL     1      -9.952   1.430  -2.024  0.00  0.00    +0.029 C 
ATOM     37  C13 UNL     1      -8.722   0.590  -2.471  0.00  0.00    +0.057 C 
ENDBRANCH  27  30
ENDBRANCH  21  22
ENDBRANCH   3  21
TORSDOF 6
