REMARK  Name = /home/qwerty/github/datacon2025hack/step_04_hit_selection/docking/ligands/lig_417.pdb
REMARK  6 active torsions:
REMARK  status: ('A' for Active; 'I' for Inactive)
REMARK    1  A    between atoms: C1_1  and  C2_2
REMARK    2  A    between atoms: C4_5  and  C5_6
REMARK    3  A    between atoms: C5_6  and  N2_7
REMARK    4  A    between atoms: C8_10  and  N3_11
REMARK    5  A    between atoms: C9_12  and  C10_14
REMARK    6  A    between atoms: C15_20  and  C16_21
REMARK                            x       y       z     vdW  Elec       q    Type
REMARK                         _______ _______ _______ _____ _____    ______ ____
ROOT
ATOM      1  N2  UNL     1      -1.084   0.437  -0.847  0.00  0.00    -0.295 NA
ATOM      2  C6  UNL     1      -0.775   1.117   0.431  0.00  0.00    +0.087 C 
ATOM      3  C7  UNL     1       0.677   0.864   0.833  0.00  0.00    +0.037 C 
ATOM      4  C8  UNL     1       1.661   1.481  -0.183  0.00  0.00    +0.076 C 
ATOM      5  C14 UNL     1       1.006   1.707  -1.567  0.00  0.00    +0.041 C 
ATOM      6  C15 UNL     1      -0.077   0.657  -1.926  0.00  0.00    +0.056 C 
ATOM      7  C16 UNL     1       0.548  -0.690  -2.299  0.00  0.00    +0.024 C 
ENDROOT
BRANCH   4   8
ATOM      8  N3  UNL     1       2.867   0.649  -0.297  0.00  0.00    -0.308 N 
ATOM      9  C9  UNL     1       3.803   0.514   0.784  0.00  0.00    +0.247 C 
ATOM     10  O1  UNL     1       3.650   1.191   1.837  0.00  0.00    -0.270 OA
ATOM     11  H12 UNL     1       3.078   0.180  -1.205  0.00  0.00    +0.149 HD
BRANCH   9  12
ATOM     12  C10 UNL     1       4.952  -0.407   0.684  0.00  0.00    +0.074 A 
ATOM     13  C11 UNL     1       5.249  -1.280  -0.345  0.00  0.00    +0.054 A 
ATOM     14  C12 UNL     1       6.409  -1.922   0.036  0.00  0.00    +0.195 A 
ATOM     15  O2  UNL     1       6.798  -1.481   1.210  0.00  0.00    -0.470 OA
ATOM     16  C13 UNL     1       5.947  -0.573   1.629  0.00  0.00    +0.207 A 
ENDBRANCH   9  12
ENDBRANCH   4   8
BRANCH   1  17
ATOM     17  C5  UNL     1      -2.457   0.744  -1.302  0.00  0.00    +0.123 C 
BRANCH  17  22
ATOM     18  C1  UNL     1      -6.333  -1.691   2.190  0.00  0.00    +0.088 C 
ATOM     19  C2  UNL     1      -5.311  -1.059   1.306  0.00  0.00    +0.126 A 
ATOM     20  N1  UNL     1      -5.198   0.295   1.255  0.00  0.00    -0.240 NA
ATOM     21  C3  UNL     1      -4.299   0.892   0.432  0.00  0.00    +0.119 A 
ATOM     22  C4  UNL     1      -3.479   0.113  -0.392  0.00  0.00    +0.003 A 
ATOM     23  C17 UNL     1      -3.618  -1.278  -0.331  0.00  0.00    +0.119 A 
ATOM     24  N4  UNL     1      -4.530  -1.834   0.507  0.00  0.00    -0.240 NA
ENDBRANCH  17  22
ENDBRANCH   1  17
TORSDOF 4
