REMARK  Name = /home/qwerty/github/datacon2025hack/step_04_hit_selection/docking/ligands/lig_140.pdb
REMARK  8 active torsions:
REMARK  status: ('A' for Active; 'I' for Inactive)
REMARK    1  A    between atoms: C1_1  and  C2_2
REMARK    2  A    between atoms: C2_2  and  C3_3
REMARK    3  A    between atoms: C3_3  and  C4_4
REMARK    4  A    between atoms: C3_3  and  C5_5
REMARK    5  A    between atoms: C8_10  and  C9_11
REMARK    6  A    between atoms: C9_11  and  N2_12
REMARK    7  A    between atoms: C10_13  and  C11_15
REMARK    8  A    between atoms: C14_19  and  C15_20
REMARK                            x       y       z     vdW  Elec       q    Type
REMARK                         _______ _______ _______ _____ _____    ______ ____
ROOT
ATOM      1  C9  UNL     1       1.299   0.153  -1.582  0.00  0.00    +0.109 C 
ENDROOT
BRANCH   1   7
ATOM      2  C5  UNL     1      -3.623  -0.532  -1.265  0.00  0.00    +0.218 C 
ATOM      3  O1  UNL     1      -3.933  -0.298  -2.467  0.00  0.00    -0.275 OA
ATOM      4  N1  UNL     1      -2.260  -0.331  -0.838  0.00  0.00    -0.301 N 
ATOM      5  C6  UNL     1      -1.738  -0.682   0.473  0.00  0.00    +0.108 C 
ATOM      6  C7  UNL     1      -0.230  -0.497   0.372  0.00  0.00    +0.025 C 
ATOM      7  C8  UNL     1      -0.013   0.431  -0.830  0.00  0.00    +0.025 C 
ATOM      8  C17 UNL     1      -1.243   0.228  -1.714  0.00  0.00    +0.112 C 
BRANCH   2   9
ATOM      9  C3  UNL     1      -4.707  -0.945  -0.290  0.00  0.00    +0.072 C 
ATOM     10  C4  UNL     1      -5.754  -1.852  -0.956  0.00  0.00    +0.017 C 
BRANCH   9  12
ATOM     11  C1  UNL     1      -5.997   1.277  -0.551  0.00  0.00    +0.004 C 
ATOM     12  C2  UNL     1      -5.338   0.277   0.405  0.00  0.00    +0.009 C 
ENDBRANCH   9  12
ENDBRANCH   2   9
ENDBRANCH   1   7
BRANCH   1  13
ATOM     13  N2  UNL     1       2.450   0.394  -0.712  0.00  0.00    -0.311 N 
ATOM     14  C10 UNL     1       3.232  -0.668  -0.134  0.00  0.00    +0.244 C 
ATOM     15  O2  UNL     1       2.896  -1.869  -0.328  0.00  0.00    -0.270 OA
ATOM     16  H17 UNL     1       2.635   1.385  -0.428  0.00  0.00    +0.149 HD
BRANCH  14  17
ATOM     17  C11 UNL     1       4.419  -0.377   0.712  0.00  0.00    +0.040 A 
ATOM     18  C12 UNL     1       4.849  -1.313   1.670  0.00  0.00    +0.033 A 
ATOM     19  C13 UNL     1       5.962  -1.032   2.467  0.00  0.00    +0.112 A 
ATOM     20  N3  UNL     1       6.631   0.140   2.310  0.00  0.00    -0.260 NA
ATOM     21  C14 UNL     1       6.248   1.068   1.390  0.00  0.00    +0.039 A 
ATOM     22  C15 UNL     1       7.031   2.334   1.240  0.00  0.00    +0.065 C 
ATOM     23  C16 UNL     1       5.141   0.821   0.568  0.00  0.00    +0.036 A 
ENDBRANCH  14  17
ENDBRANCH   1  13
TORSDOF 5
