REMARK  Name = /home/qwerty/github/datacon2025hack/step_04_hit_selection/docking/ligands/lig_500.pdb
REMARK  4 active torsions:
REMARK  status: ('A' for Active; 'I' for Inactive)
REMARK    1  A    between atoms: N1_3  and  C2_4
REMARK    2  A    between atoms: N2_10  and  C8_11
REMARK    3  A    between atoms: N3_19  and  C16_20
REMARK    4  A    between atoms: C16_20  and  C17_21
REMARK                            x       y       z     vdW  Elec       q    Type
REMARK                         _______ _______ _______ _____ _____    ______ ____
ROOT
ATOM      1  C8  UNL     1      -0.259   1.574  -0.318  0.00  0.00    +0.038 A 
ATOM      2  C9  UNL     1      -0.064   2.748  -1.054  0.00  0.00    +0.023 A 
ATOM      3  C10 UNL     1       1.086   2.917  -1.823  0.00  0.00    +0.002 A 
ATOM      4  C11 UNL     1       2.062   1.922  -1.849  0.00  0.00    +0.005 A 
ATOM      5  C12 UNL     1       1.905   0.753  -1.090  0.00  0.00    -0.028 A 
ATOM      6  C13 UNL     1       0.727   0.559  -0.332  0.00  0.00    -0.021 A 
ATOM      7  C14 UNL     1       0.591  -0.649   0.569  0.00  0.00    +0.052 C 
ATOM      8  C15 UNL     1       1.602  -1.755   0.234  0.00  0.00    +0.090 C 
ATOM      9  N3  UNL     1       2.958  -1.222   0.004  0.00  0.00    -0.292 NA
ATOM     10  C20 UNL     1       2.970  -0.318  -1.164  0.00  0.00    +0.120 C 
ENDROOT
BRANCH   1  14
ATOM     11  O1  UNL     1      -2.438  -0.093  -0.988  0.00  0.00    -0.252 OA
ATOM     12  C1  UNL     1      -2.534   0.596   0.065  0.00  0.00    +0.308 C 
ATOM     13  N1  UNL     1      -3.709   0.511   0.885  0.00  0.00    -0.269 N 
ATOM     14  N2  UNL     1      -1.450   1.443   0.467  0.00  0.00    -0.269 N 
ATOM     15  H1  UNL     1      -3.640   0.869   1.864  0.00  0.00    +0.156 HD
ATOM     16  H7  UNL     1      -1.612   2.131   1.236  0.00  0.00    +0.156 HD
BRANCH  13  17
ATOM     17  C2  UNL     1      -4.926  -0.143   0.487  0.00  0.00    +0.035 A 
ATOM     18  C3  UNL     1      -5.378  -0.108  -0.846  0.00  0.00    +0.023 A 
ATOM     19  C4  UNL     1      -6.578  -0.733  -1.200  0.00  0.00    +0.002 A 
ATOM     20  C5  UNL     1      -7.342  -1.385  -0.229  0.00  0.00    +0.000 A 
ATOM     21  C6  UNL     1      -6.913  -1.405   1.100  0.00  0.00    +0.002 A 
ATOM     22  C7  UNL     1      -5.714  -0.780   1.459  0.00  0.00    +0.023 A 
ENDBRANCH  13  17
ENDBRANCH   1  14
BRANCH   9  23
ATOM     23  C16 UNL     1       3.536  -0.599   1.214  0.00  0.00    +0.147 C 
BRANCH  23  24
ATOM     24  C17 UNL     1       5.029  -0.594   1.129  0.00  0.00    +0.093 A 
ATOM     25  N4  UNL     1       5.763   0.527   0.946  0.00  0.00    -0.250 NA
ATOM     26  C18 UNL     1       7.092   0.253   0.869  0.00  0.00    +0.134 A 
ATOM     27  C19 UNL     1       7.415  -1.092   0.985  0.00  0.00    +0.075 A 
ATOM     28 BR1  UNL     1       9.168  -1.835   0.917  0.00  0.00    -0.041 Br
ATOM     29  S1  UNL     1       5.996  -1.970   1.189  0.00  0.00    -0.064 S 
ENDBRANCH  23  24
ENDBRANCH   9  23
TORSDOF 4
