MODEL 1
REMARK VINA RESULT:    -6.375      0.000      0.000
REMARK INTER + INTRA:          -7.693
REMARK INTER:                  -7.120
REMARK INTRA:                  -0.573
REMARK UNBOUND:                -0.573
REMARK  Name = /home/qwerty/github/datacon2025hack/step_04_hit_selection/docking/ligands/lig_721.pdb
REMARK  6 active torsions:
REMARK  status: ('A' for Active; 'I' for Inactive)
REMARK    1  A    between atoms: C1_1  and  C2_2
REMARK    2  A    between atoms: C3_4  and  C4_5
REMARK    3  A    between atoms: C5_6  and  C6_7
REMARK    4  A    between atoms: C11_15  and  C12_17
REMARK    5  A    between atoms: N4_20  and  C15_21
REMARK    6  A    between atoms: C16_22  and  C17_23
REMARK                            x       y       z     vdW  Elec       q    Type
REMARK                         _______ _______ _______ _____ _____    ______ ____
ROOT
ATOM      1  C6  UNL     1      22.236  14.285  23.932  0.00  0.00    +0.265 C 
ATOM      2  O1  UNL     1      21.032  14.043  23.648  0.00  0.00    -0.268 OA
ATOM      3  N2  UNL     1      23.191  14.462  22.875  0.00  0.00    -0.294 N 
ATOM      4  C7  UNL     1      23.970  15.706  22.816  0.00  0.00    +0.108 C 
ATOM      5  C8  UNL     1      24.823  15.796  21.537  0.00  0.00    +0.026 C 
ATOM      6  C9  UNL     1      24.088  15.327  20.262  0.00  0.00    +0.030 C 
ATOM      7  C10 UNL     1      22.774  16.002  19.990  0.00  0.00    +0.114 C 
ATOM      8  N3  UNL     1      21.933  14.808  20.208  0.00  0.00    -0.292 N 
ATOM      9  C11 UNL     1      20.530  14.540  20.271  0.00  0.00    +0.249 C 
ATOM     10  O2  UNL     1      19.722  15.505  20.224  0.00  0.00    -0.270 OA
ATOM     11  C18 UNL     1      23.220  14.109  20.425  0.00  0.00    +0.098 C 
ATOM     12  C19 UNL     1      23.301  13.455  21.815  0.00  0.00    +0.131 C 
ENDROOT
BRANCH   1  18
ATOM     13  C1  UNL     1      24.362  13.370  28.297  0.00  0.00    +0.086 C 
ATOM     14  C2  UNL     1      23.533  14.019  27.240  0.00  0.00    +0.105 A 
ATOM     15  N1  UNL     1      22.911  15.206  27.413  0.00  0.00    -0.237 NA
ATOM     16  C3  UNL     1      22.345  15.455  26.214  0.00  0.00    +0.069 A 
ATOM     17  C4  UNL     1      21.588  16.710  25.912  0.00  0.00    +0.068 C 
ATOM     18  C5  UNL     1      22.630  14.416  25.344  0.00  0.00    +0.124 A 
ATOM     19  N5  UNL     1      23.402  13.528  25.991  0.00  0.00    -0.338 N 
ATOM     20  H25 UNL     1      23.811  12.644  25.612  0.00  0.00    +0.167 HD
ENDBRANCH   1  18
BRANCH   9  21
ATOM     21  C12 UNL     1      20.018  13.164  20.408  0.00  0.00    +0.057 A 
ATOM     22  C13 UNL     1      19.168  12.703  21.399  0.00  0.00    +0.032 A 
ATOM     23  C14 UNL     1      18.984  11.356  21.166  0.00  0.00    +0.086 A 
ATOM     24  N4  UNL     1      19.687  10.973  20.083  0.00  0.00    -0.353 N 
ATOM     25  C15 UNL     1      19.736   9.619  19.538  0.00  0.00    +0.148 C 
ATOM     26  C16 UNL     1      20.315  12.071  19.603  0.00  0.00    +0.027 A 
ATOM     27  C17 UNL     1      21.226  12.081  18.409  0.00  0.00    +0.064 C 
ENDBRANCH   9  21
TORSDOF 2
ENDMDL
MODEL 2
REMARK VINA RESULT:    -6.368      1.717      6.592
REMARK INTER + INTRA:          -7.686
REMARK INTER:                  -7.032
REMARK INTRA:                  -0.654
REMARK UNBOUND:                -0.573
REMARK  Name = /home/qwerty/github/datacon2025hack/step_04_hit_selection/docking/ligands/lig_721.pdb
REMARK  6 active torsions:
REMARK  status: ('A' for Active; 'I' for Inactive)
REMARK    1  A    between atoms: C1_1  and  C2_2
REMARK    2  A    between atoms: C3_4  and  C4_5
REMARK    3  A    between atoms: C5_6  and  C6_7
REMARK    4  A    between atoms: C11_15  and  C12_17
REMARK    5  A    between atoms: N4_20  and  C15_21
REMARK    6  A    between atoms: C16_22  and  C17_23
REMARK                            x       y       z     vdW  Elec       q    Type
REMARK                         _______ _______ _______ _____ _____    ______ ____
ROOT
ATOM      1  C6  UNL     1      20.588  12.913  21.079  0.00  0.00    +0.265 C 
ATOM      2  O1  UNL     1      21.106  12.394  22.104  0.00  0.00    -0.268 OA
ATOM      3  N2  UNL     1      21.009  14.218  20.655  0.00  0.00    -0.294 N 
ATOM      4  C7  UNL     1      21.526  14.395  19.292  0.00  0.00    +0.108 C 
ATOM      5  C8  UNL     1      22.078  15.814  19.061  0.00  0.00    +0.026 C 
ATOM      6  C9  UNL     1      22.913  16.359  20.241  0.00  0.00    +0.030 C 
ATOM      7  C10 UNL     1      24.052  15.485  20.682  0.00  0.00    +0.114 C 
ATOM      8  N3  UNL     1      23.487  15.142  22.004  0.00  0.00    -0.292 N 
ATOM      9  C11 UNL     1      23.842  14.260  23.072  0.00  0.00    +0.249 C 
ATOM     10  O2  UNL     1      24.814  13.474  22.918  0.00  0.00    -0.270 OA
ATOM     11  C18 UNL     1      22.380  16.043  21.613  0.00  0.00    +0.098 C 
ATOM     12  C19 UNL     1      21.018  15.328  21.614  0.00  0.00    +0.131 C 
ENDROOT
BRANCH   1  18
ATOM     13  C1  UNL     1      16.286  11.560  19.062  0.00  0.00    +0.086 C 
ATOM     14  C2  UNL     1      17.725  11.550  19.452  0.00  0.00    +0.105 A 
ATOM     15  N1  UNL     1      18.617  10.658  18.969  0.00  0.00    -0.237 NA
ATOM     16  C3  UNL     1      19.790  11.041  19.513  0.00  0.00    +0.069 A 
ATOM     17  C4  UNL     1      21.092  10.368  19.209  0.00  0.00    +0.068 C 
ATOM     18  C5  UNL     1      19.585  12.151  20.316  0.00  0.00    +0.124 A 
ATOM     19  N5  UNL     1      18.285  12.481  20.250  0.00  0.00    -0.338 N 
ATOM     20  H25 UNL     1      17.808  13.284  20.720  0.00  0.00    +0.167 HD
ENDBRANCH   1  18
BRANCH   9  21
ATOM     21  C12 UNL     1      23.082  14.244  24.336  0.00  0.00    +0.057 A 
ATOM     22  C13 UNL     1      22.345  13.180  24.831  0.00  0.00    +0.032 A 
ATOM     23  C14 UNL     1      21.771  13.614  26.009  0.00  0.00    +0.086 A 
ATOM     24  N4  UNL     1      22.118  14.894  26.249  0.00  0.00    -0.353 N 
ATOM     25  C15 UNL     1      21.696  15.685  27.401  0.00  0.00    +0.148 C 
ATOM     26  C16 UNL     1      22.928  15.287  25.240  0.00  0.00    +0.027 A 
ATOM     27  C17 UNL     1      23.525  16.659  25.108  0.00  0.00    +0.064 C 
ENDBRANCH   9  21
TORSDOF 2
ENDMDL
MODEL 3
REMARK VINA RESULT:    -6.303      2.743      6.498
REMARK INTER + INTRA:          -7.613
REMARK INTER:                  -6.985
REMARK INTRA:                  -0.628
REMARK UNBOUND:                -0.573
REMARK  Name = /home/qwerty/github/datacon2025hack/step_04_hit_selection/docking/ligands/lig_721.pdb
REMARK  6 active torsions:
REMARK  status: ('A' for Active; 'I' for Inactive)
REMARK    1  A    between atoms: C1_1  and  C2_2
REMARK    2  A    between atoms: C3_4  and  C4_5
REMARK    3  A    between atoms: C5_6  and  C6_7
REMARK    4  A    between atoms: C11_15  and  C12_17
REMARK    5  A    between atoms: N4_20  and  C15_21
REMARK    6  A    between atoms: C16_22  and  C17_23
REMARK                            x       y       z     vdW  Elec       q    Type
REMARK                         _______ _______ _______ _____ _____    ______ ____
ROOT
ATOM      1  C6  UNL     1      23.117  11.643  20.823  0.00  0.00    +0.265 C 
ATOM      2  O1  UNL     1      23.951  12.351  21.448  0.00  0.00    -0.268 OA
ATOM      3  N2  UNL     1      21.809  12.167  20.548  0.00  0.00    -0.294 N 
ATOM      4  C7  UNL     1      21.338  12.223  19.158  0.00  0.00    +0.108 C 
ATOM      5  C8  UNL     1      19.990  12.955  19.031  0.00  0.00    +0.026 C 
ATOM      6  C9  UNL     1      19.889  14.233  19.895  0.00  0.00    +0.030 C 
ATOM      7  C10 UNL     1      20.984  15.240  19.686  0.00  0.00    +0.114 C 
ATOM      8  N3  UNL     1      21.597  15.089  21.022  0.00  0.00    -0.292 N 
ATOM      9  C11 UNL     1      22.769  15.584  21.674  0.00  0.00    +0.249 C 
ATOM     10  O2  UNL     1      23.599  16.256  21.008  0.00  0.00    -0.270 OA
ATOM     11  C18 UNL     1      20.493  14.135  21.270  0.00  0.00    +0.098 C 
ATOM     12  C19 UNL     1      21.007  12.732  21.638  0.00  0.00    +0.131 C 
ENDROOT
BRANCH   1  18
ATOM     13  C1  UNL     1      23.344   6.730  20.354  0.00  0.00    +0.086 C 
ATOM     14  C2  UNL     1      23.631   8.180  20.157  0.00  0.00    +0.105 A 
ATOM     15  N1  UNL     1      24.456   8.647  19.194  0.00  0.00    -0.237 NA
ATOM     16  C3  UNL     1      24.378   9.987  19.320  0.00  0.00    +0.069 A 
ATOM     17  C4  UNL     1      25.092  10.937  18.409  0.00  0.00    +0.068 C 
ATOM     18  C5  UNL     1      23.515  10.305  20.356  0.00  0.00    +0.124 A 
ATOM     19  N5  UNL     1      23.028   9.160  20.860  0.00  0.00    -0.338 N 
ATOM     20  H25 UNL     1      22.334   9.050  21.634  0.00  0.00    +0.167 HD
ENDBRANCH   1  18
BRANCH   9  21
ATOM     21  C12 UNL     1      23.029  15.305  23.099  0.00  0.00    +0.057 A 
ATOM     22  C13 UNL     1      24.013  14.470  23.601  0.00  0.00    +0.032 A 
ATOM     23  C14 UNL     1      23.869  14.472  24.973  0.00  0.00    +0.086 A 
ATOM     24  N4  UNL     1      22.838  15.263  25.329  0.00  0.00    -0.353 N 
ATOM     25  C15 UNL     1      22.388  15.506  26.697  0.00  0.00    +0.148 C 
ATOM     26  C16 UNL     1      22.324  15.788  24.194  0.00  0.00    +0.027 A 
ATOM     27  C17 UNL     1      21.141  16.712  24.139  0.00  0.00    +0.064 C 
ENDBRANCH   9  21
TORSDOF 2
ENDMDL
MODEL 4
REMARK VINA RESULT:    -6.111     11.682     14.055
REMARK INTER + INTRA:          -7.399
REMARK INTER:                  -6.845
REMARK INTRA:                  -0.555
REMARK UNBOUND:                -0.573
REMARK  Name = /home/qwerty/github/datacon2025hack/step_04_hit_selection/docking/ligands/lig_721.pdb
REMARK  6 active torsions:
REMARK  status: ('A' for Active; 'I' for Inactive)
REMARK    1  A    between atoms: C1_1  and  C2_2
REMARK    2  A    between atoms: C3_4  and  C4_5
REMARK    3  A    between atoms: C5_6  and  C6_7
REMARK    4  A    between atoms: C11_15  and  C12_17
REMARK    5  A    between atoms: N4_20  and  C15_21
REMARK    6  A    between atoms: C16_22  and  C17_23
REMARK                            x       y       z     vdW  Elec       q    Type
REMARK                         _______ _______ _______ _____ _____    ______ ____
ROOT
ATOM      1  C6  UNL     1      21.659   4.180  31.973  0.00  0.00    +0.265 C 
ATOM      2  O1  UNL     1      22.412   3.448  31.276  0.00  0.00    -0.268 OA
ATOM      3  N2  UNL     1      20.235   4.018  31.882  0.00  0.00    -0.294 N 
ATOM      4  C7  UNL     1      19.468   3.736  33.103  0.00  0.00    +0.108 C 
ATOM      5  C8  UNL     1      17.989   3.435  32.802  0.00  0.00    +0.026 C 
ATOM      6  C9  UNL     1      17.774   2.525  31.571  0.00  0.00    +0.030 C 
ATOM      7  C10 UNL     1      18.516   1.220  31.598  0.00  0.00    +0.114 C 
ATOM      8  N3  UNL     1      19.427   1.531  30.477  0.00  0.00    -0.292 N 
ATOM      9  C11 UNL     1      20.558   0.901  29.871  0.00  0.00    +0.249 C 
ATOM     10  O2  UNL     1      21.030  -0.142  30.395  0.00  0.00    -0.270 OA
ATOM     11  C18 UNL     1      18.673   2.802  30.396  0.00  0.00    +0.098 C 
ATOM     12  C19 UNL     1      19.582   4.031  30.569  0.00  0.00    +0.131 C 
ENDROOT
BRANCH   1  18
ATOM     13  C1  UNL     1      23.510   6.220  36.073  0.00  0.00    +0.086 C 
ATOM     14  C2  UNL     1      23.045   6.056  34.666  0.00  0.00    +0.105 A 
ATOM     15  N1  UNL     1      23.227   6.996  33.713  0.00  0.00    -0.237 NA
ATOM     16  C3  UNL     1      22.732   6.427  32.595  0.00  0.00    +0.069 A 
ATOM     17  C4  UNL     1      22.773   7.089  31.253  0.00  0.00    +0.068 C 
ATOM     18  C5  UNL     1      22.257   5.161  32.893  0.00  0.00    +0.124 A 
ATOM     19  N5  UNL     1      22.483   4.925  34.195  0.00  0.00    -0.338 N 
ATOM     20  H25 UNL     1      22.267   4.054  34.731  0.00  0.00    +0.167 HD
ENDBRANCH   1  18
BRANCH   9  21
ATOM     21  C12 UNL     1      21.188   1.459  28.659  0.00  0.00    +0.057 A 
ATOM     22  C13 UNL     1      22.472   1.971  28.569  0.00  0.00    +0.032 A 
ATOM     23  C14 UNL     1      22.627   2.418  27.273  0.00  0.00    +0.086 A 
ATOM     24  N4  UNL     1      21.495   2.209  26.572  0.00  0.00    -0.353 N 
ATOM     25  C15 UNL     1      21.289   2.556  25.169  0.00  0.00    +0.148 C 
ATOM     26  C16 UNL     1      20.612   1.613  27.405  0.00  0.00    +0.027 A 
ATOM     27  C17 UNL     1      19.211   1.225  27.028  0.00  0.00    +0.064 C 
ENDBRANCH   9  21
TORSDOF 2
ENDMDL
MODEL 5
REMARK VINA RESULT:    -6.081     20.647     22.905
REMARK INTER + INTRA:          -7.365
REMARK INTER:                  -6.753
REMARK INTRA:                  -0.612
REMARK UNBOUND:                -0.573
REMARK  Name = /home/qwerty/github/datacon2025hack/step_04_hit_selection/docking/ligands/lig_721.pdb
REMARK  6 active torsions:
REMARK  status: ('A' for Active; 'I' for Inactive)
REMARK    1  A    between atoms: C1_1  and  C2_2
REMARK    2  A    between atoms: C3_4  and  C4_5
REMARK    3  A    between atoms: C5_6  and  C6_7
REMARK    4  A    between atoms: C11_15  and  C12_17
REMARK    5  A    between atoms: N4_20  and  C15_21
REMARK    6  A    between atoms: C16_22  and  C17_23
REMARK                            x       y       z     vdW  Elec       q    Type
REMARK                         _______ _______ _______ _____ _____    ______ ____
ROOT
ATOM      1  C6  UNL     1       9.746   1.585  36.290  0.00  0.00    +0.265 C 
ATOM      2  O1  UNL     1      10.421   1.134  35.327  0.00  0.00    -0.268 OA
ATOM      3  N2  UNL     1       8.436   1.057  36.545  0.00  0.00    -0.294 N 
ATOM      4  C7  UNL     1       8.137   0.492  37.868  0.00  0.00    +0.108 C 
ATOM      5  C8  UNL     1       6.748  -0.170  37.915  0.00  0.00    +0.026 C 
ATOM      6  C9  UNL     1       6.412  -1.010  36.663  0.00  0.00    +0.030 C 
ATOM      7  C10 UNL     1       7.417  -2.070  36.311  0.00  0.00    +0.114 C 
ATOM      8  N3  UNL     1       7.872  -1.445  35.051  0.00  0.00    -0.292 N 
ATOM      9  C11 UNL     1       8.898  -1.705  34.091  0.00  0.00    +0.249 C 
ATOM     10  O2  UNL     1       9.732  -2.620  34.322  0.00  0.00    -0.270 OA
ATOM     11  C18 UNL     1       6.848  -0.419  35.350  0.00  0.00    +0.098 C 
ATOM     12  C19 UNL     1       7.452   0.992  35.460  0.00  0.00    +0.131 C 
ENDROOT
BRANCH   1  18
ATOM     13  C1  UNL     1      10.449   5.885  38.619  0.00  0.00    +0.086 C 
ATOM     14  C2  UNL     1      10.653   4.481  38.157  0.00  0.00    +0.105 A 
ATOM     15  N1  UNL     1      11.608   3.669  38.659  0.00  0.00    -0.237 NA
ATOM     16  C3  UNL     1      11.402   2.494  38.029  0.00  0.00    +0.069 A 
ATOM     17  C4  UNL     1      12.200   1.261  38.315  0.00  0.00    +0.068 C 
ATOM     18  C5  UNL     1      10.332   2.620  37.158  0.00  0.00    +0.124 A 
ATOM     19  N5  UNL     1       9.849   3.868  37.265  0.00  0.00    -0.338 N 
ATOM     20  H25 UNL     1       9.030   4.279  36.763  0.00  0.00    +0.167 HD
ENDBRANCH   1  18
BRANCH   9  21
ATOM     21  C12 UNL     1       9.008  -0.911  32.852  0.00  0.00    +0.057 A 
ATOM     22  C13 UNL     1      10.101  -0.157  32.460  0.00  0.00    +0.032 A 
ATOM     23  C14 UNL     1       9.755   0.446  31.267  0.00  0.00    +0.086 A 
ATOM     24  N4  UNL     1       8.501   0.099  30.920  0.00  0.00    -0.353 N 
ATOM     25  C15 UNL     1       7.798   0.547  29.721  0.00  0.00    +0.148 C 
ATOM     26  C16 UNL     1       8.037  -0.740  31.874  0.00  0.00    +0.027 A 
ATOM     27  C17 UNL     1       6.663  -1.346  31.884  0.00  0.00    +0.064 C 
ENDBRANCH   9  21
TORSDOF 2
ENDMDL
MODEL 6
REMARK VINA RESULT:    -6.030     11.253     14.653
REMARK INTER + INTRA:          -7.309
REMARK INTER:                  -6.699
REMARK INTRA:                  -0.610
REMARK UNBOUND:                -0.573
REMARK  Name = /home/qwerty/github/datacon2025hack/step_04_hit_selection/docking/ligands/lig_721.pdb
REMARK  6 active torsions:
REMARK  status: ('A' for Active; 'I' for Inactive)
REMARK    1  A    between atoms: C1_1  and  C2_2
REMARK    2  A    between atoms: C3_4  and  C4_5
REMARK    3  A    between atoms: C5_6  and  C6_7
REMARK    4  A    between atoms: C11_15  and  C12_17
REMARK    5  A    between atoms: N4_20  and  C15_21
REMARK    6  A    between atoms: C16_22  and  C17_23
REMARK                            x       y       z     vdW  Elec       q    Type
REMARK                         _______ _______ _______ _____ _____    ______ ____
ROOT
ATOM      1  C6  UNL     1      18.856   1.041  25.855  0.00  0.00    +0.265 C 
ATOM      2  O1  UNL     1      19.787   0.466  26.480  0.00  0.00    -0.268 OA
ATOM      3  N2  UNL     1      18.692   2.462  25.980  0.00  0.00    -0.294 N 
ATOM      4  C7  UNL     1      18.706   3.292  24.768  0.00  0.00    +0.108 C 
ATOM      5  C8  UNL     1      18.679   4.796  25.096  0.00  0.00    +0.026 C 
ATOM      6  C9  UNL     1      19.596   5.196  26.273  0.00  0.00    +0.030 C 
ATOM      7  C10 UNL     1      21.032   4.777  26.141  0.00  0.00    +0.114 C 
ATOM      8  N3  UNL     1      21.016   3.801  27.250  0.00  0.00    -0.292 N 
ATOM      9  C11 UNL     1      21.929   2.837  27.780  0.00  0.00    +0.249 C 
ATOM     10  O2  UNL     1      23.014   2.627  27.176  0.00  0.00    -0.270 OA
ATOM     11  C18 UNL     1      19.614   4.239  27.434  0.00  0.00    +0.098 C 
ATOM     12  C19 UNL     1      18.618   3.073  27.311  0.00  0.00    +0.131 C 
ENDROOT
BRANCH   1  18
ATOM     13  C1  UNL     1      17.124  -1.341  21.888  0.00  0.00    +0.086 C 
ATOM     14  C2  UNL     1      17.214  -0.773  23.265  0.00  0.00    +0.105 A 
ATOM     15  N1  UNL     1      16.312  -1.039  24.235  0.00  0.00    -0.237 NA
ATOM     16  C3  UNL     1      16.798  -0.397  25.317  0.00  0.00    +0.069 A 
ATOM     17  C4  UNL     1      16.150  -0.459  26.665  0.00  0.00    +0.068 C 
ATOM     18  C5  UNL     1      17.977   0.246  24.981  0.00  0.00    +0.124 A 
ATOM     19  N5  UNL     1      18.246  -0.018  23.692  0.00  0.00    -0.338 N 
ATOM     20  H25 UNL     1      19.074   0.296  23.137  0.00  0.00    +0.167 HD
ENDBRANCH   1  18
BRANCH   9  21
ATOM     21  C12 UNL     1      21.615   2.076  29.004  0.00  0.00    +0.057 A 
ATOM     22  C13 UNL     1      21.455   0.703  29.093  0.00  0.00    +0.032 A 
ATOM     23  C14 UNL     1      21.131   0.428  30.406  0.00  0.00    +0.086 A 
ATOM     24  N4  UNL     1      21.079   1.571  31.118  0.00  0.00    -0.353 N 
ATOM     25  C15 UNL     1      20.764   1.670  32.540  0.00  0.00    +0.148 C 
ATOM     26  C16 UNL     1      21.384   2.584  30.276  0.00  0.00    +0.027 A 
ATOM     27  C17 UNL     1      21.419   4.035  30.662  0.00  0.00    +0.064 C 
ENDBRANCH   9  21
TORSDOF 2
ENDMDL
MODEL 7
REMARK VINA RESULT:    -5.961     11.185     13.594
REMARK INTER + INTRA:          -7.231
REMARK INTER:                  -6.766
REMARK INTRA:                  -0.465
REMARK UNBOUND:                -0.573
REMARK  Name = /home/qwerty/github/datacon2025hack/step_04_hit_selection/docking/ligands/lig_721.pdb
REMARK  6 active torsions:
REMARK  status: ('A' for Active; 'I' for Inactive)
REMARK    1  A    between atoms: C1_1  and  C2_2
REMARK    2  A    between atoms: C3_4  and  C4_5
REMARK    3  A    between atoms: C5_6  and  C6_7
REMARK    4  A    between atoms: C11_15  and  C12_17
REMARK    5  A    between atoms: N4_20  and  C15_21
REMARK    6  A    between atoms: C16_22  and  C17_23
REMARK                            x       y       z     vdW  Elec       q    Type
REMARK                         _______ _______ _______ _____ _____    ______ ____
ROOT
ATOM      1  C6  UNL     1      21.461   4.234  31.703  0.00  0.00    +0.265 C 
ATOM      2  O1  UNL     1      22.056   4.618  30.660  0.00  0.00    -0.268 OA
ATOM      3  N2  UNL     1      20.700   3.018  31.677  0.00  0.00    -0.294 N 
ATOM      4  C7  UNL     1      21.019   1.953  32.638  0.00  0.00    +0.108 C 
ATOM      5  C8  UNL     1      20.219   0.667  32.366  0.00  0.00    +0.026 C 
ATOM      6  C9  UNL     1      20.116   0.300  30.868  0.00  0.00    +0.030 C 
ATOM      7  C10 UNL     1      21.426   0.193  30.141  0.00  0.00    +0.114 C 
ATOM      8  N3  UNL     1      21.219   1.365  29.266  0.00  0.00    -0.292 N 
ATOM      9  C11 UNL     1      22.006   2.087  28.317  0.00  0.00    +0.249 C 
ATOM     10  O2  UNL     1      23.220   1.784  28.174  0.00  0.00    -0.270 OA
ATOM     11  C18 UNL     1      19.899   1.457  29.931  0.00  0.00    +0.098 C 
ATOM     12  C19 UNL     1      19.693   2.810  30.632  0.00  0.00    +0.131 C 
ENDROOT
BRANCH   1  18
ATOM     13  C1  UNL     1      23.369   6.211  35.810  0.00  0.00    +0.086 C 
ATOM     14  C2  UNL     1      22.404   5.872  34.724  0.00  0.00    +0.105 A 
ATOM     15  N1  UNL     1      21.194   6.461  34.600  0.00  0.00    -0.237 NA
ATOM     16  C3  UNL     1      20.686   5.927  33.471  0.00  0.00    +0.069 A 
ATOM     17  C4  UNL     1      19.364   6.333  32.896  0.00  0.00    +0.068 C 
ATOM     18  C5  UNL     1      21.592   5.025  32.938  0.00  0.00    +0.124 A 
ATOM     19  N5  UNL     1      22.683   5.017  33.720  0.00  0.00    -0.338 N 
ATOM     20  H25 UNL     1      23.560   4.464  33.584  0.00  0.00    +0.167 HD
ENDBRANCH   1  18
BRANCH   9  21
ATOM     21  C12 UNL     1      21.429   3.186  27.520  0.00  0.00    +0.057 A 
ATOM     22  C13 UNL     1      21.438   4.530  27.856  0.00  0.00    +0.032 A 
ATOM     23  C14 UNL     1      20.757   5.191  26.854  0.00  0.00    +0.086 A 
ATOM     24  N4  UNL     1      20.329   4.311  25.928  0.00  0.00    -0.353 N 
ATOM     25  C15 UNL     1      19.571   4.648  24.726  0.00  0.00    +0.148 C 
ATOM     26  C16 UNL     1      20.743   3.084  26.317  0.00  0.00    +0.027 A 
ATOM     27  C17 UNL     1      20.456   1.811  25.574  0.00  0.00    +0.064 C 
ENDBRANCH   9  21
TORSDOF 2
ENDMDL
MODEL 8
REMARK VINA RESULT:    -5.875      1.893      2.939
REMARK INTER + INTRA:          -7.135
REMARK INTER:                  -6.820
REMARK INTRA:                  -0.314
REMARK UNBOUND:                -0.573
REMARK  Name = /home/qwerty/github/datacon2025hack/step_04_hit_selection/docking/ligands/lig_721.pdb
REMARK  6 active torsions:
REMARK  status: ('A' for Active; 'I' for Inactive)
REMARK    1  A    between atoms: C1_1  and  C2_2
REMARK    2  A    between atoms: C3_4  and  C4_5
REMARK    3  A    between atoms: C5_6  and  C6_7
REMARK    4  A    between atoms: C11_15  and  C12_17
REMARK    5  A    between atoms: N4_20  and  C15_21
REMARK    6  A    between atoms: C16_22  and  C17_23
REMARK                            x       y       z     vdW  Elec       q    Type
REMARK                         _______ _______ _______ _____ _____    ______ ____
ROOT
ATOM      1  C6  UNL     1      21.893  13.062  22.510  0.00  0.00    +0.265 C 
ATOM      2  O1  UNL     1      21.137  12.057  22.426  0.00  0.00    -0.268 OA
ATOM      3  N2  UNL     1      22.228  13.796  21.322  0.00  0.00    -0.294 N 
ATOM      4  C7  UNL     1      21.939  15.235  21.265  0.00  0.00    +0.108 C 
ATOM      5  C8  UNL     1      22.213  15.826  19.870  0.00  0.00    +0.026 C 
ATOM      6  C9  UNL     1      21.732  14.931  18.706  0.00  0.00    +0.030 C 
ATOM      7  C10 UNL     1      20.286  14.525  18.760  0.00  0.00    +0.114 C 
ATOM      8  N3  UNL     1      20.533  13.087  18.991  0.00  0.00    -0.292 N 
ATOM      9  C11 UNL     1      19.727  11.942  19.280  0.00  0.00    +0.249 C 
ATOM     10  O2  UNL     1      18.496  12.101  19.494  0.00  0.00    -0.270 OA
ATOM     11  C18 UNL     1      21.963  13.455  18.885  0.00  0.00    +0.098 C 
ATOM     12  C19 UNL     1      22.755  13.086  20.151  0.00  0.00    +0.131 C 
ENDROOT
BRANCH   1  18
ATOM     13  C1  UNL     1      22.097  13.907  27.373  0.00  0.00    +0.086 C 
ATOM     14  C2  UNL     1      22.478  13.866  25.931  0.00  0.00    +0.105 A 
ATOM     15  N1  UNL     1      23.702  14.214  25.479  0.00  0.00    -0.237 NA
ATOM     16  C3  UNL     1      23.643  13.969  24.154  0.00  0.00    +0.069 A 
ATOM     17  C4  UNL     1      24.810  14.153  23.235  0.00  0.00    +0.068 C 
ATOM     18  C5  UNL     1      22.387  13.483  23.831  0.00  0.00    +0.124 A 
ATOM     19  N5  UNL     1      21.667  13.397  24.961  0.00  0.00    -0.338 N 
ATOM     20  H25 UNL     1      20.689  13.046  25.068  0.00  0.00    +0.167 HD
ENDBRANCH   1  18
BRANCH   9  21
ATOM     21  C12 UNL     1      20.312  10.590  19.349  0.00  0.00    +0.057 A 
ATOM     22  C13 UNL     1      21.280  10.075  18.503  0.00  0.00    +0.032 A 
ATOM     23  C14 UNL     1      21.501   8.773  18.902  0.00  0.00    +0.086 A 
ATOM     24  N4  UNL     1      20.707   8.470  19.948  0.00  0.00    -0.353 N 
ATOM     25  C15 UNL     1      20.664   7.181  20.634  0.00  0.00    +0.148 C 
ATOM     26  C16 UNL     1      19.984   9.575  20.238  0.00  0.00    +0.027 A 
ATOM     27  C17 UNL     1      18.955   9.661  21.329  0.00  0.00    +0.064 C 
ENDBRANCH   9  21
TORSDOF 2
ENDMDL
MODEL 9
REMARK VINA RESULT:    -5.831     11.776     13.683
REMARK INTER + INTRA:          -7.086
REMARK INTER:                  -6.439
REMARK INTRA:                  -0.647
REMARK UNBOUND:                -0.573
REMARK  Name = /home/qwerty/github/datacon2025hack/step_04_hit_selection/docking/ligands/lig_721.pdb
REMARK  6 active torsions:
REMARK  status: ('A' for Active; 'I' for Inactive)
REMARK    1  A    between atoms: C1_1  and  C2_2
REMARK    2  A    between atoms: C3_4  and  C4_5
REMARK    3  A    between atoms: C5_6  and  C6_7
REMARK    4  A    between atoms: C11_15  and  C12_17
REMARK    5  A    between atoms: N4_20  and  C15_21
REMARK    6  A    between atoms: C16_22  and  C17_23
REMARK                            x       y       z     vdW  Elec       q    Type
REMARK                         _______ _______ _______ _____ _____    ______ ____
ROOT
ATOM      1  C6  UNL     1      19.807   1.819  28.104  0.00  0.00    +0.265 C 
ATOM      2  O1  UNL     1      18.565   1.610  28.138  0.00  0.00    -0.268 OA
ATOM      3  N2  UNL     1      20.475   1.915  26.837  0.00  0.00    -0.294 N 
ATOM      4  C7  UNL     1      21.247   3.125  26.524  0.00  0.00    +0.108 C 
ATOM      5  C8  UNL     1      21.758   3.127  25.072  0.00  0.00    +0.026 C 
ATOM      6  C9  UNL     1      20.719   2.629  24.042  0.00  0.00    +0.030 C 
ATOM      7  C10 UNL     1      19.397   3.341  24.068  0.00  0.00    +0.114 C 
ATOM      8  N3  UNL     1      18.605   2.189  24.548  0.00  0.00    -0.292 N 
ATOM      9  C11 UNL     1      17.256   1.977  24.967  0.00  0.00    +0.249 C 
ATOM     10  O2  UNL     1      16.486   2.968  25.071  0.00  0.00    -0.270 OA
ATOM     11  C18 UNL     1      19.888   1.453  24.477  0.00  0.00    +0.098 C 
ATOM     12  C19 UNL     1      20.294   0.858  25.836  0.00  0.00    +0.131 C 
ENDROOT
BRANCH   1  18
ATOM     13  C1  UNL     1      21.178   3.600  32.504  0.00  0.00    +0.086 C 
ATOM     14  C2  UNL     1      21.151   2.771  31.264  0.00  0.00    +0.105 A 
ATOM     15  N1  UNL     1      21.945   1.695  31.077  0.00  0.00    -0.237 NA
ATOM     16  C3  UNL     1      21.556   1.207  29.881  0.00  0.00    +0.069 A 
ATOM     17  C4  UNL     1      22.128  -0.040  29.281  0.00  0.00    +0.068 C 
ATOM     18  C5  UNL     1      20.542   1.997  29.368  0.00  0.00    +0.124 A 
ATOM     19  N5  UNL     1      20.274   2.966  30.259  0.00  0.00    -0.338 N 
ATOM     20  H25 UNL     1      19.546   3.713  30.187  0.00  0.00    +0.167 HD
ENDBRANCH   1  18
BRANCH   9  21
ATOM     21  C12 UNL     1      16.759   0.627  25.296  0.00  0.00    +0.057 A 
ATOM     22  C13 UNL     1      16.297   0.207  26.532  0.00  0.00    +0.032 A 
ATOM     23  C14 UNL     1      15.976  -1.129  26.399  0.00  0.00    +0.086 A 
ATOM     24  N4  UNL     1      16.227  -1.542  25.141  0.00  0.00    -0.353 N 
ATOM     25  C15 UNL     1      16.011  -2.894  24.633  0.00  0.00    +0.148 C 
ATOM     26  C16 UNL     1      16.695  -0.475  24.454  0.00  0.00    +0.027 A 
ATOM     27  C17 UNL     1      17.120  -0.507  23.014  0.00  0.00    +0.064 C 
ENDBRANCH   9  21
TORSDOF 2
ENDMDL
