REMARK  Name = /home/qwerty/github/datacon2025hack/step_04_hit_selection/docking/ligands/lig_221.pdb
REMARK  5 active torsions:
REMARK  status: ('A' for Active; 'I' for Inactive)
REMARK    1  A    between atoms: C1_1  and  C2_2
REMARK    2  A    between atoms: C6_6  and  C7_7
REMARK    3  A    between atoms: C8_9  and  C9_10
REMARK    4  A    between atoms: C9_10  and  C10_11
REMARK    5  A    between atoms: N3_16  and  C13_17
REMARK                            x       y       z     vdW  Elec       q    Type
REMARK                         _______ _______ _______ _____ _____    ______ ____
ROOT
ATOM      1  C10 UNL     1      -0.211   0.397   0.241  0.00  0.00    +0.221 C 
ATOM      2  O1  UNL     1       0.525   1.304  -0.236  0.00  0.00    -0.275 OA
ATOM      3  N2  UNL     1      -1.644   0.517   0.142  0.00  0.00    -0.298 N 
ATOM      4  C11 UNL     1      -2.225   1.333  -0.932  0.00  0.00    +0.126 C 
ATOM      5  C12 UNL     1      -3.558   0.740  -1.394  0.00  0.00    +0.125 C 
ATOM      6  N3  UNL     1      -4.403   0.430  -0.236  0.00  0.00    -0.312 N 
ATOM      7  C18 UNL     1      -3.818  -0.404   0.822  0.00  0.00    +0.125 C 
ATOM      8  C19 UNL     1      -2.499   0.205   1.296  0.00  0.00    +0.126 C 
ENDROOT
BRANCH   6   9
ATOM      9  C13 UNL     1      -5.829   0.605  -0.325  0.00  0.00    +0.121 A 
ATOM     10  C14 UNL     1      -6.579   0.985   0.798  0.00  0.00    +0.045 A 
ATOM     11  C15 UNL     1      -7.958   1.168   0.673  0.00  0.00    +0.025 A 
ATOM     12  C16 UNL     1      -8.577   0.976  -0.564  0.00  0.00    +0.059 A 
ATOM     13 CL1  UNL     1     -10.305   1.213  -0.737  0.00  0.00    -0.082 Cl
ATOM     14  C17 UNL     1      -7.801   0.603  -1.662  0.00  0.00    +0.132 A 
ATOM     15  N4  UNL     1      -6.459   0.431  -1.521  0.00  0.00    -0.239 NA
ENDBRANCH   6   9
BRANCH   1  16
ATOM     16  C9  UNL     1       0.421  -0.774   0.944  0.00  0.00    +0.151 C 
BRANCH  16  19
ATOM     17  C7  UNL     1       3.929  -1.047  -0.109  0.00  0.00    +0.109 A 
ATOM     18  N1  UNL     1       2.895  -0.590   0.636  0.00  0.00    -0.243 NA
ATOM     19  C8  UNL     1       1.712  -1.170   0.290  0.00  0.00    +0.058 A 
ATOM     20  C20 UNL     1       1.786  -2.091  -0.753  0.00  0.00    +0.071 A 
ATOM     21  S1  UNL     1       3.394  -2.184  -1.234  0.00  0.00    -0.075 S 
BRANCH  17  27
ATOM     22  C1  UNL     1       8.777  -1.180  -1.452  0.00  0.00    +0.044 C 
ATOM     23  C2  UNL     1       7.677  -0.616  -0.601  0.00  0.00    -0.050 A 
ATOM     24  C3  UNL     1       7.966   0.328   0.394  0.00  0.00    +0.003 A 
ATOM     25  C4  UNL     1       6.945   0.830   1.205  0.00  0.00    +0.001 A 
ATOM     26  C5  UNL     1       5.631   0.384   1.037  0.00  0.00    +0.010 A 
ATOM     27  C6  UNL     1       5.324  -0.577   0.057  0.00  0.00    +0.007 A 
ATOM     28  C21 UNL     1       6.359  -1.078  -0.756  0.00  0.00    +0.014 A 
ENDBRANCH  17  27
ENDBRANCH  16  19
ENDBRANCH   1  16
TORSDOF 4
