REMARK  Name = /home/qwerty/github/datacon2025hack/step_04_hit_selection/docking/ligands/lig_779.pdb
REMARK  10 active torsions:
REMARK  status: ('A' for Active; 'I' for Inactive)
REMARK    1  A    between atoms: C1_1  and  C2_2
REMARK    2  A    between atoms: C2_2  and  N1_3
REMARK    3  A    between atoms: N1_3  and  C3_4
REMARK    4  A    between atoms: N1_3  and  S1_6
REMARK    5  A    between atoms: C3_4  and  C4_5
REMARK    6  A    between atoms: S1_6  and  C5_9
REMARK    7  A    between atoms: C8_12  and  N2_13
REMARK    8  A    between atoms: C13_18  and  N3_19
REMARK    9  A    between atoms: C14_20  and  C15_22
REMARK   10  A    between atoms: C18_26  and  C19_27
REMARK                            x       y       z     vdW  Elec       q    Type
REMARK                         _______ _______ _______ _____ _____    ______ ____
ROOT
ATOM      1  C5  UNL     1      -3.184  -0.680   1.583  0.00  0.00    +0.107 A 
ATOM      2  C6  UNL     1      -3.401  -1.902   0.936  0.00  0.00    +0.030 A 
ATOM      3  C7  UNL     1      -2.344  -2.561   0.305  0.00  0.00    +0.027 A 
ATOM      4  C8  UNL     1      -1.056  -2.003   0.301  0.00  0.00    +0.051 A 
ATOM      5  C13 UNL     1      -0.844  -0.749   0.917  0.00  0.00    +0.057 A 
ATOM      6  C24 UNL     1      -1.904  -0.114   1.579  0.00  0.00    +0.053 A 
ENDROOT
BRANCH   4   7
ATOM      7  N2  UNL     1       0.034  -2.741  -0.278  0.00  0.00    -0.328 N 
ATOM      8  C9  UNL     1       0.003  -3.297  -1.618  0.00  0.00    +0.105 C 
ATOM      9  C10 UNL     1       1.374  -3.926  -1.822  0.00  0.00    +0.020 C 
ATOM     10  C11 UNL     1       1.939  -4.144  -0.421  0.00  0.00    +0.020 C 
ATOM     11  C12 UNL     1       1.196  -3.170   0.483  0.00  0.00    +0.105 C 
ENDBRANCH   4   7
BRANCH   5  12
ATOM     12  N3  UNL     1       0.430  -0.089   0.861  0.00  0.00    -0.280 N 
ATOM     13  C14 UNL     1       1.092   0.190  -0.384  0.00  0.00    +0.255 C 
ATOM     14  O3  UNL     1       0.466   0.036  -1.468  0.00  0.00    -0.270 OA
ATOM     15  H21 UNL     1       0.767   0.394   1.723  0.00  0.00    +0.155 HD
BRANCH  13  16
ATOM     16  C15 UNL     1       2.501   0.669  -0.406  0.00  0.00    +0.120 A 
ATOM     17  C16 UNL     1       3.356   0.382   0.662  0.00  0.00    +0.131 A 
ATOM     18  N4  UNL     1       4.640   0.805   0.640  0.00  0.00    -0.236 NA
ATOM     19  C17 UNL     1       5.143   1.514  -0.404  0.00  0.00    +0.143 A 
ATOM     20  C18 UNL     1       6.489   1.933  -0.375  0.00  0.00    -0.008 A 
ATOM     21  C19 UNL     1       7.388   1.586   0.781  0.00  0.00    +0.047 C 
ATOM     22  C20 UNL     1       7.002   2.633  -1.470  0.00  0.00    +0.008 A 
ATOM     23  C21 UNL     1       6.184   2.926  -2.555  0.00  0.00    +0.019 A 
ATOM     24  C22 UNL     1       4.854   2.509  -2.548  0.00  0.00    +0.096 A 
ATOM     25  N5  UNL     1       4.339   1.811  -1.485  0.00  0.00    -0.267 N 
ATOM     26  C23 UNL     1       3.026   1.400  -1.492  0.00  0.00    +0.271 A 
ATOM     27  O4  UNL     1       2.277   1.684  -2.470  0.00  0.00    -0.266 OA
ENDBRANCH  13  16
ENDBRANCH   5  12
BRANCH   1  28
ATOM     28  S1  UNL     1      -4.520   0.151   2.383  0.00  0.00    +0.061 S 
ATOM     29  O1  UNL     1      -3.982   0.992   3.506  0.00  0.00    -0.153 OA
ATOM     30  O2  UNL     1      -5.438  -0.875   2.988  0.00  0.00    -0.153 OA
BRANCH  28  31
ATOM     31  N1  UNL     1      -5.420   1.152   1.256  0.00  0.00    -0.177 NA
BRANCH  31  33
ATOM     32  C1  UNL     1      -4.341   3.372   1.545  0.00  0.00    +0.022 C 
ATOM     33  C2  UNL     1      -4.541   2.166   0.629  0.00  0.00    +0.106 C 
ENDBRANCH  31  33
BRANCH  31  34
ATOM     34  C3  UNL     1      -6.053   0.298   0.231  0.00  0.00    +0.106 C 
ATOM     35  C4  UNL     1      -7.328   0.950  -0.299  0.00  0.00    +0.022 C 
ENDBRANCH  31  34
ENDBRANCH  28  31
ENDBRANCH   1  28
TORSDOF 7
