MODEL 1
REMARK VINA RESULT:    -6.204      0.000      0.000
REMARK INTER + INTRA:          -7.720
REMARK INTER:                  -7.292
REMARK INTRA:                  -0.428
REMARK UNBOUND:                -0.428
REMARK  Name = /home/qwerty/github/datacon2025hack/step_04_hit_selection/docking/ligands/lig_255.pdb
REMARK  4 active torsions:
REMARK  status: ('A' for Active; 'I' for Inactive)
REMARK    1  A    between atoms: C1_1  and  C2_2
REMARK    2  A    between atoms: C4_4  and  N1_5
REMARK    3  A    between atoms: C5_6  and  C6_8
REMARK    4  A    between atoms: C13_18  and  C14_20
REMARK                            x       y       z     vdW  Elec       q    Type
REMARK                         _______ _______ _______ _____ _____    ______ ____
ROOT
ATOM      1  C1  UNL     1       8.709   5.810  22.295  0.00  0.00    +0.028 C 
ATOM      2  C2  UNL     1       9.696   5.974  21.131  0.00  0.00    +0.075 C 
ATOM      3  C3  UNL     1      10.209   4.615  20.642  0.00  0.00    +0.046 C 
ATOM      4  C4  UNL     1      11.696   4.831  20.343  0.00  0.00    +0.092 C 
ATOM      5  C12 UNL     1      12.115   5.983  21.252  0.00  0.00    +0.130 C 
ATOM      6  N3  UNL     1      10.891   6.711  21.539  0.00  0.00    -0.290 N 
ATOM      7  C13 UNL     1      10.911   7.994  22.196  0.00  0.00    +0.285 C 
ATOM      8  O3  UNL     1      11.890   8.284  22.938  0.00  0.00    -0.267 OA
ENDROOT
BRANCH   7   9
ATOM      9  C14 UNL     1       9.833   8.991  21.998  0.00  0.00    +0.217 C 
ATOM     10  C15 UNL     1       9.682   9.631  20.829  0.00  0.00    +0.238 C 
ATOM     11  O4  UNL     1       8.685  10.605  20.690  0.00  0.00    -0.492 OA
ATOM     12  C16 UNL     1       7.995  11.134  21.823  0.00  0.00    +0.269 C 
ATOM     13  C17 UNL     1       7.741  10.018  22.836  0.00  0.00    +0.270 C 
ATOM     14  O5  UNL     1       8.944   9.277  23.044  0.00  0.00    -0.481 OA
ENDBRANCH   7   9
BRANCH   4  15
ATOM     15  N1  UNL     1      12.500   3.626  20.589  0.00  0.00    -0.306 N 
ATOM     16  C5  UNL     1      13.833   3.492  20.070  0.00  0.00    +0.261 C 
ATOM     17  O1  UNL     1      14.327   4.413  19.364  0.00  0.00    -0.269 OA
ATOM     18  H8  UNL     1      12.072   2.824  21.100  0.00  0.00    +0.149 HD
BRANCH  16  19
ATOM     19  C6  UNL     1      14.645   2.289  20.341  0.00  0.00    +0.106 A 
ATOM     20  C7  UNL     1      14.955   1.772  21.621  0.00  0.00    +0.079 A 
ATOM     21  C8  UNL     1      15.716   0.675  21.318  0.00  0.00    +0.153 A 
ATOM     22  O2  UNL     1      16.346  -0.275  21.953  0.00  0.00    -0.461 OA
ATOM     23  C9  UNL     1      16.897  -1.030  21.002  0.00  0.00    +0.198 A 
ATOM     24  C10 UNL     1      16.598  -0.531  19.719  0.00  0.00    +0.067 A 
ATOM     25  C11 UNL     1      15.836   0.564  20.018  0.00  0.00    +0.086 A 
ATOM     26  N2  UNL     1      15.199   1.530  19.350  0.00  0.00    -0.348 N 
ATOM     27  H12 UNL     1      15.144   1.665  18.316  0.00  0.00    +0.166 HD
ENDBRANCH  16  19
ENDBRANCH   4  15
TORSDOF 3
ENDMDL
MODEL 2
REMARK VINA RESULT:    -6.120     14.003     17.470
REMARK INTER + INTRA:          -7.622
REMARK INTER:                  -7.122
REMARK INTRA:                  -0.500
REMARK UNBOUND:                -0.428
REMARK  Name = /home/qwerty/github/datacon2025hack/step_04_hit_selection/docking/ligands/lig_255.pdb
REMARK  4 active torsions:
REMARK  status: ('A' for Active; 'I' for Inactive)
REMARK    1  A    between atoms: C1_1  and  C2_2
REMARK    2  A    between atoms: C4_4  and  N1_5
REMARK    3  A    between atoms: C5_6  and  C6_8
REMARK    4  A    between atoms: C13_18  and  C14_20
REMARK                            x       y       z     vdW  Elec       q    Type
REMARK                         _______ _______ _______ _____ _____    ______ ____
ROOT
ATOM      1  C1  UNL     1      20.282   1.104  32.219  0.00  0.00    +0.028 C 
ATOM      2  C2  UNL     1      21.436   2.079  32.487  0.00  0.00    +0.075 C 
ATOM      3  C3  UNL     1      21.194   2.889  33.766  0.00  0.00    +0.046 C 
ATOM      4  C4  UNL     1      21.675   4.307  33.442  0.00  0.00    +0.092 C 
ATOM      5  C12 UNL     1      21.524   4.435  31.928  0.00  0.00    +0.130 C 
ATOM      6  N3  UNL     1      21.559   3.073  31.422  0.00  0.00    -0.290 N 
ATOM      7  C13 UNL     1      21.658   2.794  30.011  0.00  0.00    +0.285 C 
ATOM      8  O3  UNL     1      21.250   3.659  29.188  0.00  0.00    -0.267 OA
ENDROOT
BRANCH   7   9
ATOM      9  C14 UNL     1      22.258   1.538  29.503  0.00  0.00    +0.217 C 
ATOM     10  C15 UNL     1      21.575   0.718  28.690  0.00  0.00    +0.238 C 
ATOM     11  O4  UNL     1      22.151  -0.486  28.268  0.00  0.00    -0.492 OA
ATOM     12  C16 UNL     1      23.333  -1.004  28.880  0.00  0.00    +0.269 C 
ATOM     13  C17 UNL     1      24.285   0.146  29.210  0.00  0.00    +0.270 C 
ATOM     14  O5  UNL     1      23.567   1.190  29.868  0.00  0.00    -0.481 OA
ENDBRANCH   7   9
BRANCH   4  15
ATOM     15  N1  UNL     1      20.908   5.337  34.153  0.00  0.00    -0.306 N 
ATOM     16  C5  UNL     1      21.503   6.141  35.185  0.00  0.00    +0.261 C 
ATOM     17  O1  UNL     1      22.704   5.949  35.515  0.00  0.00    -0.269 OA
ATOM     18  H8  UNL     1      19.892   5.448  33.947  0.00  0.00    +0.149 HD
BRANCH  16  19
ATOM     19  C6  UNL     1      20.732   7.192  35.879  0.00  0.00    +0.106 A 
ATOM     20  C7  UNL     1      20.006   7.028  37.083  0.00  0.00    +0.079 A 
ATOM     21  C8  UNL     1      19.487   8.279  37.285  0.00  0.00    +0.153 A 
ATOM     22  O2  UNL     1      18.733   8.887  38.159  0.00  0.00    -0.461 OA
ATOM     23  C9  UNL     1      18.625  10.141  37.719  0.00  0.00    +0.198 A 
ATOM     24  C10 UNL     1      19.342  10.324  36.520  0.00  0.00    +0.067 A 
ATOM     25  C11 UNL     1      19.864   9.077  36.316  0.00  0.00    +0.086 A 
ATOM     26  N2  UNL     1      20.635   8.471  35.410  0.00  0.00    -0.348 N 
ATOM     27  H12 UNL     1      21.059   8.885  34.549  0.00  0.00    +0.166 HD
ENDBRANCH  16  19
ENDBRANCH   4  15
TORSDOF 3
ENDMDL
MODEL 3
REMARK VINA RESULT:    -6.081     10.324     12.825
REMARK INTER + INTRA:          -7.576
REMARK INTER:                  -7.207
REMARK INTRA:                  -0.370
REMARK UNBOUND:                -0.428
REMARK  Name = /home/qwerty/github/datacon2025hack/step_04_hit_selection/docking/ligands/lig_255.pdb
REMARK  4 active torsions:
REMARK  status: ('A' for Active; 'I' for Inactive)
REMARK    1  A    between atoms: C1_1  and  C2_2
REMARK    2  A    between atoms: C4_4  and  N1_5
REMARK    3  A    between atoms: C5_6  and  C6_8
REMARK    4  A    between atoms: C13_18  and  C14_20
REMARK                            x       y       z     vdW  Elec       q    Type
REMARK                         _______ _______ _______ _____ _____    ______ ____
ROOT
ATOM      1  C1  UNL     1      19.488   1.676  27.489  0.00  0.00    +0.028 C 
ATOM      2  C2  UNL     1      20.348   2.944  27.579  0.00  0.00    +0.075 C 
ATOM      3  C3  UNL     1      20.260   3.768  26.289  0.00  0.00    +0.046 C 
ATOM      4  C4  UNL     1      21.682   4.281  26.042  0.00  0.00    +0.092 C 
ATOM      5  C12 UNL     1      22.591   3.258  26.719  0.00  0.00    +0.130 C 
ATOM      6  N3  UNL     1      21.766   2.623  27.733  0.00  0.00    -0.290 N 
ATOM      7  C13 UNL     1      22.332   1.747  28.727  0.00  0.00    +0.285 C 
ATOM      8  O3  UNL     1      23.414   1.150  28.470  0.00  0.00    -0.267 OA
ENDROOT
BRANCH   7   9
ATOM      9  C14 UNL     1      21.698   1.555  30.053  0.00  0.00    +0.217 C 
ATOM     10  C15 UNL     1      21.120   0.391  30.388  0.00  0.00    +0.238 C 
ATOM     11  O4  UNL     1      20.485   0.259  31.629  0.00  0.00    -0.492 OA
ATOM     12  C16 UNL     1      20.196   1.394  32.445  0.00  0.00    +0.269 C 
ATOM     13  C17 UNL     1      21.348   2.396  32.356  0.00  0.00    +0.270 C 
ATOM     14  O5  UNL     1      21.700   2.601  30.987  0.00  0.00    -0.481 OA
ENDBRANCH   7   9
BRANCH   4  15
ATOM     15  N1  UNL     1      21.990   4.418  24.613  0.00  0.00    -0.306 N 
ATOM     16  C5  UNL     1      21.548   5.555  23.853  0.00  0.00    +0.261 C 
ATOM     17  O1  UNL     1      20.858   6.451  24.409  0.00  0.00    -0.269 OA
ATOM     18  H8  UNL     1      22.489   3.644  24.123  0.00  0.00    +0.149 HD
BRANCH  16  19
ATOM     19  C6  UNL     1      21.883   5.698  22.422  0.00  0.00    +0.106 A 
ATOM     20  C7  UNL     1      21.215   5.062  21.349  0.00  0.00    +0.079 A 
ATOM     21  C8  UNL     1      21.907   5.521  20.260  0.00  0.00    +0.153 A 
ATOM     22  O2  UNL     1      21.880   5.380  18.963  0.00  0.00    -0.461 OA
ATOM     23  C9  UNL     1      22.876   6.139  18.505  0.00  0.00    +0.198 A 
ATOM     24  C10 UNL     1      23.553   6.781  19.560  0.00  0.00    +0.067 A 
ATOM     25  C11 UNL     1      22.864   6.327  20.649  0.00  0.00    +0.086 A 
ATOM     26  N2  UNL     1      22.909   6.482  21.975  0.00  0.00    -0.348 N 
ATOM     27  H12 UNL     1      23.574   7.066  22.531  0.00  0.00    +0.166 HD
ENDBRANCH  16  19
ENDBRANCH   4  15
TORSDOF 3
ENDMDL
MODEL 4
REMARK VINA RESULT:    -6.015     12.131     15.083
REMARK INTER + INTRA:          -7.498
REMARK INTER:                  -6.989
REMARK INTRA:                  -0.510
REMARK UNBOUND:                -0.428
REMARK  Name = /home/qwerty/github/datacon2025hack/step_04_hit_selection/docking/ligands/lig_255.pdb
REMARK  4 active torsions:
REMARK  status: ('A' for Active; 'I' for Inactive)
REMARK    1  A    between atoms: C1_1  and  C2_2
REMARK    2  A    between atoms: C4_4  and  N1_5
REMARK    3  A    between atoms: C5_6  and  C6_8
REMARK    4  A    between atoms: C13_18  and  C14_20
REMARK                            x       y       z     vdW  Elec       q    Type
REMARK                         _______ _______ _______ _____ _____    ______ ____
ROOT
ATOM      1  C1  UNL     1      21.798   0.252  29.759  0.00  0.00    +0.028 C 
ATOM      2  C2  UNL     1      20.957   1.341  30.439  0.00  0.00    +0.075 C 
ATOM      3  C3  UNL     1      20.765   1.045  31.931  0.00  0.00    +0.046 C 
ATOM      4  C4  UNL     1      19.315   1.435  32.235  0.00  0.00    +0.092 C 
ATOM      5  C12 UNL     1      18.581   1.278  30.906  0.00  0.00    +0.130 C 
ATOM      6  N3  UNL     1      19.606   1.401  29.883  0.00  0.00    -0.290 N 
ATOM      7  C13 UNL     1      19.270   1.522  28.487  0.00  0.00    +0.285 C 
ATOM      8  O3  UNL     1      18.167   1.061  28.083  0.00  0.00    -0.267 OA
ENDROOT
BRANCH   7   9
ATOM      9  C14 UNL     1      20.166   2.202  27.522  0.00  0.00    +0.217 C 
ATOM     10  C15 UNL     1      20.595   1.582  26.413  0.00  0.00    +0.238 C 
ATOM     11  O4  UNL     1      21.482   2.234  25.548  0.00  0.00    -0.492 OA
ATOM     12  C16 UNL     1      22.156   3.433  25.933  0.00  0.00    +0.269 C 
ATOM     13  C17 UNL     1      21.212   4.311  26.753  0.00  0.00    +0.270 C 
ATOM     14  O5  UNL     1      20.576   3.522  27.760  0.00  0.00    -0.481 OA
ENDBRANCH   7   9
BRANCH   4  15
ATOM     15  N1  UNL     1      18.718   0.601  33.286  0.00  0.00    -0.306 N 
ATOM     16  C5  UNL     1      17.860   1.161  34.294  0.00  0.00    +0.261 C 
ATOM     17  O1  UNL     1      17.628   2.400  34.303  0.00  0.00    -0.269 OA
ATOM     18  H8  UNL     1      18.969  -0.410  33.339  0.00  0.00    +0.149 HD
BRANCH  16  19
ATOM     19  C6  UNL     1      17.243   0.313  35.333  0.00  0.00    +0.106 A 
ATOM     20  C7  UNL     1      17.306   0.536  36.729  0.00  0.00    +0.079 A 
ATOM     21  C8  UNL     1      16.589  -0.518  37.228  0.00  0.00    +0.153 A 
ATOM     22  O2  UNL     1      16.222  -0.978  38.393  0.00  0.00    -0.461 OA
ATOM     23  C9  UNL     1      15.521  -2.081  38.131  0.00  0.00    +0.198 A 
ATOM     24  C10 UNL     1      15.446  -2.321  36.745  0.00  0.00    +0.067 A 
ATOM     25  C11 UNL     1      16.159  -1.269  36.243  0.00  0.00    +0.086 A 
ATOM     26  N2  UNL     1      16.528  -0.814  35.042  0.00  0.00    -0.348 N 
ATOM     27  H12 UNL     1      16.316  -1.229  34.107  0.00  0.00    +0.166 HD
ENDBRANCH  16  19
ENDBRANCH   4  15
TORSDOF 3
ENDMDL
MODEL 5
REMARK VINA RESULT:    -5.940     10.574     12.914
REMARK INTER + INTRA:          -7.410
REMARK INTER:                  -6.899
REMARK INTRA:                  -0.511
REMARK UNBOUND:                -0.428
REMARK  Name = /home/qwerty/github/datacon2025hack/step_04_hit_selection/docking/ligands/lig_255.pdb
REMARK  4 active torsions:
REMARK  status: ('A' for Active; 'I' for Inactive)
REMARK    1  A    between atoms: C1_1  and  C2_2
REMARK    2  A    between atoms: C4_4  and  N1_5
REMARK    3  A    between atoms: C5_6  and  C6_8
REMARK    4  A    between atoms: C13_18  and  C14_20
REMARK                            x       y       z     vdW  Elec       q    Type
REMARK                         _______ _______ _______ _____ _____    ______ ____
ROOT
ATOM      1  C1  UNL     1      23.123   1.743  28.202  0.00  0.00    +0.028 C 
ATOM      2  C2  UNL     1      21.891   2.327  27.499  0.00  0.00    +0.075 C 
ATOM      3  C3  UNL     1      22.148   2.528  26.001  0.00  0.00    +0.046 C 
ATOM      4  C4  UNL     1      21.477   3.860  25.652  0.00  0.00    +0.092 C 
ATOM      5  C12 UNL     1      21.477   4.652  26.956  0.00  0.00    +0.130 C 
ATOM      6  N3  UNL     1      21.558   3.655  28.011  0.00  0.00    -0.290 N 
ATOM      7  C13 UNL     1      21.367   4.005  29.396  0.00  0.00    +0.285 C 
ATOM      8  O3  UNL     1      21.596   5.190  29.764  0.00  0.00    -0.267 OA
ENDROOT
BRANCH   7   9
ATOM      9  C14 UNL     1      20.876   3.021  30.391  0.00  0.00    +0.217 C 
ATOM     10  C15 UNL     1      21.570   2.754  31.507  0.00  0.00    +0.238 C 
ATOM     11  O4  UNL     1      21.104   1.782  32.402  0.00  0.00    -0.492 OA
ATOM     12  C16 UNL     1      20.060   0.875  32.043  0.00  0.00    +0.269 C 
ATOM     13  C17 UNL     1      19.014   1.606  31.203  0.00  0.00    +0.270 C 
ATOM     14  O5  UNL     1      19.662   2.354  30.173  0.00  0.00    -0.481 OA
ENDBRANCH   7   9
BRANCH   4  15
ATOM     15  N1  UNL     1      22.178   4.579  24.580  0.00  0.00    -0.306 N 
ATOM     16  C5  UNL     1      21.465   5.195  23.495  0.00  0.00    +0.261 C 
ATOM     17  O1  UNL     1      20.209   5.101  23.437  0.00  0.00    -0.269 OA
ATOM     18  H8  UNL     1      23.221   4.592  24.574  0.00  0.00    +0.149 HD
BRANCH  16  19
ATOM     19  C6  UNL     1      22.174   5.938  22.435  0.00  0.00    +0.106 A 
ATOM     20  C7  UNL     1      21.935   5.826  21.044  0.00  0.00    +0.079 A 
ATOM     21  C8  UNL     1      22.843   6.706  20.519  0.00  0.00    +0.153 A 
ATOM     22  O2  UNL     1      23.210   7.136  19.343  0.00  0.00    -0.461 OA
ATOM     23  C9  UNL     1      24.184   8.015  19.577  0.00  0.00    +0.198 A 
ATOM     24  C10 UNL     1      24.436   8.141  20.957  0.00  0.00    +0.067 A 
ATOM     25  C11 UNL     1      23.530   7.265  21.485  0.00  0.00    +0.086 A 
ATOM     26  N2  UNL     1      23.170   6.836  22.698  0.00  0.00    -0.348 N 
ATOM     27  H12 UNL     1      23.562   7.123  23.623  0.00  0.00    +0.166 HD
ENDBRANCH  16  19
ENDBRANCH   4  15
TORSDOF 3
ENDMDL
MODEL 6
REMARK VINA RESULT:    -5.833     11.793     14.713
REMARK INTER + INTRA:          -7.285
REMARK INTER:                  -6.828
REMARK INTRA:                  -0.457
REMARK UNBOUND:                -0.428
REMARK  Name = /home/qwerty/github/datacon2025hack/step_04_hit_selection/docking/ligands/lig_255.pdb
REMARK  4 active torsions:
REMARK  status: ('A' for Active; 'I' for Inactive)
REMARK    1  A    between atoms: C1_1  and  C2_2
REMARK    2  A    between atoms: C4_4  and  N1_5
REMARK    3  A    between atoms: C5_6  and  C6_8
REMARK    4  A    between atoms: C13_18  and  C14_20
REMARK                            x       y       z     vdW  Elec       q    Type
REMARK                         _______ _______ _______ _____ _____    ______ ____
ROOT
ATOM      1  C1  UNL     1      18.506  15.624  29.867  0.00  0.00    +0.028 C 
ATOM      2  C2  UNL     1      17.677  15.913  28.608  0.00  0.00    +0.075 C 
ATOM      3  C3  UNL     1      16.229  16.268  28.966  0.00  0.00    +0.046 C 
ATOM      4  C4  UNL     1      15.371  15.577  27.901  0.00  0.00    +0.092 C 
ATOM      5  C12 UNL     1      16.206  14.385  27.439  0.00  0.00    +0.130 C 
ATOM      6  N3  UNL     1      17.582  14.737  27.745  0.00  0.00    -0.290 N 
ATOM      7  C13 UNL     1      18.689  13.951  27.260  0.00  0.00    +0.285 C 
ATOM      8  O3  UNL     1      18.499  12.734  26.986  0.00  0.00    -0.267 OA
ENDROOT
BRANCH   7   9
ATOM      9  C14 UNL     1      20.031  14.541  27.044  0.00  0.00    +0.217 C 
ATOM     10  C15 UNL     1      21.112  14.065  27.680  0.00  0.00    +0.238 C 
ATOM     11  O4  UNL     1      22.358  14.676  27.492  0.00  0.00    -0.492 OA
ATOM     12  C16 UNL     1      22.476  15.951  26.857  0.00  0.00    +0.269 C 
ATOM     13  C17 UNL     1      21.474  16.046  25.707  0.00  0.00    +0.270 C 
ATOM     14  O5  UNL     1      20.188  15.614  26.155  0.00  0.00    -0.481 OA
ENDBRANCH   7   9
BRANCH   4  15
ATOM     15  N1  UNL     1      14.064  15.155  28.419  0.00  0.00    -0.306 N 
ATOM     16  C5  UNL     1      12.970  14.844  27.539  0.00  0.00    +0.261 C 
ATOM     17  O1  UNL     1      13.117  14.956  26.292  0.00  0.00    -0.269 OA
ATOM     18  H8  UNL     1      13.905  15.139  29.449  0.00  0.00    +0.149 HD
BRANCH  16  19
ATOM     19  C6  UNL     1      11.665  14.397  28.066  0.00  0.00    +0.106 A 
ATOM     20  C7  UNL     1      11.380  14.092  29.418  0.00  0.00    +0.079 A 
ATOM     21  C8  UNL     1      10.059  13.735  29.365  0.00  0.00    +0.153 A 
ATOM     22  O2  UNL     1       9.127  13.337  30.188  0.00  0.00    -0.461 OA
ATOM     23  C9  UNL     1       8.042  13.161  29.433  0.00  0.00    +0.198 A 
ATOM     24  C10 UNL     1       8.307  13.460  28.082  0.00  0.00    +0.067 A 
ATOM     25  C11 UNL     1       9.625  13.820  28.131  0.00  0.00    +0.086 A 
ATOM     26  N2  UNL     1      10.566  14.223  27.273  0.00  0.00    -0.348 N 
ATOM     27  H12 UNL     1      10.475  14.368  26.243  0.00  0.00    +0.166 HD
ENDBRANCH  16  19
ENDBRANCH   4  15
TORSDOF 3
ENDMDL
MODEL 7
REMARK VINA RESULT:    -5.822     15.656     16.781
REMARK INTER + INTRA:          -7.272
REMARK INTER:                  -6.748
REMARK INTRA:                  -0.524
REMARK UNBOUND:                -0.428
REMARK  Name = /home/qwerty/github/datacon2025hack/step_04_hit_selection/docking/ligands/lig_255.pdb
REMARK  4 active torsions:
REMARK  status: ('A' for Active; 'I' for Inactive)
REMARK    1  A    between atoms: C1_1  and  C2_2
REMARK    2  A    between atoms: C4_4  and  N1_5
REMARK    3  A    between atoms: C5_6  and  C6_8
REMARK    4  A    between atoms: C13_18  and  C14_20
REMARK                            x       y       z     vdW  Elec       q    Type
REMARK                         _______ _______ _______ _____ _____    ______ ____
ROOT
ATOM      1  C1  UNL     1      15.713  13.419  34.118  0.00  0.00    +0.028 C 
ATOM      2  C2  UNL     1      15.850  12.731  35.483  0.00  0.00    +0.075 C 
ATOM      3  C3  UNL     1      17.319  12.445  35.817  0.00  0.00    +0.046 C 
ATOM      4  C4  UNL     1      17.320  11.062  36.476  0.00  0.00    +0.092 C 
ATOM      5  C12 UNL     1      16.089  10.358  35.911  0.00  0.00    +0.130 C 
ATOM      6  N3  UNL     1      15.193  11.425  35.496  0.00  0.00    -0.290 N 
ATOM      7  C13 UNL     1      13.831  11.158  35.107  0.00  0.00    +0.285 C 
ATOM      8  O3  UNL     1      13.535  10.012  34.669  0.00  0.00    -0.267 OA
ENDROOT
BRANCH   7   9
ATOM      9  C14 UNL     1      12.766  12.180  35.238  0.00  0.00    +0.217 C 
ATOM     10  C15 UNL     1      12.261  12.510  36.436  0.00  0.00    +0.238 C 
ATOM     11  O4  UNL     1      11.220  13.443  36.522  0.00  0.00    -0.492 OA
ATOM     12  C16 UNL     1      10.493  13.860  35.365  0.00  0.00    +0.269 C 
ATOM     13  C17 UNL     1      11.449  13.990  34.179  0.00  0.00    +0.270 C 
ATOM     14  O5  UNL     1      12.272  12.825  34.096  0.00  0.00    -0.481 OA
ENDBRANCH   7   9
BRANCH   4  15
ATOM     15  N1  UNL     1      18.550  10.309  36.199  0.00  0.00    -0.306 N 
ATOM     16  C5  UNL     1      19.085   9.368  37.145  0.00  0.00    +0.261 C 
ATOM     17  O1  UNL     1      18.508   9.194  38.252  0.00  0.00    -0.269 OA
ATOM     18  H8  UNL     1      19.081  10.506  35.324  0.00  0.00    +0.149 HD
BRANCH  16  19
ATOM     19  C6  UNL     1      20.308   8.596  36.850  0.00  0.00    +0.106 A 
ATOM     20  C7  UNL     1      20.824   8.322  35.560  0.00  0.00    +0.079 A 
ATOM     21  C8  UNL     1      21.944   7.587  35.842  0.00  0.00    +0.153 A 
ATOM     22  O2  UNL     1      22.906   6.995  35.189  0.00  0.00    -0.461 OA
ATOM     23  C9  UNL     1      23.684   6.450  36.124  0.00  0.00    +0.198 A 
ATOM     24  C10 UNL     1      23.188   6.712  37.416  0.00  0.00    +0.067 A 
ATOM     25  C11 UNL     1      22.069   7.448  37.139  0.00  0.00    +0.086 A 
ATOM     26  N2  UNL     1      21.091   8.046  37.826  0.00  0.00    -0.348 N 
ATOM     27  H12 UNL     1      20.963   8.080  38.862  0.00  0.00    +0.166 HD
ENDBRANCH  16  19
ENDBRANCH   4  15
TORSDOF 3
ENDMDL
MODEL 8
REMARK VINA RESULT:    -5.810      3.109      3.844
REMARK INTER + INTRA:          -7.257
REMARK INTER:                  -6.986
REMARK INTRA:                  -0.271
REMARK UNBOUND:                -0.428
REMARK  Name = /home/qwerty/github/datacon2025hack/step_04_hit_selection/docking/ligands/lig_255.pdb
REMARK  4 active torsions:
REMARK  status: ('A' for Active; 'I' for Inactive)
REMARK    1  A    between atoms: C1_1  and  C2_2
REMARK    2  A    between atoms: C4_4  and  N1_5
REMARK    3  A    between atoms: C5_6  and  C6_8
REMARK    4  A    between atoms: C13_18  and  C14_20
REMARK                            x       y       z     vdW  Elec       q    Type
REMARK                         _______ _______ _______ _____ _____    ______ ____
ROOT
ATOM      1  C1  UNL     1       8.469   3.555  23.871  0.00  0.00    +0.028 C 
ATOM      2  C2  UNL     1       9.088   2.857  22.652  0.00  0.00    +0.075 C 
ATOM      3  C3  UNL     1       9.842   1.586  23.062  0.00  0.00    +0.046 C 
ATOM      4  C4  UNL     1      11.103   1.569  22.194  0.00  0.00    +0.092 C 
ATOM      5  C12 UNL     1      11.371   3.035  21.864  0.00  0.00    +0.130 C 
ATOM      6  N3  UNL     1      10.086   3.701  21.999  0.00  0.00    -0.290 N 
ATOM      7  C13 UNL     1       9.890   5.059  21.560  0.00  0.00    +0.285 C 
ATOM      8  O3  UNL     1      10.886   5.832  21.500  0.00  0.00    -0.267 OA
ENDROOT
BRANCH   7   9
ATOM      9  C14 UNL     1       8.559   5.563  21.145  0.00  0.00    +0.217 C 
ATOM     10  C15 UNL     1       8.135   6.785  21.498  0.00  0.00    +0.238 C 
ATOM     11  O4  UNL     1       6.852   7.211  21.134  0.00  0.00    -0.492 OA
ATOM     12  C16 UNL     1       5.877   6.298  20.629  0.00  0.00    +0.269 C 
ATOM     13  C17 UNL     1       6.556   5.275  19.718  0.00  0.00    +0.270 C 
ATOM     14  O5  UNL     1       7.720   4.756  20.363  0.00  0.00    -0.481 OA
ENDBRANCH   7   9
BRANCH   4  15
ATOM     15  N1  UNL     1      12.247   0.949  22.875  0.00  0.00    -0.306 N 
ATOM     16  C5  UNL     1      13.462   0.637  22.174  0.00  0.00    +0.261 C 
ATOM     17  O1  UNL     1      13.552   0.873  20.940  0.00  0.00    -0.269 OA
ATOM     18  H8  UNL     1      12.154   0.673  23.876  0.00  0.00    +0.149 HD
BRANCH  16  19
ATOM     19  C6  UNL     1      14.617   0.036  22.871  0.00  0.00    +0.106 A 
ATOM     20  C7  UNL     1      15.524   0.722  23.713  0.00  0.00    +0.079 A 
ATOM     21  C8  UNL     1      16.384  -0.274  24.090  0.00  0.00    +0.153 A 
ATOM     22  O2  UNL     1      17.448  -0.408  24.835  0.00  0.00    -0.461 OA
ATOM     23  C9  UNL     1      17.780  -1.696  24.747  0.00  0.00    +0.198 A 
ATOM     24  C10 UNL     1      16.887  -2.397  23.913  0.00  0.00    +0.067 A 
ATOM     25  C11 UNL     1      16.024  -1.406  23.536  0.00  0.00    +0.086 A 
ATOM     26  N2  UNL     1      14.938  -1.288  22.767  0.00  0.00    -0.348 N 
ATOM     27  H12 UNL     1      14.456  -2.036  22.219  0.00  0.00    +0.166 HD
ENDBRANCH  16  19
ENDBRANCH   4  15
TORSDOF 3
ENDMDL
MODEL 9
REMARK VINA RESULT:    -5.711      6.543     11.626
REMARK INTER + INTRA:          -7.141
REMARK INTER:                  -6.644
REMARK INTRA:                  -0.497
REMARK UNBOUND:                -0.428
REMARK  Name = /home/qwerty/github/datacon2025hack/step_04_hit_selection/docking/ligands/lig_255.pdb
REMARK  4 active torsions:
REMARK  status: ('A' for Active; 'I' for Inactive)
REMARK    1  A    between atoms: C1_1  and  C2_2
REMARK    2  A    between atoms: C4_4  and  N1_5
REMARK    3  A    between atoms: C5_6  and  C6_8
REMARK    4  A    between atoms: C13_18  and  C14_20
REMARK                            x       y       z     vdW  Elec       q    Type
REMARK                         _______ _______ _______ _____ _____    ______ ____
ROOT
ATOM      1  C1  UNL     1      21.491   2.971  26.043  0.00  0.00    +0.028 C 
ATOM      2  C2  UNL     1      20.804   1.636  25.725  0.00  0.00    +0.075 C 
ATOM      3  C3  UNL     1      19.932   1.745  24.469  0.00  0.00    +0.046 C 
ATOM      4  C4  UNL     1      18.672   0.932  24.782  0.00  0.00    +0.092 C 
ATOM      5  C12 UNL     1      18.546   0.976  26.302  0.00  0.00    +0.130 C 
ATOM      6  N3  UNL     1      19.889   1.235  26.793  0.00  0.00    -0.290 N 
ATOM      7  C13 UNL     1      20.214   1.135  28.193  0.00  0.00    +0.285 C 
ATOM      8  O3  UNL     1      19.297   1.291  29.046  0.00  0.00    -0.267 OA
ENDROOT
BRANCH   7   9
ATOM      9  C14 UNL     1      21.586   0.820  28.657  0.00  0.00    +0.217 C 
ATOM     10  C15 UNL     1      22.244   1.636  29.494  0.00  0.00    +0.238 C 
ATOM     11  O4  UNL     1      23.558   1.336  29.873  0.00  0.00    -0.492 OA
ATOM     12  C16 UNL     1      24.321   0.335  29.197  0.00  0.00    +0.269 C 
ATOM     13  C17 UNL     1      23.414  -0.841  28.834  0.00  0.00    +0.270 C 
ATOM     14  O5  UNL     1      22.218  -0.355  28.224  0.00  0.00    -0.481 OA
ENDBRANCH   7   9
BRANCH   4  15
ATOM     15  N1  UNL     1      17.477   1.472  24.122  0.00  0.00    -0.306 N 
ATOM     16  C5  UNL     1      16.769   0.726  23.118  0.00  0.00    +0.261 C 
ATOM     17  O1  UNL     1      17.189  -0.409  22.768  0.00  0.00    -0.269 OA
ATOM     18  H8  UNL     1      17.168   2.444  24.344  0.00  0.00    +0.149 HD
BRANCH  16  19
ATOM     19  C6  UNL     1      15.554   1.266  22.476  0.00  0.00    +0.106 A 
ATOM     20  C7  UNL     1      14.221   1.002  22.874  0.00  0.00    +0.079 A 
ATOM     21  C8  UNL     1      13.495   1.727  21.968  0.00  0.00    +0.153 A 
ATOM     22  O2  UNL     1      12.242   1.972  21.702  0.00  0.00    -0.461 OA
ATOM     23  C9  UNL     1      12.258   2.786  20.646  0.00  0.00    +0.198 A 
ATOM     24  C10 UNL     1      13.577   3.062  20.235  0.00  0.00    +0.067 A 
ATOM     25  C11 UNL     1      14.305   2.341  21.139  0.00  0.00    +0.086 A 
ATOM     26  N2  UNL     1      15.594   2.100  21.394  0.00  0.00    -0.348 N 
ATOM     27  H12 UNL     1      16.428   2.465  20.883  0.00  0.00    +0.166 HD
ENDBRANCH  16  19
ENDBRANCH   4  15
TORSDOF 3
ENDMDL
