REMARK  Name = /home/qwerty/github/datacon2025hack/step_04_hit_selection/docking/ligands/lig_615.pdb
REMARK  9 active torsions:
REMARK  status: ('A' for Active; 'I' for Inactive)
REMARK    1  A    between atoms: C1_1  and  C2_2
REMARK    2  A    between atoms: C2_2  and  C3_3
REMARK    3  A    between atoms: C3_3  and  C4_4
REMARK    4  A    between atoms: C3_3  and  C5_5
REMARK    5  A    between atoms: C8_8  and  N1_9
REMARK    6  A    between atoms: C9_10  and  C10_12
REMARK    7  A    between atoms: C10_12  and  C11_13
REMARK    8  A    between atoms: C12_16  and  C13_17
REMARK    9  A    between atoms: C18_24  and  C19_25
REMARK                            x       y       z     vdW  Elec       q    Type
REMARK                         _______ _______ _______ _____ _____    ______ ____
ROOT
ATOM      1  C10 UNL     1      -0.140  -1.499   2.100  0.00  0.00    +0.175 C 
ENDROOT
BRANCH   1   2
ATOM      2  C11 UNL     1       0.990  -0.538   1.894  0.00  0.00    +0.181 A 
ATOM      3  N2  UNL     1       0.920   0.771   2.206  0.00  0.00    -0.060 NA
ATOM      4  O2  UNL     1       2.051   1.268   1.809  0.00  0.00    -0.331 OA
ATOM      5  C12 UNL     1       2.783   0.322   1.275  0.00  0.00    +0.278 A 
ATOM      6  N5  UNL     1       2.153  -0.869   1.297  0.00  0.00    -0.190 NA
BRANCH   5   7
ATOM      7  C13 UNL     1       4.114   0.539   0.702  0.00  0.00    +0.146 A 
ATOM      8  C14 UNL     1       4.938  -0.433   0.169  0.00  0.00    +0.120 A 
ATOM      9  N3  UNL     1       6.049   0.180  -0.265  0.00  0.00    -0.333 N 
ATOM     10  C15 UNL     1       5.865   1.492  -0.024  0.00  0.00    +0.111 A 
ATOM     11  N4  UNL     1       4.693   1.755   0.592  0.00  0.00    -0.227 NA
ATOM     12  C16 UNL     1       6.900   2.529  -0.338  0.00  0.00    +0.075 C 
ATOM     13  C17 UNL     1       7.939   1.981  -1.334  0.00  0.00    +0.012 C 
ATOM     14  C18 UNL     1       8.384   0.537  -1.000  0.00  0.00    +0.006 C 
ATOM     15  C19 UNL     1       9.144   0.470   0.333  0.00  0.00    +0.009 C 
ATOM     16  C20 UNL     1       7.167  -0.414  -0.997  0.00  0.00    +0.126 C 
ENDBRANCH   5   7
ENDBRANCH   1   2
BRANCH   1  18
ATOM     17  N1  UNL     1      -2.646  -1.251   1.719  0.00  0.00    -0.285 N 
ATOM     18  C9  UNL     1      -1.304  -1.158   1.212  0.00  0.00    +0.225 C 
ATOM     19  O1  UNL     1      -1.092  -0.793   0.022  0.00  0.00    -0.275 OA
ATOM     20  H12 UNL     1      -2.771  -1.363   2.751  0.00  0.00    +0.155 HD
BRANCH  17  24
ATOM     21  C5  UNL     1      -6.193  -0.823  -0.607  0.00  0.00    -0.044 A 
ATOM     22  C6  UNL     1      -6.154  -0.409   0.736  0.00  0.00    +0.006 A 
ATOM     23  C7  UNL     1      -4.984  -0.548   1.489  0.00  0.00    +0.023 A 
ATOM     24  C8  UNL     1      -3.830  -1.101   0.915  0.00  0.00    +0.033 A 
ATOM     25  C21 UNL     1      -3.879  -1.553  -0.416  0.00  0.00    +0.023 A 
ATOM     26  C22 UNL     1      -5.046  -1.408  -1.171  0.00  0.00    +0.006 A 
BRANCH  21  27
ATOM     27  C3  UNL     1      -7.458  -0.691  -1.441  0.00  0.00    +0.016 C 
ATOM     28  C4  UNL     1      -8.539  -1.645  -0.916  0.00  0.00    +0.012 C 
BRANCH  27  30
ATOM     29  C1  UNL     1      -6.970   1.736  -2.077  0.00  0.00    +0.004 C 
ATOM     30  C2  UNL     1      -7.988   0.760  -1.489  0.00  0.00    +0.004 C 
ENDBRANCH  27  30
ENDBRANCH  21  27
ENDBRANCH  17  24
ENDBRANCH   1  18
TORSDOF 6
