MODEL 1
REMARK VINA RESULT:    -6.075      0.000      0.000
REMARK INTER + INTRA:          -9.553
REMARK INTER:                  -8.561
REMARK INTRA:                  -0.992
REMARK UNBOUND:                -0.992
REMARK  Name = /home/qwerty/github/datacon2025hack/step_04_hit_selection/docking/ligands/lig_363.pdb
REMARK  9 active torsions:
REMARK  status: ('A' for Active; 'I' for Inactive)
REMARK    1  A    between atoms: C1_1  and  C2_2
REMARK    2  A    between atoms: C2_2  and  N1_3
REMARK    3  A    between atoms: N1_3  and  C3_4
REMARK    4  A    between atoms: N1_3  and  C5_6
REMARK    5  A    between atoms: C3_4  and  C4_5
REMARK    6  A    between atoms: C5_6  and  C6_7
REMARK    7  A    between atoms: C9_10  and  N2_11
REMARK    8  A    between atoms: C10_12  and  C11_14
REMARK    9  A    between atoms: C16_19  and  N3_20
REMARK                            x       y       z     vdW  Elec       q    Type
REMARK                         _______ _______ _______ _____ _____    ______ ____
ROOT
ATOM      1  N2  UNL     1      22.091   5.896  24.523  0.00  0.00    -0.281 N 
ATOM      2  C10 UNL     1      21.704   5.805  23.140  0.00  0.00    +0.251 C 
ATOM      3  O1  UNL     1      21.136   4.769  22.701  0.00  0.00    -0.270 OA
ATOM      4  H15 UNL     1      22.466   6.806  24.874  0.00  0.00    +0.155 HD
ENDROOT
BRANCH   2   5
ATOM      5  C11 UNL     1      21.980   6.921  22.211  0.00  0.00    +0.071 A 
ATOM      6  C12 UNL     1      23.302   7.110  21.774  0.00  0.00    +0.064 A 
ATOM      7  C13 UNL     1      23.640   8.184  20.948  0.00  0.00    +0.163 A 
ATOM      8  C14 UNL     1      22.658   9.137  20.611  0.00  0.00    +0.164 A 
ATOM      9  C15 UNL     1      21.330   8.923  20.990  0.00  0.00    +0.083 A 
ATOM     10  C16 UNL     1      20.970   7.813  21.772  0.00  0.00    +0.142 A 
ATOM     11  O4  UNL     1      22.975  10.319  19.930  0.00  0.00    -0.488 OA
ATOM     12  C17 UNL     1      24.231  10.980  20.077  0.00  0.00    +0.232 C 
ATOM     13  C18 UNL     1      25.321  10.342  19.211  0.00  0.00    +0.082 C 
ATOM     14  C19 UNL     1      25.256   8.814  19.174  0.00  0.00    +0.232 C 
ATOM     15  O5  UNL     1      24.947   8.260  20.451  0.00  0.00    -0.488 OA
BRANCH  10  16
ATOM     16  N3  UNL     1      19.578   7.594  22.073  0.00  0.00    +0.057 N 
ATOM     17  O2  UNL     1      18.826   7.052  21.237  0.00  0.00    -0.126 OA
ATOM     18  O3  UNL     1      19.023   8.144  23.205  0.00  0.00    -0.126 OA
ENDBRANCH  10  16
ENDBRANCH   2   5
BRANCH   1  22
ATOM     19  C6  UNL     1      21.509   2.846  27.437  0.00  0.00    -0.033 A 
ATOM     20  C7  UNL     1      22.582   2.763  26.534  0.00  0.00    +0.007 A 
ATOM     21  C8  UNL     1      22.782   3.759  25.575  0.00  0.00    +0.023 A 
ATOM     22  C9  UNL     1      21.895   4.846  25.484  0.00  0.00    +0.034 A 
ATOM     23  C20 UNL     1      20.826   4.931  26.387  0.00  0.00    +0.023 A 
ATOM     24  C21 UNL     1      20.625   3.934  27.344  0.00  0.00    +0.007 A 
BRANCH  19  25
ATOM     25  C5  UNL     1      21.282   1.756  28.466  0.00  0.00    +0.119 C 
BRANCH  25  26
ATOM     26  N1  UNL     1      22.318   1.684  29.533  0.00  0.00    -0.299 NA
BRANCH  26  28
ATOM     27  C1  UNL     1      22.631  -0.704  28.897  0.00  0.00    +0.020 C 
ATOM     28  C2  UNL     1      23.305   0.598  29.330  0.00  0.00    +0.081 C 
ENDBRANCH  26  28
BRANCH  26  29
ATOM     29  C3  UNL     1      21.757   1.644  30.904  0.00  0.00    +0.081 C 
ATOM     30  C4  UNL     1      20.286   1.228  30.900  0.00  0.00    +0.020 C 
ENDBRANCH  26  29
ENDBRANCH  25  26
ENDBRANCH  19  25
ENDBRANCH   1  22
TORSDOF 7
ENDMDL
MODEL 2
REMARK VINA RESULT:    -6.038      1.928      3.257
REMARK INTER + INTRA:          -9.500
REMARK INTER:                  -8.535
REMARK INTRA:                  -0.965
REMARK UNBOUND:                -0.992
REMARK  Name = /home/qwerty/github/datacon2025hack/step_04_hit_selection/docking/ligands/lig_363.pdb
REMARK  9 active torsions:
REMARK  status: ('A' for Active; 'I' for Inactive)
REMARK    1  A    between atoms: C1_1  and  C2_2
REMARK    2  A    between atoms: C2_2  and  N1_3
REMARK    3  A    between atoms: N1_3  and  C3_4
REMARK    4  A    between atoms: N1_3  and  C5_6
REMARK    5  A    between atoms: C3_4  and  C4_5
REMARK    6  A    between atoms: C5_6  and  C6_7
REMARK    7  A    between atoms: C9_10  and  N2_11
REMARK    8  A    between atoms: C10_12  and  C11_14
REMARK    9  A    between atoms: C16_19  and  N3_20
REMARK                            x       y       z     vdW  Elec       q    Type
REMARK                         _______ _______ _______ _____ _____    ______ ____
ROOT
ATOM      1  N2  UNL     1      21.580   6.374  24.054  0.00  0.00    -0.281 N 
ATOM      2  C10 UNL     1      21.191   6.447  22.671  0.00  0.00    +0.251 C 
ATOM      3  O1  UNL     1      20.820   5.411  22.055  0.00  0.00    -0.270 OA
ATOM      4  H15 UNL     1      21.784   7.266  24.559  0.00  0.00    +0.155 HD
ENDROOT
BRANCH   2   5
ATOM      5  C11 UNL     1      21.234   7.735  21.948  0.00  0.00    +0.071 A 
ATOM      6  C12 UNL     1      20.133   8.599  22.064  0.00  0.00    +0.064 A 
ATOM      7  C13 UNL     1      20.083   9.801  21.354  0.00  0.00    +0.163 A 
ATOM      8  C14 UNL     1      21.117  10.117  20.450  0.00  0.00    +0.164 A 
ATOM      9  C15 UNL     1      22.244   9.294  20.376  0.00  0.00    +0.083 A 
ATOM     10  C16 UNL     1      22.329   8.112  21.130  0.00  0.00    +0.142 A 
ATOM     11  O4  UNL     1      21.038  11.220  19.590  0.00  0.00    -0.488 OA
ATOM     12  C17 UNL     1      19.803  11.705  19.069  0.00  0.00    +0.232 C 
ATOM     13  C18 UNL     1      19.065  12.597  20.071  0.00  0.00    +0.082 C 
ATOM     14  C19 UNL     1      19.146  12.093  21.513  0.00  0.00    +0.232 C 
ATOM     15  O5  UNL     1      19.016  10.675  21.593  0.00  0.00    -0.488 OA
BRANCH  10  16
ATOM     16  N3  UNL     1      23.542   7.337  21.078  0.00  0.00    +0.057 N 
ATOM     17  O2  UNL     1      24.487   7.587  21.854  0.00  0.00    -0.126 OA
ATOM     18  O3  UNL     1      23.744   6.440  20.055  0.00  0.00    -0.126 OA
ENDBRANCH  10  16
ENDBRANCH   2   5
BRANCH   1  22
ATOM     19  C6  UNL     1      21.603   2.815  26.390  0.00  0.00    -0.033 A 
ATOM     20  C7  UNL     1      22.811   3.361  25.927  0.00  0.00    +0.007 A 
ATOM     21  C8  UNL     1      22.814   4.531  25.161  0.00  0.00    +0.023 A 
ATOM     22  C9  UNL     1      21.605   5.159  24.820  0.00  0.00    +0.034 A 
ATOM     23  C20 UNL     1      20.398   4.616  25.284  0.00  0.00    +0.023 A 
ATOM     24  C21 UNL     1      20.396   3.446  26.048  0.00  0.00    +0.007 A 
BRANCH  19  25
ATOM     25  C5  UNL     1      21.598   1.536  27.207  0.00  0.00    +0.119 C 
BRANCH  25  26
ATOM     26  N1  UNL     1      22.151   1.677  28.582  0.00  0.00    -0.299 NA
BRANCH  26  28
ATOM     27  C1  UNL     1      24.382   0.750  29.190  0.00  0.00    +0.020 C 
ATOM     28  C2  UNL     1      22.884   0.478  29.052  0.00  0.00    +0.081 C 
ENDBRANCH  26  28
BRANCH  26  29
ATOM     29  C3  UNL     1      21.150   2.116  29.582  0.00  0.00    +0.081 C 
ATOM     30  C4  UNL     1      20.458   0.927  30.249  0.00  0.00    +0.020 C 
ENDBRANCH  26  29
ENDBRANCH  25  26
ENDBRANCH  19  25
ENDBRANCH   1  22
TORSDOF 7
ENDMDL
MODEL 3
REMARK VINA RESULT:    -5.994      1.643      2.283
REMARK INTER + INTRA:          -9.438
REMARK INTER:                  -8.446
REMARK INTRA:                  -0.992
REMARK UNBOUND:                -0.992
REMARK  Name = /home/qwerty/github/datacon2025hack/step_04_hit_selection/docking/ligands/lig_363.pdb
REMARK  9 active torsions:
REMARK  status: ('A' for Active; 'I' for Inactive)
REMARK    1  A    between atoms: C1_1  and  C2_2
REMARK    2  A    between atoms: C2_2  and  N1_3
REMARK    3  A    between atoms: N1_3  and  C3_4
REMARK    4  A    between atoms: N1_3  and  C5_6
REMARK    5  A    between atoms: C3_4  and  C4_5
REMARK    6  A    between atoms: C5_6  and  C6_7
REMARK    7  A    between atoms: C9_10  and  N2_11
REMARK    8  A    between atoms: C10_12  and  C11_14
REMARK    9  A    between atoms: C16_19  and  N3_20
REMARK                            x       y       z     vdW  Elec       q    Type
REMARK                         _______ _______ _______ _____ _____    ______ ____
ROOT
ATOM      1  N2  UNL     1      21.947   3.640  24.409  0.00  0.00    -0.281 N 
ATOM      2  C10 UNL     1      21.578   5.026  24.300  0.00  0.00    +0.251 C 
ATOM      3  O1  UNL     1      21.138   5.652  25.302  0.00  0.00    -0.270 OA
ATOM      4  H15 UNL     1      22.401   3.181  23.588  0.00  0.00    +0.155 HD
ENDROOT
BRANCH   2   5
ATOM      5  C11 UNL     1      21.696   5.732  23.006  0.00  0.00    +0.071 A 
ATOM      6  C12 UNL     1      22.939   6.290  22.666  0.00  0.00    +0.064 A 
ATOM      7  C13 UNL     1      23.099   7.026  21.490  0.00  0.00    +0.163 A 
ATOM      8  C14 UNL     1      21.981   7.277  20.670  0.00  0.00    +0.164 A 
ATOM      9  C15 UNL     1      20.757   6.673  20.968  0.00  0.00    +0.083 A 
ATOM     10  C16 UNL     1      20.601   5.883  22.119  0.00  0.00    +0.142 A 
ATOM     11  O4  UNL     1      22.047   8.145  19.572  0.00  0.00    -0.488 OA
ATOM     12  C17 UNL     1      22.911   9.279  19.538  0.00  0.00    +0.232 C 
ATOM     13  C18 UNL     1      24.345   8.899  19.157  0.00  0.00    +0.082 C 
ATOM     14  C19 UNL     1      24.819   7.591  19.792  0.00  0.00    +0.232 C 
ATOM     15  O5  UNL     1      24.384   7.463  21.145  0.00  0.00    -0.488 OA
BRANCH  10  16
ATOM     16  N3  UNL     1      19.342   5.220  22.345  0.00  0.00    +0.057 N 
ATOM     17  O2  UNL     1      19.138   4.075  21.891  0.00  0.00    -0.126 OA
ATOM     18  O3  UNL     1      18.289   5.910  22.900  0.00  0.00    -0.126 OA
ENDBRANCH  10  16
ENDBRANCH   2   5
BRANCH   1  22
ATOM     19  C6  UNL     1      21.681   1.327  27.974  0.00  0.00    -0.033 A 
ATOM     20  C7  UNL     1      20.733   1.156  26.952  0.00  0.00    +0.007 A 
ATOM     21  C8  UNL     1      20.813   1.910  25.777  0.00  0.00    +0.023 A 
ATOM     22  C9  UNL     1      21.828   2.868  25.616  0.00  0.00    +0.034 A 
ATOM     23  C20 UNL     1      22.775   3.037  26.635  0.00  0.00    +0.023 A 
ATOM     24  C21 UNL     1      22.694   2.285  27.810  0.00  0.00    +0.007 A 
BRANCH  19  25
ATOM     25  C5  UNL     1      21.584   0.522  29.257  0.00  0.00    +0.119 C 
BRANCH  25  26
ATOM     26  N1  UNL     1      20.850   1.200  30.360  0.00  0.00    -0.299 NA
BRANCH  26  28
ATOM     27  C1  UNL     1      21.680   3.422  31.120  0.00  0.00    +0.020 C 
ATOM     28  C2  UNL     1      21.735   1.907  31.315  0.00  0.00    +0.081 C 
ENDBRANCH  26  28
BRANCH  26  29
ATOM     29  C3  UNL     1      19.897   0.315  31.071  0.00  0.00    +0.081 C 
ATOM     30  C4  UNL     1      19.884   0.592  32.575  0.00  0.00    +0.020 C 
ENDBRANCH  26  29
ENDBRANCH  25  26
ENDBRANCH  19  25
ENDBRANCH   1  22
TORSDOF 7
ENDMDL
MODEL 4
REMARK VINA RESULT:    -5.746     12.298     15.021
REMARK INTER + INTRA:          -9.089
REMARK INTER:                  -8.027
REMARK INTRA:                  -1.062
REMARK UNBOUND:                -0.992
REMARK  Name = /home/qwerty/github/datacon2025hack/step_04_hit_selection/docking/ligands/lig_363.pdb
REMARK  9 active torsions:
REMARK  status: ('A' for Active; 'I' for Inactive)
REMARK    1  A    between atoms: C1_1  and  C2_2
REMARK    2  A    between atoms: C2_2  and  N1_3
REMARK    3  A    between atoms: N1_3  and  C3_4
REMARK    4  A    between atoms: N1_3  and  C5_6
REMARK    5  A    between atoms: C3_4  and  C4_5
REMARK    6  A    between atoms: C5_6  and  C6_7
REMARK    7  A    between atoms: C9_10  and  N2_11
REMARK    8  A    between atoms: C10_12  and  C11_14
REMARK    9  A    between atoms: C16_19  and  N3_20
REMARK                            x       y       z     vdW  Elec       q    Type
REMARK                         _______ _______ _______ _____ _____    ______ ____
ROOT
ATOM      1  N2  UNL     1      17.962  11.571  35.608  0.00  0.00    -0.281 N 
ATOM      2  C10 UNL     1      18.171  10.224  35.148  0.00  0.00    +0.251 C 
ATOM      3  O1  UNL     1      17.206   9.540  34.711  0.00  0.00    -0.270 OA
ATOM      4  H15 UNL     1      18.798  12.142  35.866  0.00  0.00    +0.155 HD
ENDROOT
BRANCH   2   5
ATOM      5  C11 UNL     1      19.518   9.618  35.193  0.00  0.00    +0.071 A 
ATOM      6  C12 UNL     1      20.322   9.700  34.045  0.00  0.00    +0.064 A 
ATOM      7  C13 UNL     1      21.579   9.091  34.001  0.00  0.00    +0.163 A 
ATOM      8  C14 UNL     1      22.014   8.318  35.096  0.00  0.00    +0.164 A 
ATOM      9  C15 UNL     1      21.248   8.284  36.264  0.00  0.00    +0.083 A 
ATOM     10  C16 UNL     1      20.010   8.942  36.338  0.00  0.00    +0.142 A 
ATOM     11  O4  UNL     1      23.184   7.550  35.042  0.00  0.00    -0.488 OA
ATOM     12  C17 UNL     1      23.661   6.956  33.836  0.00  0.00    +0.232 C 
ATOM     13  C18 UNL     1      24.432   7.954  32.968  0.00  0.00    +0.082 C 
ATOM     14  C19 UNL     1      23.807   9.351  32.942  0.00  0.00    +0.232 C 
ATOM     15  O5  UNL     1      22.383   9.300  32.874  0.00  0.00    -0.488 OA
BRANCH  10  16
ATOM     16  N3  UNL     1      19.293   8.941  37.587  0.00  0.00    +0.057 N 
ATOM     17  O2  UNL     1      18.909   7.868  38.097  0.00  0.00    -0.126 OA
ATOM     18  O3  UNL     1      18.862  10.126  38.136  0.00  0.00    -0.126 OA
ENDBRANCH  10  16
ENDBRANCH   2   5
BRANCH   1  22
ATOM     19  C6  UNL     1      14.209  13.581  35.660  0.00  0.00    -0.033 A 
ATOM     20  C7  UNL     1      14.646  12.875  36.793  0.00  0.00    +0.007 A 
ATOM     21  C8  UNL     1      15.877  12.213  36.786  0.00  0.00    +0.023 A 
ATOM     22  C9  UNL     1      16.682  12.223  35.635  0.00  0.00    +0.034 A 
ATOM     23  C20 UNL     1      16.248  12.930  34.504  0.00  0.00    +0.023 A 
ATOM     24  C21 UNL     1      15.017  13.591  34.511  0.00  0.00    +0.007 A 
BRANCH  19  25
ATOM     25  C5  UNL     1      12.865  14.285  35.661  0.00  0.00    +0.119 C 
BRANCH  25  26
ATOM     26  N1  UNL     1      11.738  13.471  35.128  0.00  0.00    -0.299 NA
BRANCH  26  28
ATOM     27  C1  UNL     1      11.660  12.738  32.748  0.00  0.00    +0.020 C 
ATOM     28  C2  UNL     1      11.335  13.844  33.752  0.00  0.00    +0.081 C 
ENDBRANCH  26  28
BRANCH  26  29
ATOM     29  C3  UNL     1      10.565  13.417  36.032  0.00  0.00    +0.081 C 
ATOM     30  C4  UNL     1       9.563  14.529  35.722  0.00  0.00    +0.020 C 
ENDBRANCH  26  29
ENDBRANCH  25  26
ENDBRANCH  19  25
ENDBRANCH   1  22
TORSDOF 7
ENDMDL
MODEL 5
REMARK VINA RESULT:    -5.746      9.429     15.036
REMARK INTER + INTRA:          -9.089
REMARK INTER:                  -8.159
REMARK INTRA:                  -0.930
REMARK UNBOUND:                -0.992
REMARK  Name = /home/qwerty/github/datacon2025hack/step_04_hit_selection/docking/ligands/lig_363.pdb
REMARK  9 active torsions:
REMARK  status: ('A' for Active; 'I' for Inactive)
REMARK    1  A    between atoms: C1_1  and  C2_2
REMARK    2  A    between atoms: C2_2  and  N1_3
REMARK    3  A    between atoms: N1_3  and  C3_4
REMARK    4  A    between atoms: N1_3  and  C5_6
REMARK    5  A    between atoms: C3_4  and  C4_5
REMARK    6  A    between atoms: C5_6  and  C6_7
REMARK    7  A    between atoms: C9_10  and  N2_11
REMARK    8  A    between atoms: C10_12  and  C11_14
REMARK    9  A    between atoms: C16_19  and  N3_20
REMARK                            x       y       z     vdW  Elec       q    Type
REMARK                         _______ _______ _______ _____ _____    ______ ____
ROOT
ATOM      1  N2  UNL     1      16.846   1.149  33.732  0.00  0.00    -0.281 N 
ATOM      2  C10 UNL     1      16.762   1.232  35.166  0.00  0.00    +0.251 C 
ATOM      3  O1  UNL     1      17.801   1.401  35.859  0.00  0.00    -0.270 OA
ATOM      4  H15 UNL     1      15.956   1.111  33.185  0.00  0.00    +0.155 HD
ENDROOT
BRANCH   2   5
ATOM      5  C11 UNL     1      15.456   1.107  35.848  0.00  0.00    +0.071 A 
ATOM      6  C12 UNL     1      14.520   2.142  35.684  0.00  0.00    +0.064 A 
ATOM      7  C13 UNL     1      13.295   2.115  36.353  0.00  0.00    +0.163 A 
ATOM      8  C14 UNL     1      13.024   1.076  37.266  0.00  0.00    +0.164 A 
ATOM      9  C15 UNL     1      13.922   0.013  37.387  0.00  0.00    +0.083 A 
ATOM     10  C16 UNL     1      15.132   0.001  36.673  0.00  0.00    +0.142 A 
ATOM     11  O4  UNL     1      11.889   1.089  38.087  0.00  0.00    -0.488 OA
ATOM     12  C17 UNL     1      11.300   2.294  38.570  0.00  0.00    +0.232 C 
ATOM     13  C18 UNL     1      10.391   2.949  37.526  0.00  0.00    +0.082 C 
ATOM     14  C19 UNL     1      10.948   2.882  36.103  0.00  0.00    +0.232 C 
ATOM     15  O5  UNL     1      12.355   3.113  36.066  0.00  0.00    -0.488 OA
BRANCH  10  16
ATOM     16  N3  UNL     1      15.989  -1.151  36.772  0.00  0.00    +0.057 N 
ATOM     17  O2  UNL     1      15.794  -2.151  36.050  0.00  0.00    -0.126 OA
ATOM     18  O3  UNL     1      16.913  -1.238  37.787  0.00  0.00    -0.126 OA
ENDBRANCH  10  16
ENDBRANCH   2   5
BRANCH   1  22
ATOM     19  C6  UNL     1      20.453   1.429  31.488  0.00  0.00    -0.033 A 
ATOM     20  C7  UNL     1      19.823   0.185  31.656  0.00  0.00    +0.007 A 
ATOM     21  C8  UNL     1      18.637   0.083  32.389  0.00  0.00    +0.023 A 
ATOM     22  C9  UNL     1      18.075   1.221  32.992  0.00  0.00    +0.034 A 
ATOM     23  C20 UNL     1      18.703   2.463  32.824  0.00  0.00    +0.023 A 
ATOM     24  C21 UNL     1      19.889   2.565  32.092  0.00  0.00    +0.007 A 
BRANCH  19  25
ATOM     25  C5  UNL     1      21.749   1.537  30.707  0.00  0.00    +0.119 C 
BRANCH  25  26
ATOM     26  N1  UNL     1      21.705   0.936  29.346  0.00  0.00    -0.299 NA
BRANCH  26  28
ATOM     27  C1  UNL     1      22.847  -1.222  28.849  0.00  0.00    +0.020 C 
ATOM     28  C2  UNL     1      22.979   0.299  28.936  0.00  0.00    +0.081 C 
ENDBRANCH  26  28
BRANCH  26  29
ATOM     29  C3  UNL     1      21.214   1.866  28.302  0.00  0.00    +0.081 C 
ATOM     30  C4  UNL     1      20.613   1.114  27.114  0.00  0.00    +0.020 C 
ENDBRANCH  26  29
ENDBRANCH  25  26
ENDBRANCH  19  25
ENDBRANCH   1  22
TORSDOF 7
ENDMDL
MODEL 6
REMARK VINA RESULT:    -5.730      8.583     11.615
REMARK INTER + INTRA:          -9.066
REMARK INTER:                  -7.933
REMARK INTRA:                  -1.133
REMARK UNBOUND:                -0.992
REMARK  Name = /home/qwerty/github/datacon2025hack/step_04_hit_selection/docking/ligands/lig_363.pdb
REMARK  9 active torsions:
REMARK  status: ('A' for Active; 'I' for Inactive)
REMARK    1  A    between atoms: C1_1  and  C2_2
REMARK    2  A    between atoms: C2_2  and  N1_3
REMARK    3  A    between atoms: N1_3  and  C3_4
REMARK    4  A    between atoms: N1_3  and  C5_6
REMARK    5  A    between atoms: C3_4  and  C4_5
REMARK    6  A    between atoms: C5_6  and  C6_7
REMARK    7  A    between atoms: C9_10  and  N2_11
REMARK    8  A    between atoms: C10_12  and  C11_14
REMARK    9  A    between atoms: C16_19  and  N3_20
REMARK                            x       y       z     vdW  Elec       q    Type
REMARK                         _______ _______ _______ _____ _____    ______ ____
ROOT
ATOM      1  N2  UNL     1      21.066   5.847  32.928  0.00  0.00    -0.281 N 
ATOM      2  C10 UNL     1      20.522   6.038  34.246  0.00  0.00    +0.251 C 
ATOM      3  O1  UNL     1      20.077   5.058  34.903  0.00  0.00    -0.270 OA
ATOM      4  H15 UNL     1      21.518   6.662  32.455  0.00  0.00    +0.155 HD
ENDROOT
BRANCH   2   5
ATOM      5  C11 UNL     1      20.463   7.389  34.843  0.00  0.00    +0.071 A 
ATOM      6  C12 UNL     1      19.212   8.018  34.941  0.00  0.00    +0.064 A 
ATOM      7  C13 UNL     1      19.098   9.320  35.435  0.00  0.00    +0.163 A 
ATOM      8  C14 UNL     1      20.262  10.041  35.768  0.00  0.00    +0.164 A 
ATOM      9  C15 UNL     1      21.504   9.401  35.732  0.00  0.00    +0.083 A 
ATOM     10  C16 UNL     1      21.621   8.072  35.292  0.00  0.00    +0.142 A 
ATOM     11  O4  UNL     1      20.220  11.400  36.105  0.00  0.00    -0.488 OA
ATOM     12  C17 UNL     1      19.257  12.300  35.562  0.00  0.00    +0.232 C 
ATOM     13  C18 UNL     1      17.913  12.213  36.289  0.00  0.00    +0.082 C 
ATOM     14  C19 UNL     1      17.508  10.784  36.655  0.00  0.00    +0.232 C 
ATOM     15  O5  UNL     1      17.817   9.856  35.616  0.00  0.00    -0.488 OA
BRANCH  10  16
ATOM     16  N3  UNL     1      22.910   7.432  35.346  0.00  0.00    +0.057 N 
ATOM     17  O2  UNL     1      23.625   7.360  34.325  0.00  0.00    -0.126 OA
ATOM     18  O3  UNL     1      23.287   6.732  36.468  0.00  0.00    -0.126 OA
ENDBRANCH  10  16
ENDBRANCH   2   5
BRANCH   1  22
ATOM     19  C6  UNL     1      21.164   2.062  30.982  0.00  0.00    -0.033 A 
ATOM     20  C7  UNL     1      22.267   2.495  31.736  0.00  0.00    +0.007 A 
ATOM     21  C8  UNL     1      22.244   3.735  32.380  0.00  0.00    +0.023 A 
ATOM     22  C9  UNL     1      21.126   4.577  32.258  0.00  0.00    +0.034 A 
ATOM     23  C20 UNL     1      20.024   4.145  31.508  0.00  0.00    +0.023 A 
ATOM     24  C21 UNL     1      20.048   2.906  30.863  0.00  0.00    +0.007 A 
BRANCH  19  25
ATOM     25  C5  UNL     1      21.196   0.723  30.268  0.00  0.00    +0.119 C 
BRANCH  25  26
ATOM     26  N1  UNL     1      22.342   0.546  29.334  0.00  0.00    -0.299 NA
BRANCH  26  28
ATOM     27  C1  UNL     1      21.196   1.116  27.197  0.00  0.00    +0.020 C 
ATOM     28  C2  UNL     1      22.314   1.471  28.177  0.00  0.00    +0.081 C 
ENDBRANCH  26  28
BRANCH  26  29
ATOM     29  C3  UNL     1      22.536  -0.855  28.892  0.00  0.00    +0.081 C 
ATOM     30  C4  UNL     1      24.006  -1.271  28.963  0.00  0.00    +0.020 C 
ENDBRANCH  26  29
ENDBRANCH  25  26
ENDBRANCH  19  25
ENDBRANCH   1  22
TORSDOF 7
ENDMDL
MODEL 7
REMARK VINA RESULT:    -5.687      3.322      9.902
REMARK INTER + INTRA:          -9.006
REMARK INTER:                  -7.927
REMARK INTRA:                  -1.079
REMARK UNBOUND:                -0.992
REMARK  Name = /home/qwerty/github/datacon2025hack/step_04_hit_selection/docking/ligands/lig_363.pdb
REMARK  9 active torsions:
REMARK  status: ('A' for Active; 'I' for Inactive)
REMARK    1  A    between atoms: C1_1  and  C2_2
REMARK    2  A    between atoms: C2_2  and  N1_3
REMARK    3  A    between atoms: N1_3  and  C3_4
REMARK    4  A    between atoms: N1_3  and  C5_6
REMARK    5  A    between atoms: C3_4  and  C4_5
REMARK    6  A    between atoms: C5_6  and  C6_7
REMARK    7  A    between atoms: C9_10  and  N2_11
REMARK    8  A    between atoms: C10_12  and  C11_14
REMARK    9  A    between atoms: C16_19  and  N3_20
REMARK                            x       y       z     vdW  Elec       q    Type
REMARK                         _______ _______ _______ _____ _____    ______ ____
ROOT
ATOM      1  N2  UNL     1      20.903   4.389  24.564  0.00  0.00    -0.281 N 
ATOM      2  C10 UNL     1      21.677   3.487  25.374  0.00  0.00    +0.251 C 
ATOM      3  O1  UNL     1      22.868   3.213  25.067  0.00  0.00    -0.270 OA
ATOM      4  H15 UNL     1      19.956   4.671  24.903  0.00  0.00    +0.155 HD
ENDROOT
BRANCH   2   5
ATOM      5  C11 UNL     1      21.080   2.857  26.571  0.00  0.00    +0.071 A 
ATOM      6  C12 UNL     1      21.615   3.182  27.828  0.00  0.00    +0.064 A 
ATOM      7  C13 UNL     1      21.140   2.571  28.991  0.00  0.00    +0.163 A 
ATOM      8  C14 UNL     1      20.164   1.560  28.896  0.00  0.00    +0.164 A 
ATOM      9  C15 UNL     1      19.583   1.276  27.657  0.00  0.00    +0.083 A 
ATOM     10  C16 UNL     1      20.014   1.927  26.489  0.00  0.00    +0.142 A 
ATOM     11  O4  UNL     1      19.775   0.799  30.006  0.00  0.00    -0.488 OA
ATOM     12  C17 UNL     1      20.664   0.485  31.076  0.00  0.00    +0.232 C 
ATOM     13  C18 UNL     1      20.791   1.639  32.075  0.00  0.00    +0.082 C 
ATOM     14  C19 UNL     1      20.840   3.017  31.414  0.00  0.00    +0.232 C 
ATOM     15  O5  UNL     1      21.630   3.014  30.226  0.00  0.00    -0.488 OA
BRANCH  10  16
ATOM     16  N3  UNL     1      19.334   1.656  25.249  0.00  0.00    +0.057 N 
ATOM     17  O2  UNL     1      18.363   2.356  24.892  0.00  0.00    -0.126 OA
ATOM     18  O3  UNL     1      19.625   0.516  24.537  0.00  0.00    -0.126 OA
ENDBRANCH  10  16
ENDBRANCH   2   5
BRANCH   1  22
ATOM     19  C6  UNL     1      22.368   6.159  20.979  0.00  0.00    -0.033 A 
ATOM     20  C7  UNL     1      22.828   6.612  22.227  0.00  0.00    +0.007 A 
ATOM     21  C8  UNL     1      22.354   6.036  23.410  0.00  0.00    +0.023 A 
ATOM     22  C9  UNL     1      21.390   5.014  23.365  0.00  0.00    +0.034 A 
ATOM     23  C20 UNL     1      20.933   4.560  22.120  0.00  0.00    +0.023 A 
ATOM     24  C21 UNL     1      21.406   5.137  20.938  0.00  0.00    +0.007 A 
BRANCH  19  25
ATOM     25  C5  UNL     1      22.869   6.796  19.697  0.00  0.00    +0.119 C 
BRANCH  25  26
ATOM     26  N1  UNL     1      23.616   8.070  19.888  0.00  0.00    -0.299 NA
BRANCH  26  28
ATOM     27  C1  UNL     1      22.416  10.119  20.642  0.00  0.00    +0.020 C 
ATOM     28  C2  UNL     1      22.863   9.270  19.452  0.00  0.00    +0.081 C 
ENDBRANCH  26  28
BRANCH  26  29
ATOM     29  C3  UNL     1      24.978   8.054  19.304  0.00  0.00    +0.081 C 
ATOM     30  C4  UNL     1      25.507   6.629  19.146  0.00  0.00    +0.020 C 
ENDBRANCH  26  29
ENDBRANCH  25  26
ENDBRANCH  19  25
ENDBRANCH   1  22
TORSDOF 7
ENDMDL
MODEL 8
REMARK VINA RESULT:    -5.644      6.558      8.956
REMARK INTER + INTRA:          -8.946
REMARK INTER:                  -7.731
REMARK INTRA:                  -1.215
REMARK UNBOUND:                -0.992
REMARK  Name = /home/qwerty/github/datacon2025hack/step_04_hit_selection/docking/ligands/lig_363.pdb
REMARK  9 active torsions:
REMARK  status: ('A' for Active; 'I' for Inactive)
REMARK    1  A    between atoms: C1_1  and  C2_2
REMARK    2  A    between atoms: C2_2  and  N1_3
REMARK    3  A    between atoms: N1_3  and  C3_4
REMARK    4  A    between atoms: N1_3  and  C5_6
REMARK    5  A    between atoms: C3_4  and  C4_5
REMARK    6  A    between atoms: C5_6  and  C6_7
REMARK    7  A    between atoms: C9_10  and  N2_11
REMARK    8  A    between atoms: C10_12  and  C11_14
REMARK    9  A    between atoms: C16_19  and  N3_20
REMARK                            x       y       z     vdW  Elec       q    Type
REMARK                         _______ _______ _______ _____ _____    ______ ____
ROOT
ATOM      1  N2  UNL     1      17.387   1.300  25.327  0.00  0.00    -0.281 N 
ATOM      2  C10 UNL     1      17.133   1.634  23.951  0.00  0.00    +0.251 C 
ATOM      3  O1  UNL     1      18.037   2.150  23.240  0.00  0.00    -0.270 OA
ATOM      4  H15 UNL     1      16.650   0.782  25.856  0.00  0.00    +0.155 HD
ENDROOT
BRANCH   2   5
ATOM      5  C11 UNL     1      15.802   1.388  23.355  0.00  0.00    +0.071 A 
ATOM      6  C12 UNL     1      15.029   2.498  22.978  0.00  0.00    +0.064 A 
ATOM      7  C13 UNL     1      13.738   2.336  22.470  0.00  0.00    +0.163 A 
ATOM      8  C14 UNL     1      13.173   1.046  22.407  0.00  0.00    +0.164 A 
ATOM      9  C15 UNL     1      13.958  -0.066  22.721  0.00  0.00    +0.083 A 
ATOM     10  C16 UNL     1      15.278   0.084  23.177  0.00  0.00    +0.142 A 
ATOM     11  O4  UNL     1      11.829   0.842  22.068  0.00  0.00    -0.488 OA
ATOM     12  C17 UNL     1      10.804   1.782  22.380  0.00  0.00    +0.232 C 
ATOM     13  C18 UNL     1      10.749   2.930  21.369  0.00  0.00    +0.082 C 
ATOM     14  C19 UNL     1      12.128   3.418  20.923  0.00  0.00    +0.232 C 
ATOM     15  O5  UNL     1      13.056   3.467  22.005  0.00  0.00    -0.488 OA
BRANCH  10  16
ATOM     16  N3  UNL     1      16.071  -1.094  23.416  0.00  0.00    +0.057 N 
ATOM     17  O2  UNL     1      16.166  -1.573  24.565  0.00  0.00    -0.126 OA
ATOM     18  O3  UNL     1      16.879  -1.595  22.422  0.00  0.00    -0.126 OA
ENDBRANCH  10  16
ENDBRANCH   2   5
BRANCH   1  22
ATOM     19  C6  UNL     1      21.076   1.934  27.357  0.00  0.00    -0.033 A 
ATOM     20  C7  UNL     1      20.121   2.963  27.293  0.00  0.00    +0.007 A 
ATOM     21  C8  UNL     1      18.907   2.764  26.630  0.00  0.00    +0.023 A 
ATOM     22  C9  UNL     1      18.636   1.540  25.996  0.00  0.00    +0.034 A 
ATOM     23  C20 UNL     1      19.588   0.512  26.061  0.00  0.00    +0.023 A 
ATOM     24  C21 UNL     1      20.802   0.712  26.723  0.00  0.00    +0.007 A 
BRANCH  19  25
ATOM     25  C5  UNL     1      22.401   2.156  28.062  0.00  0.00    +0.119 C 
BRANCH  25  26
ATOM     26  N1  UNL     1      22.671   1.217  29.185  0.00  0.00    -0.299 NA
BRANCH  26  28
ATOM     27  C1  UNL     1      20.895   0.624  30.828  0.00  0.00    +0.020 C 
ATOM     28  C2  UNL     1      22.008   1.602  30.453  0.00  0.00    +0.081 C 
ENDBRANCH  26  28
BRANCH  26  29
ATOM     29  C3  UNL     1      24.112   0.945  29.398  0.00  0.00    +0.081 C 
ATOM     30  C4  UNL     1      24.475  -0.495  29.032  0.00  0.00    +0.020 C 
ENDBRANCH  26  29
ENDBRANCH  25  26
ENDBRANCH  19  25
ENDBRANCH   1  22
TORSDOF 7
ENDMDL
MODEL 9
REMARK VINA RESULT:    -5.573     11.165     14.399
REMARK INTER + INTRA:          -8.845
REMARK INTER:                  -7.651
REMARK INTRA:                  -1.195
REMARK UNBOUND:                -0.992
REMARK  Name = /home/qwerty/github/datacon2025hack/step_04_hit_selection/docking/ligands/lig_363.pdb
REMARK  9 active torsions:
REMARK  status: ('A' for Active; 'I' for Inactive)
REMARK    1  A    between atoms: C1_1  and  C2_2
REMARK    2  A    between atoms: C2_2  and  N1_3
REMARK    3  A    between atoms: N1_3  and  C3_4
REMARK    4  A    between atoms: N1_3  and  C5_6
REMARK    5  A    between atoms: C3_4  and  C4_5
REMARK    6  A    between atoms: C5_6  and  C6_7
REMARK    7  A    between atoms: C9_10  and  N2_11
REMARK    8  A    between atoms: C10_12  and  C11_14
REMARK    9  A    between atoms: C16_19  and  N3_20
REMARK                            x       y       z     vdW  Elec       q    Type
REMARK                         _______ _______ _______ _____ _____    ______ ____
ROOT
ATOM      1  N2  UNL     1      18.547   9.630  36.237  0.00  0.00    -0.281 N 
ATOM      2  C10 UNL     1      17.578  10.068  35.267  0.00  0.00    +0.251 C 
ATOM      3  O1  UNL     1      17.683   9.726  34.059  0.00  0.00    -0.270 OA
ATOM      4  H15 UNL     1      18.373   9.848  37.244  0.00  0.00    +0.155 HD
ENDROOT
BRANCH   2   5
ATOM      5  C11 UNL     1      16.453  10.937  35.673  0.00  0.00    +0.071 A 
ATOM      6  C12 UNL     1      15.208  10.337  35.922  0.00  0.00    +0.064 A 
ATOM      7  C13 UNL     1      14.089  11.109  36.245  0.00  0.00    +0.163 A 
ATOM      8  C14 UNL     1      14.192  12.515  36.246  0.00  0.00    +0.164 A 
ATOM      9  C15 UNL     1      15.441  13.115  36.060  0.00  0.00    +0.083 A 
ATOM     10  C16 UNL     1      16.583  12.343  35.793  0.00  0.00    +0.142 A 
ATOM     11  O4  UNL     1      13.070  13.340  36.395  0.00  0.00    -0.488 OA
ATOM     12  C17 UNL     1      11.774  12.970  35.929  0.00  0.00    +0.232 C 
ATOM     13  C18 UNL     1      11.055  12.036  36.906  0.00  0.00    +0.082 C 
ATOM     14  C19 UNL     1      11.974  10.987  37.536  0.00  0.00    +0.232 C 
ATOM     15  O5  UNL     1      12.903  10.453  36.594  0.00  0.00    -0.488 OA
BRANCH  10  16
ATOM     16  N3  UNL     1      17.860  13.001  35.684  0.00  0.00    +0.057 N 
ATOM     17  O2  UNL     1      18.088  13.791  34.745  0.00  0.00    -0.126 OA
ATOM     18  O3  UNL     1      18.900  12.628  36.503  0.00  0.00    -0.126 OA
ENDBRANCH  10  16
ENDBRANCH   2   5
BRANCH   1  22
ATOM     19  C6  UNL     1      21.917   7.173  35.381  0.00  0.00    -0.033 A 
ATOM     20  C7  UNL     1      22.060   8.569  35.443  0.00  0.00    +0.007 A 
ATOM     21  C8  UNL     1      20.960   9.384  35.725  0.00  0.00    +0.023 A 
ATOM     22  C9  UNL     1      19.690   8.818  35.923  0.00  0.00    +0.034 A 
ATOM     23  C20 UNL     1      19.546   7.425  35.864  0.00  0.00    +0.023 A 
ATOM     24  C21 UNL     1      20.646   6.610  35.581  0.00  0.00    +0.007 A 
BRANCH  19  25
ATOM     25  C5  UNL     1      23.107   6.290  35.057  0.00  0.00    +0.119 C 
BRANCH  25  26
ATOM     26  N1  UNL     1      23.570   6.366  33.644  0.00  0.00    -0.299 NA
BRANCH  26  28
ATOM     27  C1  UNL     1      22.009   4.866  32.411  0.00  0.00    +0.020 C 
ATOM     28  C2  UNL     1      23.438   5.087  32.907  0.00  0.00    +0.081 C 
ENDBRANCH  26  28
BRANCH  26  29
ATOM     29  C3  UNL     1      24.932   6.929  33.495  0.00  0.00    +0.081 C 
ATOM     30  C4  UNL     1      24.901   8.323  32.868  0.00  0.00    +0.020 C 
ENDBRANCH  26  29
ENDBRANCH  25  26
ENDBRANCH  19  25
ENDBRANCH   1  22
TORSDOF 7
ENDMDL
