MODEL 1
REMARK VINA RESULT:    -6.115      0.000      0.000
REMARK INTER + INTRA:          -8.399
REMARK INTER:                  -7.544
REMARK INTRA:                  -0.854
REMARK UNBOUND:                -0.854
REMARK  Name = /home/qwerty/github/datacon2025hack/step_04_hit_selection/docking/ligands/lig_73.pdb
REMARK  8 active torsions:
REMARK  status: ('A' for Active; 'I' for Inactive)
REMARK    1  A    between atoms: C1_1  and  C2_2
REMARK    2  A    between atoms: C4_4  and  C5_5
REMARK    3  A    between atoms: N1_6  and  C6_7
REMARK    4  A    between atoms: C6_7  and  C7_8
REMARK    5  A    between atoms: C10_14  and  C11_15
REMARK    6  A    between atoms: C12_17  and  C13_18
REMARK    7  A    between atoms: N5_20  and  C15_21
REMARK    8  A    between atoms: C15_21  and  C16_22
REMARK                            x       y       z     vdW  Elec       q    Type
REMARK                         _______ _______ _______ _____ _____    ______ ____
ROOT
ATOM      1  C7  UNL     1      22.553  13.515  25.136  0.00  0.00    +0.156 A 
ATOM      2  N2  UNL     1      21.307  13.069  25.385  0.00  0.00    -0.131 NA
ATOM      3  N3  UNL     1      20.759  12.768  24.218  0.00  0.00    -0.113 NA
ATOM      4  C8  UNL     1      21.687  13.022  23.275  0.00  0.00    +0.220 A 
ATOM      5  N4  UNL     1      21.433  12.854  21.867  0.00  0.00    -0.295 N 
ATOM      6  C9  UNL     1      20.119  13.184  21.327  0.00  0.00    +0.139 C 
ATOM      7  C10 UNL     1      19.409  11.888  20.885  0.00  0.00    +0.133 C 
ATOM      8  C11 UNL     1      18.306  12.175  19.864  0.00  0.00    +0.039 C 
ATOM      9  O1  UNL     1      20.259  10.844  20.411  0.00  0.00    -0.371 OA
ATOM     10  C12 UNL     1      21.548  11.251  19.967  0.00  0.00    +0.133 C 
ATOM     11  C13 UNL     1      21.502  11.941  18.595  0.00  0.00    +0.039 C 
ATOM     12  C14 UNL     1      22.330  12.050  21.036  0.00  0.00    +0.139 C 
ATOM     13  N5  UNL     1      22.838  13.485  23.814  0.00  0.00    -0.294 N 
ENDROOT
BRANCH   1  14
ATOM     14  C6  UNL     1      23.494  13.950  26.221  0.00  0.00    +0.220 C 
BRANCH  14  20
ATOM     15  C1  UNL     1      21.304  14.802  30.551  0.00  0.00    +0.067 C 
ATOM     16  C2  UNL     1      21.759  15.011  29.145  0.00  0.00    +0.060 A 
ATOM     17  C3  UNL     1      21.570  16.156  28.395  0.00  0.00    +0.047 A 
ATOM     18  C4  UNL     1      22.215  15.888  27.205  0.00  0.00    +0.037 A 
ATOM     19  C5  UNL     1      22.297  16.812  26.030  0.00  0.00    +0.065 C 
ATOM     20  N1  UNL     1      22.761  14.652  27.272  0.00  0.00    -0.261 N 
ATOM     21  N6  UNL     1      22.488  14.115  28.452  0.00  0.00    -0.176 NA
ENDBRANCH  14  20
ENDBRANCH   1  14
BRANCH  13  22
ATOM     22  C15 UNL     1      24.016  14.044  23.142  0.00  0.00    +0.170 C 
BRANCH  22  23
ATOM     23  C16 UNL     1      23.938  15.580  23.094  0.00  0.00    +0.193 C 
ATOM     24  C17 UNL     1      25.088  16.190  22.270  0.00  0.00    +0.050 C 
ATOM     25  C18 UNL     1      24.889  15.938  20.768  0.00  0.00    +0.034 C 
ATOM     26  C19 UNL     1      23.483  16.241  20.331  0.00  0.00    +0.011 C 
ATOM     27  C20 UNL     1      22.467  16.236  21.197  0.00  0.00    +0.183 C 
ATOM     28  O2  UNL     1      22.678  15.999  22.562  0.00  0.00    -0.495 OA
ENDBRANCH  22  23
ENDBRANCH  13  22
TORSDOF 4
ENDMDL
MODEL 2
REMARK VINA RESULT:    -6.096      3.648      7.729
REMARK INTER + INTRA:          -8.376
REMARK INTER:                  -7.193
REMARK INTRA:                  -1.183
REMARK UNBOUND:                -0.854
REMARK  Name = /home/qwerty/github/datacon2025hack/step_04_hit_selection/docking/ligands/lig_73.pdb
REMARK  8 active torsions:
REMARK  status: ('A' for Active; 'I' for Inactive)
REMARK    1  A    between atoms: C1_1  and  C2_2
REMARK    2  A    between atoms: C4_4  and  C5_5
REMARK    3  A    between atoms: N1_6  and  C6_7
REMARK    4  A    between atoms: C6_7  and  C7_8
REMARK    5  A    between atoms: C10_14  and  C11_15
REMARK    6  A    between atoms: C12_17  and  C13_18
REMARK    7  A    between atoms: N5_20  and  C15_21
REMARK    8  A    between atoms: C15_21  and  C16_22
REMARK                            x       y       z     vdW  Elec       q    Type
REMARK                         _______ _______ _______ _____ _____    ______ ____
ROOT
ATOM      1  C7  UNL     1      23.047   8.985  20.255  0.00  0.00    +0.156 A 
ATOM      2  N2  UNL     1      24.315   9.438  20.283  0.00  0.00    -0.131 NA
ATOM      3  N3  UNL     1      24.269  10.704  20.667  0.00  0.00    -0.113 NA
ATOM      4  C8  UNL     1      22.972  11.000  20.881  0.00  0.00    +0.220 A 
ATOM      5  N4  UNL     1      22.527  12.313  21.269  0.00  0.00    -0.295 N 
ATOM      6  C9  UNL     1      23.188  13.491  20.719  0.00  0.00    +0.139 C 
ATOM      7  C10 UNL     1      23.974  14.204  21.838  0.00  0.00    +0.133 C 
ATOM      8  C11 UNL     1      24.242  15.669  21.488  0.00  0.00    +0.039 C 
ATOM      9  O1  UNL     1      23.420  14.105  23.149  0.00  0.00    -0.371 OA
ATOM     10  C12 UNL     1      22.034  13.790  23.210  0.00  0.00    +0.133 C 
ATOM     11  C13 UNL     1      21.146  14.989  22.842  0.00  0.00    +0.039 C 
ATOM     12  C14 UNL     1      21.673  12.496  22.444  0.00  0.00    +0.139 C 
ATOM     13  N5  UNL     1      22.168   9.938  20.642  0.00  0.00    -0.294 N 
ENDROOT
BRANCH   1  14
ATOM     14  C6  UNL     1      22.693   7.578  19.870  0.00  0.00    +0.220 C 
BRANCH  14  20
ATOM     15  C1  UNL     1      22.503   5.557  24.358  0.00  0.00    +0.067 C 
ATOM     16  C2  UNL     1      22.102   5.927  22.970  0.00  0.00    +0.060 A 
ATOM     17  C3  UNL     1      20.893   5.629  22.370  0.00  0.00    +0.047 A 
ATOM     18  C4  UNL     1      20.976   6.229  21.130  0.00  0.00    +0.037 A 
ATOM     19  C5  UNL     1      19.919   6.193  20.072  0.00  0.00    +0.065 C 
ATOM     20  N1  UNL     1      22.170   6.855  21.027  0.00  0.00    -0.261 N 
ATOM     21  N6  UNL     1      22.858   6.676  22.144  0.00  0.00    -0.176 NA
ENDBRANCH  14  20
ENDBRANCH   1  14
BRANCH  13  22
ATOM     22  C15 UNL     1      20.704   9.881  20.580  0.00  0.00    +0.170 C 
BRANCH  22  23
ATOM     23  C16 UNL     1      20.207  10.190  19.156  0.00  0.00    +0.193 C 
ATOM     24  C17 UNL     1      18.835   9.551  18.873  0.00  0.00    +0.050 C 
ATOM     25  C18 UNL     1      17.716  10.278  19.633  0.00  0.00    +0.034 C 
ATOM     26  C19 UNL     1      17.827  11.772  19.500  0.00  0.00    +0.011 C 
ATOM     27  C20 UNL     1      18.989  12.360  19.201  0.00  0.00    +0.183 C 
ATOM     28  O2  UNL     1      20.141  11.604  18.948  0.00  0.00    -0.495 OA
ENDBRANCH  22  23
ENDBRANCH  13  22
TORSDOF 4
ENDMDL
MODEL 3
REMARK VINA RESULT:    -6.004      2.584      7.234
REMARK INTER + INTRA:          -8.262
REMARK INTER:                  -7.438
REMARK INTRA:                  -0.824
REMARK UNBOUND:                -0.854
REMARK  Name = /home/qwerty/github/datacon2025hack/step_04_hit_selection/docking/ligands/lig_73.pdb
REMARK  8 active torsions:
REMARK  status: ('A' for Active; 'I' for Inactive)
REMARK    1  A    between atoms: C1_1  and  C2_2
REMARK    2  A    between atoms: C4_4  and  C5_5
REMARK    3  A    between atoms: N1_6  and  C6_7
REMARK    4  A    between atoms: C6_7  and  C7_8
REMARK    5  A    between atoms: C10_14  and  C11_15
REMARK    6  A    between atoms: C12_17  and  C13_18
REMARK    7  A    between atoms: N5_20  and  C15_21
REMARK    8  A    between atoms: C15_21  and  C16_22
REMARK                            x       y       z     vdW  Elec       q    Type
REMARK                         _______ _______ _______ _____ _____    ______ ____
ROOT
ATOM      1  C7  UNL     1      19.212  12.322  20.998  0.00  0.00    +0.156 A 
ATOM      2  N2  UNL     1      19.256  11.478  22.047  0.00  0.00    -0.131 NA
ATOM      3  N3  UNL     1      20.005  12.050  22.977  0.00  0.00    -0.113 NA
ATOM      4  C8  UNL     1      20.395  13.242  22.485  0.00  0.00    +0.220 A 
ATOM      5  N4  UNL     1      21.266  14.134  23.206  0.00  0.00    -0.295 N 
ATOM      6  C9  UNL     1      22.351  13.587  24.013  0.00  0.00    +0.139 C 
ATOM      7  C10 UNL     1      22.046  13.824  25.506  0.00  0.00    +0.133 C 
ATOM      8  C11 UNL     1      23.318  13.767  26.353  0.00  0.00    +0.039 C 
ATOM      9  O1  UNL     1      21.304  15.004  25.810  0.00  0.00    -0.371 OA
ATOM     10  C12 UNL     1      21.338  16.026  24.821  0.00  0.00    +0.133 C 
ATOM     11  C13 UNL     1      22.678  16.779  24.804  0.00  0.00    +0.039 C 
ATOM     12  C14 UNL     1      20.890  15.531  23.425  0.00  0.00    +0.139 C 
ATOM     13  N5  UNL     1      19.906  13.457  21.243  0.00  0.00    -0.294 N 
ENDROOT
BRANCH   1  14
ATOM     14  C6  UNL     1      18.447  12.022  19.743  0.00  0.00    +0.220 C 
BRANCH  14  20
ATOM     15  C1  UNL     1      17.309   7.266  19.141  0.00  0.00    +0.067 C 
ATOM     16  C2  UNL     1      18.115   8.521  19.172  0.00  0.00    +0.060 A 
ATOM     17  C3  UNL     1      19.429   8.650  18.763  0.00  0.00    +0.047 A 
ATOM     18  C4  UNL     1      19.701   9.993  18.924  0.00  0.00    +0.037 A 
ATOM     19  C5  UNL     1      21.009  10.659  18.633  0.00  0.00    +0.065 C 
ATOM     20  N1  UNL     1      18.592  10.611  19.390  0.00  0.00    -0.261 N 
ATOM     21  N6  UNL     1      17.623   9.720  19.540  0.00  0.00    -0.176 NA
ENDBRANCH  14  20
ENDBRANCH   1  14
BRANCH  13  22
ATOM     22  C15 UNL     1      20.229  14.528  20.293  0.00  0.00    +0.170 C 
BRANCH  22  23
ATOM     23  C16 UNL     1      21.349  14.086  19.335  0.00  0.00    +0.193 C 
ATOM     24  C17 UNL     1      21.800  15.231  18.410  0.00  0.00    +0.050 C 
ATOM     25  C18 UNL     1      22.609  16.284  19.182  0.00  0.00    +0.034 C 
ATOM     26  C19 UNL     1      23.649  15.654  20.066  0.00  0.00    +0.011 C 
ATOM     27  C20 UNL     1      23.536  14.391  20.484  0.00  0.00    +0.183 C 
ATOM     28  O2  UNL     1      22.467  13.583  20.073  0.00  0.00    -0.495 OA
ENDBRANCH  22  23
ENDBRANCH  13  22
TORSDOF 4
ENDMDL
MODEL 4
REMARK VINA RESULT:    -5.978     12.628     15.203
REMARK INTER + INTRA:          -8.230
REMARK INTER:                  -7.251
REMARK INTRA:                  -0.979
REMARK UNBOUND:                -0.854
REMARK  Name = /home/qwerty/github/datacon2025hack/step_04_hit_selection/docking/ligands/lig_73.pdb
REMARK  8 active torsions:
REMARK  status: ('A' for Active; 'I' for Inactive)
REMARK    1  A    between atoms: C1_1  and  C2_2
REMARK    2  A    between atoms: C4_4  and  C5_5
REMARK    3  A    between atoms: N1_6  and  C6_7
REMARK    4  A    between atoms: C6_7  and  C7_8
REMARK    5  A    between atoms: C10_14  and  C11_15
REMARK    6  A    between atoms: C12_17  and  C13_18
REMARK    7  A    between atoms: N5_20  and  C15_21
REMARK    8  A    between atoms: C15_21  and  C16_22
REMARK                            x       y       z     vdW  Elec       q    Type
REMARK                         _______ _______ _______ _____ _____    ______ ____
ROOT
ATOM      1  C7  UNL     1      12.516   3.598  20.983  0.00  0.00    +0.156 A 
ATOM      2  N2  UNL     1      13.107   4.232  19.953  0.00  0.00    -0.131 NA
ATOM      3  N3  UNL     1      12.709   5.494  19.991  0.00  0.00    -0.113 NA
ATOM      4  C8  UNL     1      11.890   5.613  21.054  0.00  0.00    +0.220 A 
ATOM      5  N4  UNL     1      11.223   6.844  21.390  0.00  0.00    -0.295 N 
ATOM      6  C9  UNL     1      10.731   7.711  20.326  0.00  0.00    +0.139 C 
ATOM      7  C10 UNL     1      11.570   9.004  20.292  0.00  0.00    +0.133 C 
ATOM      8  C11 UNL     1      10.819  10.142  19.599  0.00  0.00    +0.039 C 
ATOM      9  O1  UNL     1      12.082   9.448  21.549  0.00  0.00    -0.371 OA
ATOM     10  C12 UNL     1      11.406   8.953  22.699  0.00  0.00    +0.133 C 
ATOM     11  C13 UNL     1      10.051   9.642  22.921  0.00  0.00    +0.039 C 
ATOM     12  C14 UNL     1      11.328   7.408  22.736  0.00  0.00    +0.139 C 
ATOM     13  N5  UNL     1      11.751   4.440  21.714  0.00  0.00    -0.294 N 
ENDROOT
BRANCH   1  14
ATOM     14  C6  UNL     1      12.731   2.141  21.274  0.00  0.00    +0.220 C 
BRANCH  14  20
ATOM     15  C1  UNL     1      16.272   2.103  24.700  0.00  0.00    +0.067 C 
ATOM     16  C2  UNL     1      15.605   1.967  23.373  0.00  0.00    +0.060 A 
ATOM     17  C3  UNL     1      16.195   1.498  22.214  0.00  0.00    +0.047 A 
ATOM     18  C4  UNL     1      15.170   1.502  21.290  0.00  0.00    +0.037 A 
ATOM     19  C5  UNL     1      15.289   1.091  19.855  0.00  0.00    +0.065 C 
ATOM     20  N1  UNL     1      14.041   1.939  21.891  0.00  0.00    -0.261 N 
ATOM     21  N6  UNL     1      14.298   2.221  23.159  0.00  0.00    -0.176 NA
ENDBRANCH  14  20
ENDBRANCH   1  14
BRANCH  13  22
ATOM     22  C15 UNL     1      10.826   4.092  22.799  0.00  0.00    +0.170 C 
BRANCH  22  23
ATOM     23  C16 UNL     1       9.611   3.322  22.252  0.00  0.00    +0.193 C 
ATOM     24  C17 UNL     1       8.481   3.216  23.293  0.00  0.00    +0.050 C 
ATOM     25  C18 UNL     1       7.781   4.568  23.493  0.00  0.00    +0.034 C 
ATOM     26  C19 UNL     1       7.459   5.231  22.182  0.00  0.00    +0.011 C 
ATOM     27  C20 UNL     1       8.127   4.930  21.066  0.00  0.00    +0.183 C 
ATOM     28  O2  UNL     1       9.122   3.943  21.059  0.00  0.00    -0.495 OA
ENDBRANCH  22  23
ENDBRANCH  13  22
TORSDOF 4
ENDMDL
MODEL 5
REMARK VINA RESULT:    -5.966      3.776      8.130
REMARK INTER + INTRA:          -8.215
REMARK INTER:                  -7.328
REMARK INTRA:                  -0.887
REMARK UNBOUND:                -0.854
REMARK  Name = /home/qwerty/github/datacon2025hack/step_04_hit_selection/docking/ligands/lig_73.pdb
REMARK  8 active torsions:
REMARK  status: ('A' for Active; 'I' for Inactive)
REMARK    1  A    between atoms: C1_1  and  C2_2
REMARK    2  A    between atoms: C4_4  and  C5_5
REMARK    3  A    between atoms: N1_6  and  C6_7
REMARK    4  A    between atoms: C6_7  and  C7_8
REMARK    5  A    between atoms: C10_14  and  C11_15
REMARK    6  A    between atoms: C12_17  and  C13_18
REMARK    7  A    between atoms: N5_20  and  C15_21
REMARK    8  A    between atoms: C15_21  and  C16_22
REMARK                            x       y       z     vdW  Elec       q    Type
REMARK                         _______ _______ _______ _____ _____    ______ ____
ROOT
ATOM      1  C7  UNL     1      20.652  10.214  19.187  0.00  0.00    +0.156 A 
ATOM      2  N2  UNL     1      19.806  11.257  19.085  0.00  0.00    -0.131 NA
ATOM      3  N3  UNL     1      20.255  12.204  19.894  0.00  0.00    -0.113 NA
ATOM      4  C8  UNL     1      21.378  11.727  20.467  0.00  0.00    +0.220 A 
ATOM      5  N4  UNL     1      22.125  12.469  21.449  0.00  0.00    -0.295 N 
ATOM      6  C9  UNL     1      21.419  13.291  22.424  0.00  0.00    +0.139 C 
ATOM      7  C10 UNL     1      21.693  14.780  22.131  0.00  0.00    +0.133 C 
ATOM      8  C11 UNL     1      21.442  15.649  23.364  0.00  0.00    +0.039 C 
ATOM      9  O1  UNL     1      22.970  15.079  21.570  0.00  0.00    -0.371 OA
ATOM     10  C12 UNL     1      23.979  14.097  21.775  0.00  0.00    +0.133 C 
ATOM     11  C13 UNL     1      24.522  14.110  23.212  0.00  0.00    +0.039 C 
ATOM     12  C14 UNL     1      23.562  12.691  21.284  0.00  0.00    +0.139 C 
ATOM     13  N5  UNL     1      21.669  10.477  20.039  0.00  0.00    -0.294 N 
ENDROOT
BRANCH   1  14
ATOM     14  C6  UNL     1      20.474   8.942  18.409  0.00  0.00    +0.220 C 
BRANCH  14  20
ATOM     15  C1  UNL     1      20.267   4.988  21.341  0.00  0.00    +0.067 C 
ATOM     16  C2  UNL     1      19.815   6.142  20.509  0.00  0.00    +0.060 A 
ATOM     17  C3  UNL     1      18.511   6.576  20.368  0.00  0.00    +0.047 A 
ATOM     18  C4  UNL     1      18.614   7.693  19.564  0.00  0.00    +0.037 A 
ATOM     19  C5  UNL     1      17.471   8.537  19.094  0.00  0.00    +0.065 C 
ATOM     20  N1  UNL     1      19.917   7.900  19.268  0.00  0.00    -0.261 N 
ATOM     21  N6  UNL     1      20.652   6.960  19.842  0.00  0.00    -0.176 NA
ENDBRANCH  14  20
ENDBRANCH   1  14
BRANCH  13  22
ATOM     22  C15 UNL     1      22.682   9.541  20.537  0.00  0.00    +0.170 C 
BRANCH  22  23
ATOM     23  C16 UNL     1      23.860   9.440  19.551  0.00  0.00    +0.193 C 
ATOM     24  C17 UNL     1      25.220   9.540  20.267  0.00  0.00    +0.050 C 
ATOM     25  C18 UNL     1      25.523   8.264  21.066  0.00  0.00    +0.034 C 
ATOM     26  C19 UNL     1      25.251   7.023  20.263  0.00  0.00    +0.011 C 
ATOM     27  C20 UNL     1      24.410   7.034  19.226  0.00  0.00    +0.183 C 
ATOM     28  O2  UNL     1      23.786   8.218  18.810  0.00  0.00    -0.495 OA
ENDBRANCH  22  23
ENDBRANCH  13  22
TORSDOF 4
ENDMDL
MODEL 6
REMARK VINA RESULT:    -5.951     11.107     14.509
REMARK INTER + INTRA:          -8.197
REMARK INTER:                  -7.394
REMARK INTRA:                  -0.804
REMARK UNBOUND:                -0.854
REMARK  Name = /home/qwerty/github/datacon2025hack/step_04_hit_selection/docking/ligands/lig_73.pdb
REMARK  8 active torsions:
REMARK  status: ('A' for Active; 'I' for Inactive)
REMARK    1  A    between atoms: C1_1  and  C2_2
REMARK    2  A    between atoms: C4_4  and  C5_5
REMARK    3  A    between atoms: N1_6  and  C6_7
REMARK    4  A    between atoms: C6_7  and  C7_8
REMARK    5  A    between atoms: C10_14  and  C11_15
REMARK    6  A    between atoms: C12_17  and  C13_18
REMARK    7  A    between atoms: N5_20  and  C15_21
REMARK    8  A    between atoms: C15_21  and  C16_22
REMARK                            x       y       z     vdW  Elec       q    Type
REMARK                         _______ _______ _______ _____ _____    ______ ____
ROOT
ATOM      1  C7  UNL     1      14.301   2.014  20.379  0.00  0.00    +0.156 A 
ATOM      2  N2  UNL     1      13.351   1.268  20.976  0.00  0.00    -0.131 NA
ATOM      3  N3  UNL     1      12.370   2.089  21.320  0.00  0.00    -0.113 NA
ATOM      4  C8  UNL     1      12.732   3.321  20.914  0.00  0.00    +0.220 A 
ATOM      5  N4  UNL     1      11.926   4.489  21.159  0.00  0.00    -0.295 N 
ATOM      6  C9  UNL     1      11.192   4.609  22.413  0.00  0.00    +0.139 C 
ATOM      7  C10 UNL     1       9.680   4.499  22.133  0.00  0.00    +0.133 C 
ATOM      8  C11 UNL     1       8.854   5.121  23.260  0.00  0.00    +0.039 C 
ATOM      9  O1  UNL     1       9.243   4.997  20.869  0.00  0.00    -0.371 OA
ATOM     10  C12 UNL     1      10.116   5.927  20.238  0.00  0.00    +0.133 C 
ATOM     11  C13 UNL     1      10.061   7.316  20.892  0.00  0.00    +0.039 C 
ATOM     12  C14 UNL     1      11.553   5.383  20.062  0.00  0.00    +0.139 C 
ATOM     13  N5  UNL     1      13.940   3.315  20.306  0.00  0.00    -0.294 N 
ENDROOT
BRANCH   1  14
ATOM     14  C6  UNL     1      15.576   1.431  19.843  0.00  0.00    +0.220 C 
BRANCH  14  20
ATOM     15  C1  UNL     1      17.215  -0.319  24.147  0.00  0.00    +0.067 C 
ATOM     16  C2  UNL     1      16.921  -0.241  22.686  0.00  0.00    +0.060 A 
ATOM     17  C3  UNL     1      17.158  -1.238  21.758  0.00  0.00    +0.047 A 
ATOM     18  C4  UNL     1      16.666  -0.721  20.577  0.00  0.00    +0.037 A 
ATOM     19  C5  UNL     1      16.692  -1.407  19.247  0.00  0.00    +0.065 C 
ATOM     20  N1  UNL     1      16.158   0.509  20.816  0.00  0.00    -0.261 N 
ATOM     21  N6  UNL     1      16.308   0.805  22.098  0.00  0.00    -0.176 NA
ENDBRANCH  14  20
ENDBRANCH   1  14
BRANCH  13  22
ATOM     22  C15 UNL     1      14.770   4.450  19.884  0.00  0.00    +0.170 C 
BRANCH  22  23
ATOM     23  C16 UNL     1      15.757   4.845  20.997  0.00  0.00    +0.193 C 
ATOM     24  C17 UNL     1      17.222   4.712  20.542  0.00  0.00    +0.050 C 
ATOM     25  C18 UNL     1      17.597   5.820  19.546  0.00  0.00    +0.034 C 
ATOM     26  C19 UNL     1      17.134   7.172  20.012  0.00  0.00    +0.011 C 
ATOM     27  C20 UNL     1      16.130   7.303  20.883  0.00  0.00    +0.183 C 
ATOM     28  O2  UNL     1      15.500   6.182  21.439  0.00  0.00    -0.495 OA
ENDBRANCH  22  23
ENDBRANCH  13  22
TORSDOF 4
ENDMDL
MODEL 7
REMARK VINA RESULT:    -5.931     12.272     15.305
REMARK INTER + INTRA:          -8.173
REMARK INTER:                  -7.257
REMARK INTRA:                  -0.915
REMARK UNBOUND:                -0.854
REMARK  Name = /home/qwerty/github/datacon2025hack/step_04_hit_selection/docking/ligands/lig_73.pdb
REMARK  8 active torsions:
REMARK  status: ('A' for Active; 'I' for Inactive)
REMARK    1  A    between atoms: C1_1  and  C2_2
REMARK    2  A    between atoms: C4_4  and  C5_5
REMARK    3  A    between atoms: N1_6  and  C6_7
REMARK    4  A    between atoms: C6_7  and  C7_8
REMARK    5  A    between atoms: C10_14  and  C11_15
REMARK    6  A    between atoms: C12_17  and  C13_18
REMARK    7  A    between atoms: N5_20  and  C15_21
REMARK    8  A    between atoms: C15_21  and  C16_22
REMARK                            x       y       z     vdW  Elec       q    Type
REMARK                         _______ _______ _______ _____ _____    ______ ____
ROOT
ATOM      1  C7  UNL     1      10.765   5.578  20.688  0.00  0.00    +0.156 A 
ATOM      2  N2  UNL     1      11.684   6.543  20.486  0.00  0.00    -0.131 NA
ATOM      3  N3  UNL     1      12.875   5.973  20.579  0.00  0.00    -0.113 NA
ATOM      4  C8  UNL     1      12.664   4.665  20.823  0.00  0.00    +0.220 A 
ATOM      5  N4  UNL     1      13.738   3.728  21.031  0.00  0.00    -0.295 N 
ATOM      6  C9  UNL     1      14.932   4.149  21.755  0.00  0.00    +0.139 C 
ATOM      7  C10 UNL     1      16.125   4.210  20.780  0.00  0.00    +0.133 C 
ATOM      8  C11 UNL     1      17.460   4.124  21.522  0.00  0.00    +0.039 C 
ATOM      9  O1  UNL     1      16.099   3.272  19.704  0.00  0.00    -0.371 OA
ATOM     10  C12 UNL     1      15.275   2.129  19.903  0.00  0.00    +0.133 C 
ATOM     11  C13 UNL     1      15.906   1.117  20.871  0.00  0.00    +0.039 C 
ATOM     12  C14 UNL     1      13.813   2.491  20.252  0.00  0.00    +0.139 C 
ATOM     13  N5  UNL     1      11.345   4.372  20.888  0.00  0.00    -0.294 N 
ENDROOT
BRANCH   1  14
ATOM     14  C6  UNL     1       9.288   5.841  20.653  0.00  0.00    +0.220 C 
BRANCH  14  20
ATOM     15  C1  UNL     1       8.534  10.660  21.341  0.00  0.00    +0.067 C 
ATOM     16  C2  UNL     1       8.702   9.210  21.649  0.00  0.00    +0.060 A 
ATOM     17  C3  UNL     1       8.545   8.623  22.890  0.00  0.00    +0.047 A 
ATOM     18  C4  UNL     1       8.740   7.277  22.651  0.00  0.00    +0.037 A 
ATOM     19  C5  UNL     1       8.691   6.193  23.682  0.00  0.00    +0.065 C 
ATOM     20  N1  UNL     1       8.983   7.098  21.334  0.00  0.00    -0.261 N 
ATOM     21  N6  UNL     1       8.959   8.270  20.718  0.00  0.00    -0.176 NA
ENDBRANCH  14  20
ENDBRANCH   1  14
BRANCH  13  22
ATOM     22  C15 UNL     1      10.692   3.127  21.306  0.00  0.00    +0.170 C 
BRANCH  22  23
ATOM     23  C16 UNL     1      10.442   3.126  22.825  0.00  0.00    +0.193 C 
ATOM     24  C17 UNL     1       9.482   2.000  23.250  0.00  0.00    +0.050 C 
ATOM     25  C18 UNL     1      10.165   0.627  23.165  0.00  0.00    +0.034 C 
ATOM     26  C19 UNL     1      11.535   0.643  23.783  0.00  0.00    +0.011 C 
ATOM     27  C20 UNL     1      12.225   1.778  23.918  0.00  0.00    +0.183 C 
ATOM     28  O2  UNL     1      11.679   3.010  23.534  0.00  0.00    -0.495 OA
ENDBRANCH  22  23
ENDBRANCH  13  22
TORSDOF 4
ENDMDL
MODEL 8
REMARK VINA RESULT:    -5.930     12.947     15.307
REMARK INTER + INTRA:          -8.172
REMARK INTER:                  -7.059
REMARK INTRA:                  -1.113
REMARK UNBOUND:                -0.854
REMARK  Name = /home/qwerty/github/datacon2025hack/step_04_hit_selection/docking/ligands/lig_73.pdb
REMARK  8 active torsions:
REMARK  status: ('A' for Active; 'I' for Inactive)
REMARK    1  A    between atoms: C1_1  and  C2_2
REMARK    2  A    between atoms: C4_4  and  C5_5
REMARK    3  A    between atoms: N1_6  and  C6_7
REMARK    4  A    between atoms: C6_7  and  C7_8
REMARK    5  A    between atoms: C10_14  and  C11_15
REMARK    6  A    between atoms: C12_17  and  C13_18
REMARK    7  A    between atoms: N5_20  and  C15_21
REMARK    8  A    between atoms: C15_21  and  C16_22
REMARK                            x       y       z     vdW  Elec       q    Type
REMARK                         _______ _______ _______ _____ _____    ______ ____
ROOT
ATOM      1  C7  UNL     1      13.525   0.398  23.108  0.00  0.00    +0.156 A 
ATOM      2  N2  UNL     1      12.612   0.322  24.095  0.00  0.00    -0.131 NA
ATOM      3  N3  UNL     1      11.778   1.337  23.935  0.00  0.00    -0.113 NA
ATOM      4  C8  UNL     1      12.189   2.011  22.842  0.00  0.00    +0.220 A 
ATOM      5  N4  UNL     1      11.544   3.213  22.381  0.00  0.00    -0.295 N 
ATOM      6  C9  UNL     1      11.027   4.171  23.350  0.00  0.00    +0.139 C 
ATOM      7  C10 UNL     1       9.486   4.173  23.294  0.00  0.00    +0.133 C 
ATOM      8  C11 UNL     1       8.906   5.469  23.863  0.00  0.00    +0.039 C 
ATOM      9  O1  UNL     1       8.909   3.895  22.018  0.00  0.00    -0.371 OA
ATOM     10  C12 UNL     1       9.759   4.110  20.897  0.00  0.00    +0.133 C 
ATOM     11  C13 UNL     1       9.937   5.602  20.577  0.00  0.00    +0.039 C 
ATOM     12  C14 UNL     1      11.094   3.334  20.994  0.00  0.00    +0.139 C 
ATOM     13  N5  UNL     1      13.283   1.443  22.285  0.00  0.00    -0.294 N 
ENDROOT
BRANCH   1  14
ATOM     14  C6  UNL     1      14.642  -0.593  22.953  0.00  0.00    +0.220 C 
BRANCH  14  20
ATOM     15  C1  UNL     1      18.157   0.869  26.079  0.00  0.00    +0.067 C 
ATOM     16  C2  UNL     1      17.074   0.038  25.477  0.00  0.00    +0.060 A 
ATOM     17  C3  UNL     1      16.525  -1.102  26.033  0.00  0.00    +0.047 A 
ATOM     18  C4  UNL     1      15.534  -1.465  25.144  0.00  0.00    +0.037 A 
ATOM     19  C5  UNL     1      14.638  -2.657  25.276  0.00  0.00    +0.065 C 
ATOM     20  N1  UNL     1      15.505  -0.569  24.132  0.00  0.00    -0.261 N 
ATOM     21  N6  UNL     1      16.438   0.349  24.331  0.00  0.00    -0.176 NA
ENDBRANCH  14  20
ENDBRANCH   1  14
BRANCH  13  22
ATOM     22  C15 UNL     1      14.142   1.951  21.209  0.00  0.00    +0.170 C 
BRANCH  22  23
ATOM     23  C16 UNL     1      15.233   2.877  21.775  0.00  0.00    +0.193 C 
ATOM     24  C17 UNL     1      16.511   2.853  20.916  0.00  0.00    +0.050 C 
ATOM     25  C18 UNL     1      16.301   3.590  19.586  0.00  0.00    +0.034 C 
ATOM     26  C19 UNL     1      15.620   4.916  19.782  0.00  0.00    +0.011 C 
ATOM     27  C20 UNL     1      14.876   5.165  20.862  0.00  0.00    +0.183 C 
ATOM     28  O2  UNL     1      14.742   4.216  21.885  0.00  0.00    -0.495 OA
ENDBRANCH  22  23
ENDBRANCH  13  22
TORSDOF 4
ENDMDL
MODEL 9
REMARK VINA RESULT:    -5.907     13.800     16.089
REMARK INTER + INTRA:          -8.143
REMARK INTER:                  -7.281
REMARK INTRA:                  -0.862
REMARK UNBOUND:                -0.854
REMARK  Name = /home/qwerty/github/datacon2025hack/step_04_hit_selection/docking/ligands/lig_73.pdb
REMARK  8 active torsions:
REMARK  status: ('A' for Active; 'I' for Inactive)
REMARK    1  A    between atoms: C1_1  and  C2_2
REMARK    2  A    between atoms: C4_4  and  C5_5
REMARK    3  A    between atoms: N1_6  and  C6_7
REMARK    4  A    between atoms: C6_7  and  C7_8
REMARK    5  A    between atoms: C10_14  and  C11_15
REMARK    6  A    between atoms: C12_17  and  C13_18
REMARK    7  A    between atoms: N5_20  and  C15_21
REMARK    8  A    between atoms: C15_21  and  C16_22
REMARK                            x       y       z     vdW  Elec       q    Type
REMARK                         _______ _______ _______ _____ _____    ______ ____
ROOT
ATOM      1  C7  UNL     1       9.618   5.338  21.420  0.00  0.00    +0.156 A 
ATOM      2  N2  UNL     1      10.219   5.751  20.288  0.00  0.00    -0.131 NA
ATOM      3  N3  UNL     1      11.371   5.105  20.199  0.00  0.00    -0.113 NA
ATOM      4  C8  UNL     1      11.449   4.297  21.274  0.00  0.00    +0.220 A 
ATOM      5  N4  UNL     1      12.594   3.466  21.542  0.00  0.00    -0.295 N 
ATOM      6  C9  UNL     1      13.931   3.959  21.234  0.00  0.00    +0.139 C 
ATOM      7  C10 UNL     1      14.514   3.153  20.055  0.00  0.00    +0.133 C 
ATOM      8  C11 UNL     1      16.040   3.238  20.020  0.00  0.00    +0.039 C 
ATOM      9  O1  UNL     1      14.094   1.792  19.964  0.00  0.00    -0.371 OA
ATOM     10  C12 UNL     1      13.595   1.218  21.166  0.00  0.00    +0.133 C 
ATOM     11  C13 UNL     1      14.716   0.886  22.163  0.00  0.00    +0.039 C 
ATOM     12  C14 UNL     1      12.436   2.032  21.788  0.00  0.00    +0.139 C 
ATOM     13  N5  UNL     1      10.356   4.405  22.065  0.00  0.00    -0.294 N 
ENDROOT
BRANCH   1  14
ATOM     14  C6  UNL     1       8.277   5.846  21.863  0.00  0.00    +0.220 C 
BRANCH  14  20
ATOM     15  C1  UNL     1       8.326  10.755  21.443  0.00  0.00    +0.067 C 
ATOM     16  C2  UNL     1       8.444   9.399  22.055  0.00  0.00    +0.060 A 
ATOM     17  C3  UNL     1       8.691   9.132  23.388  0.00  0.00    +0.047 A 
ATOM     18  C4  UNL     1       8.646   7.754  23.469  0.00  0.00    +0.037 A 
ATOM     19  C5  UNL     1       8.866   6.946  24.709  0.00  0.00    +0.065 C 
ATOM     20  N1  UNL     1       8.372   7.254  22.243  0.00  0.00    -0.261 N 
ATOM     21  N6  UNL     1       8.246   8.250  21.379  0.00  0.00    -0.176 NA
ENDBRANCH  14  20
ENDBRANCH   1  14
BRANCH  13  22
ATOM     22  C15 UNL     1      10.121   3.847  23.401  0.00  0.00    +0.170 C 
BRANCH  22  23
ATOM     23  C16 UNL     1       9.023   2.770  23.355  0.00  0.00    +0.193 C 
ATOM     24  C17 UNL     1       9.529   1.410  23.872  0.00  0.00    +0.050 C 
ATOM     25  C18 UNL     1       9.719   1.431  25.396  0.00  0.00    +0.034 C 
ATOM     26  C19 UNL     1       8.542   2.047  26.099  0.00  0.00    +0.011 C 
ATOM     27  C20 UNL     1       7.716   2.887  25.470  0.00  0.00    +0.183 C 
ATOM     28  O2  UNL     1       7.883   3.188  24.111  0.00  0.00    -0.495 OA
ENDBRANCH  22  23
ENDBRANCH  13  22
TORSDOF 4
ENDMDL
