REMARK  Name = /home/qwerty/github/datacon2025hack/step_04_hit_selection/docking/ligands/lig_777.pdb
REMARK  5 active torsions:
REMARK  status: ('A' for Active; 'I' for Inactive)
REMARK    1  A    between atoms: C1_1  and  C2_2
REMARK    2  A    between atoms: C5_5  and  C6_6
REMARK    3  A    between atoms: C7_8  and  C8_9
REMARK    4  A    between atoms: C12_13  and  N2_14
REMARK    5  A    between atoms: C17_23  and  C18_24
REMARK                            x       y       z     vdW  Elec       q    Type
REMARK                         _______ _______ _______ _____ _____    ______ ____
ROOT
ATOM      1  C6  UNL     1       2.222   1.274  -0.118  0.00  0.00    +0.260 A 
ATOM      2  N1  UNL     1       0.966   0.810   0.036  0.00  0.00    -0.187 NA
ATOM      3  C7  UNL     1       0.268   1.948   0.229  0.00  0.00    +0.202 A 
ATOM      4  N4  UNL     1       1.057   3.040   0.195  0.00  0.00    -0.056 NA
ATOM      5  O2  UNL     1       2.252   2.583  -0.021  0.00  0.00    -0.332 OA
ENDROOT
BRANCH   1  10
ATOM      6  C1  UNL     1       6.980  -1.850  -1.110  0.00  0.00    +0.065 C 
ATOM      7  C2  UNL     1       5.754  -1.041  -0.831  0.00  0.00    +0.039 A 
ATOM      8  C3  UNL     1       5.823   0.351  -0.766  0.00  0.00    +0.024 A 
ATOM      9  C4  UNL     1       4.661   1.084  -0.530  0.00  0.00    +0.017 A 
ATOM     10  C5  UNL     1       3.424   0.437  -0.366  0.00  0.00    +0.060 A 
ATOM     11  C17 UNL     1       3.397  -0.982  -0.450  0.00  0.00    +0.051 A 
ATOM     12  C18 UNL     1       2.139  -1.786  -0.295  0.00  0.00    +0.066 C 
ATOM     13  N5  UNL     1       4.555  -1.661  -0.682  0.00  0.00    -0.256 NA
ENDBRANCH   1  10
BRANCH   3  14
ATOM     14  C8  UNL     1      -1.192   1.990   0.453  0.00  0.00    +0.024 A 
ATOM     15  C9  UNL     1      -1.846   3.215   0.662  0.00  0.00    +0.012 A 
ATOM     16  C10 UNL     1      -3.227   3.252   0.861  0.00  0.00    +0.003 A 
ATOM     17  C11 UNL     1      -3.970   2.070   0.860  0.00  0.00    +0.023 A 
ATOM     18  C12 UNL     1      -3.336   0.831   0.668  0.00  0.00    +0.038 A 
ATOM     19  C16 UNL     1      -1.946   0.802   0.453  0.00  0.00    +0.035 A 
BRANCH  18  20
ATOM     20  N2  UNL     1      -4.111  -0.385   0.660  0.00  0.00    -0.254 N 
ATOM     21  C13 UNL     1      -5.488  -0.506   0.183  0.00  0.00    +0.134 C 
ATOM     22  C14 UNL     1      -5.820  -2.019   0.222  0.00  0.00    +0.125 C 
ATOM     23  N3  UNL     1      -4.650  -2.668   0.793  0.00  0.00    -0.297 N 
ATOM     24  C15 UNL     1      -3.678  -1.679   1.037  0.00  0.00    +0.307 C 
ATOM     25  O1  UNL     1      -2.573  -1.924   1.590  0.00  0.00    -0.252 OA
ATOM     26  H13 UNL     1      -4.548  -3.689   0.989  0.00  0.00    +0.150 HD
ENDBRANCH  18  20
ENDBRANCH   3  14
TORSDOF 3
