REMARK  Name = /home/qwerty/github/datacon2025hack/step_04_hit_selection/docking/ligands/lig_719.pdb
REMARK  3 active torsions:
REMARK  status: ('A' for Active; 'I' for Inactive)
REMARK    1  A    between atoms: C1_1  and  C2_2
REMARK    2  A    between atoms: C7_8  and  N2_9
REMARK    3  A    between atoms: C8_10  and  C9_12
REMARK                            x       y       z     vdW  Elec       q    Type
REMARK                         _______ _______ _______ _____ _____    ______ ____
ROOT
ATOM      1  C1  UNL     1      -6.184   1.350  -0.733  0.00  0.00    +0.044 C 
ATOM      2  C2  UNL     1      -5.029   0.426  -0.479  0.00  0.00    -0.037 A 
ATOM      3  C3  UNL     1      -3.746   0.919  -0.158  0.00  0.00    +0.047 A 
ATOM      4  C4  UNL     1      -2.674   0.018   0.089  0.00  0.00    +0.124 A 
ATOM      5  N1  UNL     1      -1.356   0.500   0.417  0.00  0.00    -0.313 N 
ATOM      6  C5  UNL     1      -0.965   1.901   0.420  0.00  0.00    +0.108 C 
ATOM      7  C6  UNL     1       0.541   1.907   0.648  0.00  0.00    +0.043 C 
ATOM      8  C7  UNL     1       0.871   0.533   1.236  0.00  0.00    +0.092 C 
ATOM      9  C14 UNL     1      -0.256  -0.386   0.760  0.00  0.00    +0.128 C 
ATOM     10  N7  UNL     1      -2.895  -1.332   0.020  0.00  0.00    -0.215 NA
ATOM     11  C15 UNL     1      -4.132  -1.794  -0.286  0.00  0.00    +0.140 A 
ATOM     12  N8  UNL     1      -4.491  -3.082  -0.384  0.00  0.00    -0.346 N 
ATOM     13  C16 UNL     1      -5.806  -3.066  -0.699  0.00  0.00    +0.085 A 
ATOM     14  C17 UNL     1      -6.275  -1.758  -0.800  0.00  0.00    +0.029 A 
ATOM     15  C18 UNL     1      -5.182  -0.959  -0.531  0.00  0.00    +0.022 A 
ATOM     16  H16 UNL     1      -3.885  -3.921  -0.245  0.00  0.00    +0.167 HD
ENDROOT
BRANCH   8  17
ATOM     17  N2  UNL     1       2.194   0.066   0.806  0.00  0.00    -0.307 N 
ATOM     18  C8  UNL     1       3.401   0.703   1.255  0.00  0.00    +0.246 C 
ATOM     19  O1  UNL     1       3.345   1.564   2.176  0.00  0.00    -0.270 OA
ATOM     20  H10 UNL     1       2.268  -0.800   0.226  0.00  0.00    +0.149 HD
BRANCH  18  21
ATOM     21  C9  UNL     1       4.716   0.355   0.667  0.00  0.00    +0.057 A 
ATOM     22  C10 UNL     1       5.915   0.611   1.397  0.00  0.00    +0.126 A 
ATOM     23  N3  UNL     1       7.140   0.306   0.867  0.00  0.00    -0.234 NA
ATOM     24  C11 UNL     1       7.185  -0.242  -0.369  0.00  0.00    +0.176 A 
ATOM     25  N4  UNL     1       8.260  -0.602  -1.075  0.00  0.00    -0.240 N 
ATOM     26  N5  UNL     1       7.800  -1.069  -2.233  0.00  0.00    -0.066 NA
ATOM     27  N6  UNL     1       6.467  -1.016  -2.284  0.00  0.00    -0.128 NA
ATOM     28  C12 UNL     1       6.083  -0.495  -1.105  0.00  0.00    +0.132 A 
ATOM     29  C13 UNL     1       4.811  -0.209  -0.630  0.00  0.00    +0.048 A 
ATOM     30  H12 UNL     1       9.265  -0.536  -0.801  0.00  0.00    +0.192 HD
ENDBRANCH  18  21
ENDBRANCH   8  17
TORSDOF 2
