MODEL 1
REMARK VINA RESULT:    -7.081      0.000      0.000
REMARK INTER + INTRA:          -9.898
REMARK INTER:                  -9.151
REMARK INTRA:                  -0.747
REMARK UNBOUND:                -0.747
REMARK  Name = /home/qwerty/github/datacon2025hack/step_04_hit_selection/docking/ligands/lig_269.pdb
REMARK  5 active torsions:
REMARK  status: ('A' for Active; 'I' for Inactive)
REMARK    1  A    between atoms: C1_2  and  C21_27
REMARK    2  A    between atoms: N1_3  and  C2_4
REMARK    3  A    between atoms: C5_7  and  C6_8
REMARK    4  A    between atoms: C7_10  and  C8_11
REMARK    5  A    between atoms: C12_15  and  C13_16
REMARK                            x       y       z     vdW  Elec       q    Type
REMARK                         _______ _______ _______ _____ _____    ______ ____
ROOT
ATOM      1  C6  UNL     1      20.044   6.305  21.180  0.00  0.00    +0.259 A 
ATOM      2  N2  UNL     1      19.567   7.546  21.408  0.00  0.00    -0.187 NA
ATOM      3  C7  UNL     1      19.169   7.915  20.171  0.00  0.00    +0.202 A 
ATOM      4  N4  UNL     1      19.394   6.953  19.253  0.00  0.00    -0.056 NA
ATOM      5  O2  UNL     1      19.934   5.976  19.916  0.00  0.00    -0.332 OA
ENDROOT
BRANCH   1   9
ATOM      6  C2  UNL     1      21.691   3.749  24.214  0.00  0.00    +0.033 A 
ATOM      7  C3  UNL     1      20.714   3.268  23.330  0.00  0.00    +0.024 A 
ATOM      8  C4  UNL     1      20.176   4.102  22.346  0.00  0.00    +0.015 A 
ATOM      9  C5  UNL     1      20.616   5.430  22.221  0.00  0.00    +0.040 A 
ATOM     10  C19 UNL     1      21.610   5.906  23.091  0.00  0.00    +0.015 A 
ATOM     11  C20 UNL     1      22.147   5.071  24.076  0.00  0.00    +0.024 A 
BRANCH   6  14
ATOM     12  O1  UNL     1      20.535   3.099  26.779  0.00  0.00    -0.275 OA
ATOM     13  C1  UNL     1      21.716   2.734  26.538  0.00  0.00    +0.220 C 
ATOM     14  N1  UNL     1      22.245   2.864  25.203  0.00  0.00    -0.285 N 
ATOM     15  H1  UNL     1      23.002   2.216  24.893  0.00  0.00    +0.155 HD
BRANCH  13  16
ATOM     16  C21 UNL     1      22.511   2.136  27.675  0.00  0.00    +0.075 C 
ATOM     17  C22 UNL     1      21.813   2.102  29.027  0.00  0.00    +0.013 C 
ATOM     18  C23 UNL     1      22.035   0.810  28.251  0.00  0.00    +0.013 C 
ENDBRANCH  13  16
ENDBRANCH   6  14
ENDBRANCH   1   9
BRANCH   3  19
ATOM     19  C8  UNL     1      18.557   9.225  19.860  0.00  0.00    +0.023 A 
ATOM     20  C9  UNL     1      17.192   9.313  19.539  0.00  0.00    +0.012 A 
ATOM     21  C10 UNL     1      16.615  10.550  19.249  0.00  0.00    +0.001 A 
ATOM     22  C11 UNL     1      17.389  11.712  19.274  0.00  0.00    +0.008 A 
ATOM     23  C12 UNL     1      18.757  11.649  19.591  0.00  0.00    -0.017 A 
ATOM     24  C18 UNL     1      19.332  10.398  19.884  0.00  0.00    +0.020 A 
BRANCH  23  25
ATOM     25  C13 UNL     1      19.582  12.884  19.616  0.00  0.00    -0.015 A 
ATOM     26  C14 UNL     1      19.563  13.736  20.734  0.00  0.00    +0.028 A 
ATOM     27  C15 UNL     1      20.347  14.892  20.737  0.00  0.00    +0.111 A 
ATOM     28  N3  UNL     1      21.125  15.192  19.663  0.00  0.00    -0.263 NA
ATOM     29  C16 UNL     1      21.166  14.389  18.567  0.00  0.00    +0.111 A 
ATOM     30  C17 UNL     1      20.397  13.223  18.523  0.00  0.00    +0.028 A 
ENDBRANCH  23  25
ENDBRANCH   3  19
TORSDOF 5
ENDMDL
MODEL 2
REMARK VINA RESULT:    -7.065     12.506     16.397
REMARK INTER + INTRA:          -9.877
REMARK INTER:                  -9.086
REMARK INTRA:                  -0.792
REMARK UNBOUND:                -0.747
REMARK  Name = /home/qwerty/github/datacon2025hack/step_04_hit_selection/docking/ligands/lig_269.pdb
REMARK  5 active torsions:
REMARK  status: ('A' for Active; 'I' for Inactive)
REMARK    1  A    between atoms: C1_2  and  C21_27
REMARK    2  A    between atoms: N1_3  and  C2_4
REMARK    3  A    between atoms: C5_7  and  C6_8
REMARK    4  A    between atoms: C7_10  and  C8_11
REMARK    5  A    between atoms: C12_15  and  C13_16
REMARK                            x       y       z     vdW  Elec       q    Type
REMARK                         _______ _______ _______ _____ _____    ______ ____
ROOT
ATOM      1  C6  UNL     1      20.262   8.674  36.681  0.00  0.00    +0.259 A 
ATOM      2  N2  UNL     1      20.598   8.204  35.463  0.00  0.00    -0.187 NA
ATOM      3  C7  UNL     1      21.593   7.343  35.770  0.00  0.00    +0.202 A 
ATOM      4  N4  UNL     1      21.841   7.299  37.095  0.00  0.00    -0.056 NA
ATOM      5  O2  UNL     1      20.998   8.134  37.621  0.00  0.00    -0.332 OA
ENDROOT
BRANCH   1   9
ATOM      6  C2  UNL     1      17.157  11.558  37.388  0.00  0.00    +0.033 A 
ATOM      7  C3  UNL     1      17.157  10.330  38.065  0.00  0.00    +0.024 A 
ATOM      8  C4  UNL     1      18.165   9.390  37.831  0.00  0.00    +0.015 A 
ATOM      9  C5  UNL     1      19.200   9.669  36.924  0.00  0.00    +0.040 A 
ATOM     10  C19 UNL     1      19.214  10.908  36.262  0.00  0.00    +0.015 A 
ATOM     11  C20 UNL     1      18.204  11.847  36.497  0.00  0.00    +0.024 A 
BRANCH   6  14
ATOM     12  O1  UNL     1      14.570  11.705  36.115  0.00  0.00    -0.275 OA
ATOM     13  C1  UNL     1      14.932  12.654  36.860  0.00  0.00    +0.220 C 
ATOM     14  N1  UNL     1      16.120  12.516  37.664  0.00  0.00    -0.285 N 
ATOM     15  H1  UNL     1      16.198  13.060  38.551  0.00  0.00    +0.155 HD
BRANCH  13  16
ATOM     16  C21 UNL     1      14.062  13.889  36.896  0.00  0.00    +0.075 C 
ATOM     17  C22 UNL     1      14.750  15.197  36.535  0.00  0.00    +0.013 C 
ATOM     18  C23 UNL     1      13.748  14.572  35.572  0.00  0.00    +0.013 C 
ENDBRANCH  13  16
ENDBRANCH   6  14
ENDBRANCH   1   9
BRANCH   3  19
ATOM     19  C8  UNL     1      22.326   6.541  34.766  0.00  0.00    +0.023 A 
ATOM     20  C9  UNL     1      23.590   6.956  34.312  0.00  0.00    +0.012 A 
ATOM     21  C10 UNL     1      24.283   6.197  33.368  0.00  0.00    +0.001 A 
ATOM     22  C11 UNL     1      23.726   5.020  32.865  0.00  0.00    +0.008 A 
ATOM     23  C12 UNL     1      22.463   4.586  33.302  0.00  0.00    -0.017 A 
ATOM     24  C18 UNL     1      21.770   5.355  34.256  0.00  0.00    +0.020 A 
BRANCH  23  25
ATOM     25  C13 UNL     1      21.869   3.334  32.766  0.00  0.00    -0.015 A 
ATOM     26  C14 UNL     1      20.964   2.582  33.535  0.00  0.00    +0.028 A 
ATOM     27  C15 UNL     1      20.417   1.409  33.011  0.00  0.00    +0.111 A 
ATOM     28  N3  UNL     1      20.758   0.996  31.762  0.00  0.00    -0.263 NA
ATOM     29  C16 UNL     1      21.630   1.699  30.992  0.00  0.00    +0.111 A 
ATOM     30  C17 UNL     1      22.200   2.878  31.478  0.00  0.00    +0.028 A 
ENDBRANCH  23  25
ENDBRANCH   3  19
TORSDOF 5
ENDMDL
MODEL 3
REMARK VINA RESULT:    -7.024      7.710     12.055
REMARK INTER + INTRA:          -9.823
REMARK INTER:                  -9.027
REMARK INTRA:                  -0.797
REMARK UNBOUND:                -0.747
REMARK  Name = /home/qwerty/github/datacon2025hack/step_04_hit_selection/docking/ligands/lig_269.pdb
REMARK  5 active torsions:
REMARK  status: ('A' for Active; 'I' for Inactive)
REMARK    1  A    between atoms: C1_2  and  C21_27
REMARK    2  A    between atoms: N1_3  and  C2_4
REMARK    3  A    between atoms: C5_7  and  C6_8
REMARK    4  A    between atoms: C7_10  and  C8_11
REMARK    5  A    between atoms: C12_15  and  C13_16
REMARK                            x       y       z     vdW  Elec       q    Type
REMARK                         _______ _______ _______ _____ _____    ______ ____
ROOT
ATOM      1  C6  UNL     1      14.552   1.602  21.095  0.00  0.00    +0.259 A 
ATOM      2  N2  UNL     1      15.050   1.409  22.333  0.00  0.00    -0.187 NA
ATOM      3  C7  UNL     1      16.004   0.482  22.099  0.00  0.00    +0.202 A 
ATOM      4  N4  UNL     1      16.075   0.137  20.797  0.00  0.00    -0.056 NA
ATOM      5  O2  UNL     1      15.163   0.851  20.211  0.00  0.00    -0.332 OA
ENDROOT
BRANCH   1   9
ATOM      6  C2  UNL     1      11.355   4.318  20.166  0.00  0.00    +0.033 A 
ATOM      7  C3  UNL     1      11.170   3.294  21.106  0.00  0.00    +0.024 A 
ATOM      8  C4  UNL     1      12.210   2.408  21.404  0.00  0.00    +0.015 A 
ATOM      9  C5  UNL     1      13.458   2.540  20.776  0.00  0.00    +0.040 A 
ATOM     10  C19 UNL     1      13.652   3.578  19.851  0.00  0.00    +0.015 A 
ATOM     11  C20 UNL     1      12.612   4.464  19.553  0.00  0.00    +0.024 A 
BRANCH   6  14
ATOM     12  O1  UNL     1      10.963   6.919  21.357  0.00  0.00    -0.275 OA
ATOM     13  C1  UNL     1      10.035   6.425  20.662  0.00  0.00    +0.220 C 
ATOM     14  N1  UNL     1      10.277   5.230  19.894  0.00  0.00    -0.285 N 
ATOM     15  H1  UNL     1       9.714   5.059  19.033  0.00  0.00    +0.155 HD
BRANCH  13  16
ATOM     16  C21 UNL     1       8.710   7.150  20.648  0.00  0.00    +0.075 C 
ATOM     17  C22 UNL     1       7.491   6.313  21.004  0.00  0.00    +0.013 C 
ATOM     18  C23 UNL     1       8.005   7.365  21.979  0.00  0.00    +0.013 C 
ENDBRANCH  13  16
ENDBRANCH   6  14
ENDBRANCH   1   9
BRANCH   3  19
ATOM     19  C8  UNL     1      16.872  -0.090  23.152  0.00  0.00    +0.023 A 
ATOM     20  C9  UNL     1      16.662  -1.402  23.609  0.00  0.00    +0.012 A 
ATOM     21  C10 UNL     1      17.483  -1.942  24.600  0.00  0.00    +0.001 A 
ATOM     22  C11 UNL     1      18.519  -1.183  25.147  0.00  0.00    +0.008 A 
ATOM     23  C12 UNL     1      18.748   0.132  24.706  0.00  0.00    -0.017 A 
ATOM     24  C18 UNL     1      17.917   0.670  23.706  0.00  0.00    +0.020 A 
BRANCH  23  25
ATOM     25  C13 UNL     1      19.850   0.941  25.288  0.00  0.00    -0.015 A 
ATOM     26  C14 UNL     1      20.399   2.021  24.577  0.00  0.00    +0.028 A 
ATOM     27  C15 UNL     1      21.434   2.769  25.144  0.00  0.00    +0.111 A 
ATOM     28  N3  UNL     1      21.908   2.452  26.377  0.00  0.00    -0.263 NA
ATOM     29  C16 UNL     1      21.399   1.414  27.091  0.00  0.00    +0.111 A 
ATOM     30  C17 UNL     1      20.363   0.641  26.561  0.00  0.00    +0.028 A 
ENDBRANCH  23  25
ENDBRANCH   3  19
TORSDOF 5
ENDMDL
MODEL 4
REMARK VINA RESULT:    -7.009     13.142     14.671
REMARK INTER + INTRA:          -9.804
REMARK INTER:                  -8.997
REMARK INTRA:                  -0.807
REMARK UNBOUND:                -0.747
REMARK  Name = /home/qwerty/github/datacon2025hack/step_04_hit_selection/docking/ligands/lig_269.pdb
REMARK  5 active torsions:
REMARK  status: ('A' for Active; 'I' for Inactive)
REMARK    1  A    between atoms: C1_2  and  C21_27
REMARK    2  A    between atoms: N1_3  and  C2_4
REMARK    3  A    between atoms: C5_7  and  C6_8
REMARK    4  A    between atoms: C7_10  and  C8_11
REMARK    5  A    between atoms: C12_15  and  C13_16
REMARK                            x       y       z     vdW  Elec       q    Type
REMARK                         _______ _______ _______ _____ _____    ______ ____
ROOT
ATOM      1  C6  UNL     1      16.526  12.766  36.202  0.00  0.00    +0.259 A 
ATOM      2  N2  UNL     1      15.537  12.575  35.306  0.00  0.00    -0.187 NA
ATOM      3  C7  UNL     1      14.644  13.515  35.684  0.00  0.00    +0.202 A 
ATOM      4  N4  UNL     1      15.070  14.228  36.746  0.00  0.00    -0.056 NA
ATOM      5  O2  UNL     1      16.236  13.736  37.035  0.00  0.00    -0.332 OA
ENDROOT
BRANCH   1   9
ATOM      6  C2  UNL     1      20.171  10.493  36.294  0.00  0.00    +0.033 A 
ATOM      7  C3  UNL     1      20.146  11.779  35.734  0.00  0.00    +0.024 A 
ATOM      8  C4  UNL     1      18.958  12.515  35.700  0.00  0.00    +0.015 A 
ATOM      9  C5  UNL     1      17.776  11.983  36.240  0.00  0.00    +0.040 A 
ATOM     10  C19 UNL     1      17.805  10.705  36.821  0.00  0.00    +0.015 A 
ATOM     11  C20 UNL     1      18.993   9.969  36.854  0.00  0.00    +0.024 A 
BRANCH   6  14
ATOM     12  O1  UNL     1      21.226   8.776  34.226  0.00  0.00    -0.275 OA
ATOM     13  C1  UNL     1      21.785   8.777  35.355  0.00  0.00    +0.220 C 
ATOM     14  N1  UNL     1      21.410   9.765  36.336  0.00  0.00    -0.285 N 
ATOM     15  H1  UNL     1      22.106  10.050  37.059  0.00  0.00    +0.155 HD
BRANCH  13  16
ATOM     16  C21 UNL     1      22.860   7.746  35.605  0.00  0.00    +0.075 C 
ATOM     17  C22 UNL     1      22.658   6.857  36.824  0.00  0.00    +0.013 C 
ATOM     18  C23 UNL     1      22.492   6.280  35.423  0.00  0.00    +0.013 C 
ENDBRANCH  13  16
ENDBRANCH   6  14
ENDBRANCH   1   9
BRANCH   3  19
ATOM     19  C8  UNL     1      13.345  13.734  35.011  0.00  0.00    +0.023 A 
ATOM     20  C9  UNL     1      12.161  13.818  35.762  0.00  0.00    +0.012 A 
ATOM     21  C10 UNL     1      10.937  14.029  35.126  0.00  0.00    +0.001 A 
ATOM     22  C11 UNL     1      10.877  14.157  33.737  0.00  0.00    +0.008 A 
ATOM     23  C12 UNL     1      12.049  14.075  32.964  0.00  0.00    -0.017 A 
ATOM     24  C18 UNL     1      13.280  13.863  33.612  0.00  0.00    +0.020 A 
BRANCH  23  25
ATOM     25  C13 UNL     1      11.986  14.209  31.486  0.00  0.00    -0.015 A 
ATOM     26  C14 UNL     1      13.024  14.840  30.778  0.00  0.00    +0.028 A 
ATOM     27  C15 UNL     1      12.946  14.955  29.389  0.00  0.00    +0.111 A 
ATOM     28  N3  UNL     1      11.870  14.459  28.723  0.00  0.00    -0.263 NA
ATOM     29  C16 UNL     1      10.849  13.843  29.377  0.00  0.00    +0.111 A 
ATOM     30  C17 UNL     1      10.889  13.707  30.766  0.00  0.00    +0.028 A 
ENDBRANCH  23  25
ENDBRANCH   3  19
TORSDOF 5
ENDMDL
MODEL 5
REMARK VINA RESULT:    -7.002      4.760     10.579
REMARK INTER + INTRA:          -9.796
REMARK INTER:                  -9.038
REMARK INTRA:                  -0.758
REMARK UNBOUND:                -0.747
REMARK  Name = /home/qwerty/github/datacon2025hack/step_04_hit_selection/docking/ligands/lig_269.pdb
REMARK  5 active torsions:
REMARK  status: ('A' for Active; 'I' for Inactive)
REMARK    1  A    between atoms: C1_2  and  C21_27
REMARK    2  A    between atoms: N1_3  and  C2_4
REMARK    3  A    between atoms: C5_7  and  C6_8
REMARK    4  A    between atoms: C7_10  and  C8_11
REMARK    5  A    between atoms: C12_15  and  C13_16
REMARK                            x       y       z     vdW  Elec       q    Type
REMARK                         _______ _______ _______ _____ _____    ______ ____
ROOT
ATOM      1  C6  UNL     1      18.043   7.737  19.017  0.00  0.00    +0.259 A 
ATOM      2  N2  UNL     1      16.923   7.221  19.563  0.00  0.00    -0.187 NA
ATOM      3  C7  UNL     1      17.032   5.918  19.223  0.00  0.00    +0.202 A 
ATOM      4  N4  UNL     1      18.150   5.666  18.513  0.00  0.00    -0.056 NA
ATOM      5  O2  UNL     1      18.747   6.814  18.409  0.00  0.00    -0.332 OA
ENDROOT
BRANCH   1   9
ATOM      6  C2  UNL     1      19.143  11.884  19.240  0.00  0.00    +0.033 A 
ATOM      7  C3  UNL     1      17.858  11.466  19.617  0.00  0.00    +0.024 A 
ATOM      8  C4  UNL     1      17.500  10.116  19.539  0.00  0.00    +0.015 A 
ATOM      9  C5  UNL     1      18.427   9.159  19.096  0.00  0.00    +0.040 A 
ATOM     10  C19 UNL     1      19.720   9.573  18.740  0.00  0.00    +0.015 A 
ATOM     11  C20 UNL     1      20.078  10.923  18.816  0.00  0.00    +0.024 A 
BRANCH   6  14
ATOM     12  O1  UNL     1      20.565  13.130  21.422  0.00  0.00    -0.275 OA
ATOM     13  C1  UNL     1      20.031  13.865  20.550  0.00  0.00    +0.220 C 
ATOM     14  N1  UNL     1      19.494  13.274  19.350  0.00  0.00    -0.285 N 
ATOM     15  H1  UNL     1      19.448  13.848  18.479  0.00  0.00    +0.155 HD
BRANCH  13  16
ATOM     16  C21 UNL     1      20.018  15.354  20.802  0.00  0.00    +0.075 C 
ATOM     17  C22 UNL     1      20.377  15.792  22.214  0.00  0.00    +0.013 C 
ATOM     18  C23 UNL     1      21.350  16.039  21.068  0.00  0.00    +0.013 C 
ENDBRANCH  13  16
ENDBRANCH   6  14
ENDBRANCH   1   9
BRANCH   3  19
ATOM     19  C8  UNL     1      16.035   4.886  19.586  0.00  0.00    +0.023 A 
ATOM     20  C9  UNL     1      14.661   5.172  19.520  0.00  0.00    +0.012 A 
ATOM     21  C10 UNL     1      13.722   4.198  19.859  0.00  0.00    +0.001 A 
ATOM     22  C11 UNL     1      14.139   2.930  20.270  0.00  0.00    +0.008 A 
ATOM     23  C12 UNL     1      15.509   2.621  20.345  0.00  0.00    -0.017 A 
ATOM     24  C18 UNL     1      16.450   3.609  20.000  0.00  0.00    +0.020 A 
BRANCH  23  25
ATOM     25  C13 UNL     1      15.954   1.273  20.783  0.00  0.00    -0.015 A 
ATOM     26  C14 UNL     1      16.102   0.976  22.149  0.00  0.00    +0.028 A 
ATOM     27  C15 UNL     1      16.521  -0.298  22.540  0.00  0.00    +0.111 A 
ATOM     28  N3  UNL     1      16.784  -1.246  21.603  0.00  0.00    -0.263 NA
ATOM     29  C16 UNL     1      16.651  -0.991  20.274  0.00  0.00    +0.111 A 
ATOM     30  C17 UNL     1      16.234   0.270  19.841  0.00  0.00    +0.028 A 
ENDBRANCH  23  25
ENDBRANCH   3  19
TORSDOF 5
ENDMDL
MODEL 6
REMARK VINA RESULT:    -6.891      2.508      3.948
REMARK INTER + INTRA:          -9.652
REMARK INTER:                  -8.853
REMARK INTRA:                  -0.798
REMARK UNBOUND:                -0.747
REMARK  Name = /home/qwerty/github/datacon2025hack/step_04_hit_selection/docking/ligands/lig_269.pdb
REMARK  5 active torsions:
REMARK  status: ('A' for Active; 'I' for Inactive)
REMARK    1  A    between atoms: C1_2  and  C21_27
REMARK    2  A    between atoms: N1_3  and  C2_4
REMARK    3  A    between atoms: C5_7  and  C6_8
REMARK    4  A    between atoms: C7_10  and  C8_11
REMARK    5  A    between atoms: C12_15  and  C13_16
REMARK                            x       y       z     vdW  Elec       q    Type
REMARK                         _______ _______ _______ _____ _____    ______ ____
ROOT
ATOM      1  C6  UNL     1      21.574   4.970  23.385  0.00  0.00    +0.259 A 
ATOM      2  N2  UNL     1      22.511   5.920  23.190  0.00  0.00    -0.187 NA
ATOM      3  C7  UNL     1      22.043   6.536  22.082  0.00  0.00    +0.202 A 
ATOM      4  N4  UNL     1      20.894   5.988  21.638  0.00  0.00    -0.056 NA
ATOM      5  O2  UNL     1      20.638   5.025  22.470  0.00  0.00    -0.332 OA
ENDROOT
BRANCH   1   9
ATOM      6  C2  UNL     1      21.669   2.125  26.604  0.00  0.00    +0.033 A 
ATOM      7  C3  UNL     1      22.543   3.222  26.596  0.00  0.00    +0.024 A 
ATOM      8  C4  UNL     1      22.515   4.145  25.545  0.00  0.00    +0.015 A 
ATOM      9  C5  UNL     1      21.600   3.993  24.491  0.00  0.00    +0.040 A 
ATOM     10  C19 UNL     1      20.710   2.907  24.509  0.00  0.00    +0.015 A 
ATOM     11  C20 UNL     1      20.739   1.985  25.559  0.00  0.00    +0.024 A 
BRANCH   6  14
ATOM     12  O1  UNL     1      19.985   2.188  28.948  0.00  0.00    -0.275 OA
ATOM     13  C1  UNL     1      20.970   1.403  28.932  0.00  0.00    +0.220 C 
ATOM     14  N1  UNL     1      21.703   1.204  27.707  0.00  0.00    -0.285 N 
ATOM     15  H1  UNL     1      22.206   0.301  27.559  0.00  0.00    +0.155 HD
BRANCH  13  16
ATOM     16  C21 UNL     1      21.308   0.677  30.213  0.00  0.00    +0.075 C 
ATOM     17  C22 UNL     1      21.148   1.481  31.495  0.00  0.00    +0.013 C 
ATOM     18  C23 UNL     1      20.168   0.360  31.170  0.00  0.00    +0.013 C 
ENDBRANCH  13  16
ENDBRANCH   6  14
ENDBRANCH   1   9
BRANCH   3  19
ATOM     19  C8  UNL     1      22.717   7.681  21.430  0.00  0.00    +0.023 A 
ATOM     20  C9  UNL     1      24.117   7.712  21.321  0.00  0.00    +0.012 A 
ATOM     21  C10 UNL     1      24.752   8.791  20.704  0.00  0.00    +0.001 A 
ATOM     22  C11 UNL     1      24.001   9.850  20.190  0.00  0.00    +0.008 A 
ATOM     23  C12 UNL     1      22.598   9.841  20.289  0.00  0.00    -0.017 A 
ATOM     24  C18 UNL     1      21.965   8.750  20.912  0.00  0.00    +0.020 A 
BRANCH  23  25
ATOM     25  C13 UNL     1      21.798  10.968  19.744  0.00  0.00    -0.015 A 
ATOM     26  C14 UNL     1      22.397  12.215  19.489  0.00  0.00    +0.028 A 
ATOM     27  C15 UNL     1      21.626  13.261  18.976  0.00  0.00    +0.111 A 
ATOM     28  N3  UNL     1      20.304  13.075  18.724  0.00  0.00    -0.263 NA
ATOM     29  C16 UNL     1      19.695  11.883  18.960  0.00  0.00    +0.111 A 
ATOM     30  C17 UNL     1      20.429  10.810  19.472  0.00  0.00    +0.028 A 
ENDBRANCH  23  25
ENDBRANCH   3  19
TORSDOF 5
ENDMDL
MODEL 7
REMARK VINA RESULT:    -6.840      1.399      2.025
REMARK INTER + INTRA:          -9.586
REMARK INTER:                  -8.825
REMARK INTRA:                  -0.761
REMARK UNBOUND:                -0.747
REMARK  Name = /home/qwerty/github/datacon2025hack/step_04_hit_selection/docking/ligands/lig_269.pdb
REMARK  5 active torsions:
REMARK  status: ('A' for Active; 'I' for Inactive)
REMARK    1  A    between atoms: C1_2  and  C21_27
REMARK    2  A    between atoms: N1_3  and  C2_4
REMARK    3  A    between atoms: C5_7  and  C6_8
REMARK    4  A    between atoms: C7_10  and  C8_11
REMARK    5  A    between atoms: C12_15  and  C13_16
REMARK                            x       y       z     vdW  Elec       q    Type
REMARK                         _______ _______ _______ _____ _____    ______ ____
ROOT
ATOM      1  C6  UNL     1      21.708   6.317  22.721  0.00  0.00    +0.259 A 
ATOM      2  N2  UNL     1      20.559   6.873  22.287  0.00  0.00    -0.187 NA
ATOM      3  C7  UNL     1      21.019   7.809  21.428  0.00  0.00    +0.202 A 
ATOM      4  N4  UNL     1      22.365   7.816  21.351  0.00  0.00    -0.056 NA
ATOM      5  O2  UNL     1      22.752   6.880  22.163  0.00  0.00    -0.332 OA
ENDROOT
BRANCH   1   9
ATOM      6  C2  UNL     1      21.899   3.106  25.568  0.00  0.00    +0.033 A 
ATOM      7  C3  UNL     1      20.962   3.078  24.524  0.00  0.00    +0.024 A 
ATOM      8  C4  UNL     1      20.898   4.126  23.601  0.00  0.00    +0.015 A 
ATOM      9  C5  UNL     1      21.780   5.215  23.698  0.00  0.00    +0.040 A 
ATOM     10  C19 UNL     1      22.733   5.232  24.730  0.00  0.00    +0.015 A 
ATOM     11  C20 UNL     1      22.796   4.184  25.653  0.00  0.00    +0.024 A 
BRANCH   6  14
ATOM     12  O1  UNL     1      20.846   3.056  28.256  0.00  0.00    -0.275 OA
ATOM     13  C1  UNL     1      21.588   2.111  27.879  0.00  0.00    +0.220 C 
ATOM     14  N1  UNL     1      21.959   2.004  26.491  0.00  0.00    -0.285 N 
ATOM     15  H1  UNL     1      22.187   1.065  26.098  0.00  0.00    +0.155 HD
BRANCH  13  16
ATOM     16  C21 UNL     1      22.022   1.104  28.919  0.00  0.00    +0.075 C 
ATOM     17  C22 UNL     1      23.507   1.087  29.248  0.00  0.00    +0.013 C 
ATOM     18  C23 UNL     1      22.509   1.636  30.259  0.00  0.00    +0.013 C 
ENDBRANCH  13  16
ENDBRANCH   6  14
ENDBRANCH   1   9
BRANCH   3  19
ATOM     19  C8  UNL     1      20.144   8.724  20.661  0.00  0.00    +0.023 A 
ATOM     20  C9  UNL     1      18.948   8.253  20.095  0.00  0.00    +0.012 A 
ATOM     21  C10 UNL     1      18.122   9.116  19.374  0.00  0.00    +0.001 A 
ATOM     22  C11 UNL     1      18.477  10.456  19.208  0.00  0.00    +0.008 A 
ATOM     23  C12 UNL     1      19.670  10.950  19.764  0.00  0.00    -0.017 A 
ATOM     24  C18 UNL     1      20.498  10.074  20.490  0.00  0.00    +0.020 A 
BRANCH  23  25
ATOM     25  C13 UNL     1      20.051  12.375  19.586  0.00  0.00    -0.015 A 
ATOM     26  C14 UNL     1      20.930  12.760  18.559  0.00  0.00    +0.028 A 
ATOM     27  C15 UNL     1      21.274  14.105  18.409  0.00  0.00    +0.111 A 
ATOM     28  N3  UNL     1      20.761  15.038  19.253  0.00  0.00    -0.263 NA
ATOM     29  C16 UNL     1      19.908  14.700  20.256  0.00  0.00    +0.111 A 
ATOM     30  C17 UNL     1      19.538  13.365  20.441  0.00  0.00    +0.028 A 
ENDBRANCH  23  25
ENDBRANCH   3  19
TORSDOF 5
ENDMDL
MODEL 8
REMARK VINA RESULT:    -6.806      9.047     12.050
REMARK INTER + INTRA:          -9.542
REMARK INTER:                  -8.792
REMARK INTRA:                  -0.750
REMARK UNBOUND:                -0.747
REMARK  Name = /home/qwerty/github/datacon2025hack/step_04_hit_selection/docking/ligands/lig_269.pdb
REMARK  5 active torsions:
REMARK  status: ('A' for Active; 'I' for Inactive)
REMARK    1  A    between atoms: C1_2  and  C21_27
REMARK    2  A    between atoms: N1_3  and  C2_4
REMARK    3  A    between atoms: C5_7  and  C6_8
REMARK    4  A    between atoms: C7_10  and  C8_11
REMARK    5  A    between atoms: C12_15  and  C13_16
REMARK                            x       y       z     vdW  Elec       q    Type
REMARK                         _______ _______ _______ _____ _____    ______ ____
ROOT
ATOM      1  C6  UNL     1      16.290  15.672  27.095  0.00  0.00    +0.259 A 
ATOM      2  N2  UNL     1      17.388  15.051  27.572  0.00  0.00    -0.187 NA
ATOM      3  C7  UNL     1      18.377  15.757  26.981  0.00  0.00    +0.202 A 
ATOM      4  N4  UNL     1      17.901  16.744  26.195  0.00  0.00    -0.056 NA
ATOM      5  O2  UNL     1      16.610  16.658  26.293  0.00  0.00    -0.332 OA
ENDROOT
BRANCH   1   9
ATOM      6  C2  UNL     1      12.266  14.547  28.094  0.00  0.00    +0.033 A 
ATOM      7  C3  UNL     1      13.256  14.609  29.086  0.00  0.00    +0.024 A 
ATOM      8  C4  UNL     1      14.567  14.971  28.759  0.00  0.00    +0.015 A 
ATOM      9  C5  UNL     1      14.906  15.291  27.434  0.00  0.00    +0.040 A 
ATOM     10  C19 UNL     1      13.911  15.250  26.445  0.00  0.00    +0.015 A 
ATOM     11  C20 UNL     1      12.601  14.888  26.772  0.00  0.00    +0.024 A 
BRANCH   6  14
ATOM     12  O1  UNL     1      11.000  11.980  27.717  0.00  0.00    -0.275 OA
ATOM     13  C1  UNL     1      10.290  12.959  28.071  0.00  0.00    +0.220 C 
ATOM     14  N1  UNL     1      10.921  14.194  28.461  0.00  0.00    -0.285 N 
ATOM     15  H1  UNL     1      10.427  14.827  29.127  0.00  0.00    +0.155 HD
BRANCH  13  16
ATOM     16  C21 UNL     1       8.792  12.763  28.099  0.00  0.00    +0.075 C 
ATOM     17  C22 UNL     1       8.241  12.031  29.314  0.00  0.00    +0.013 C 
ATOM     18  C23 UNL     1       7.998  13.526  29.150  0.00  0.00    +0.013 C 
ENDBRANCH  13  16
ENDBRANCH   6  14
ENDBRANCH   1   9
BRANCH   3  19
ATOM     19  C8  UNL     1      19.817  15.477  27.174  0.00  0.00    +0.023 A 
ATOM     20  C9  UNL     1      20.364  15.431  28.467  0.00  0.00    +0.012 A 
ATOM     21  C10 UNL     1      21.721  15.164  28.649  0.00  0.00    +0.001 A 
ATOM     22  C11 UNL     1      22.549  14.941  27.547  0.00  0.00    +0.008 A 
ATOM     23  C12 UNL     1      22.024  14.984  26.243  0.00  0.00    -0.017 A 
ATOM     24  C18 UNL     1      20.654  15.252  26.068  0.00  0.00    +0.020 A 
BRANCH  23  25
ATOM     25  C13 UNL     1      22.904  14.748  25.070  0.00  0.00    -0.015 A 
ATOM     26  C14 UNL     1      22.625  13.714  24.160  0.00  0.00    +0.028 A 
ATOM     27  C15 UNL     1      23.465  13.511  23.063  0.00  0.00    +0.111 A 
ATOM     28  N3  UNL     1      24.549  14.309  22.876  0.00  0.00    -0.263 NA
ATOM     29  C16 UNL     1      24.847  15.318  23.737  0.00  0.00    +0.111 A 
ATOM     30  C17 UNL     1      24.033  15.556  24.847  0.00  0.00    +0.028 A 
ENDBRANCH  23  25
ENDBRANCH   3  19
TORSDOF 5
ENDMDL
MODEL 9
REMARK VINA RESULT:    -6.796     12.967     14.486
REMARK INTER + INTRA:          -9.529
REMARK INTER:                  -8.730
REMARK INTRA:                  -0.800
REMARK UNBOUND:                -0.747
REMARK  Name = /home/qwerty/github/datacon2025hack/step_04_hit_selection/docking/ligands/lig_269.pdb
REMARK  5 active torsions:
REMARK  status: ('A' for Active; 'I' for Inactive)
REMARK    1  A    between atoms: C1_2  and  C21_27
REMARK    2  A    between atoms: N1_3  and  C2_4
REMARK    3  A    between atoms: C5_7  and  C6_8
REMARK    4  A    between atoms: C7_10  and  C8_11
REMARK    5  A    between atoms: C12_15  and  C13_16
REMARK                            x       y       z     vdW  Elec       q    Type
REMARK                         _______ _______ _______ _____ _____    ______ ____
ROOT
ATOM      1  C6  UNL     1      10.067  12.592  30.079  0.00  0.00    +0.259 A 
ATOM      2  N2  UNL     1      10.010  11.418  29.418  0.00  0.00    -0.187 NA
ATOM      3  C7  UNL     1       9.019  11.656  28.531  0.00  0.00    +0.202 A 
ATOM      4  N4  UNL     1       8.511  12.899  28.652  0.00  0.00    -0.056 NA
ATOM      5  O2  UNL     1       9.185  13.445  29.618  0.00  0.00    -0.332 OA
ENDROOT
BRANCH   1   9
ATOM      6  C2  UNL     1      12.790  13.419  33.298  0.00  0.00    +0.033 A 
ATOM      7  C3  UNL     1      12.392  12.103  33.021  0.00  0.00    +0.024 A 
ATOM      8  C4  UNL     1      11.502  11.836  31.976  0.00  0.00    +0.015 A 
ATOM      9  C5  UNL     1      11.006  12.881  31.181  0.00  0.00    +0.040 A 
ATOM     10  C19 UNL     1      11.421  14.196  31.443  0.00  0.00    +0.015 A 
ATOM     11  C20 UNL     1      12.310  14.463  32.488  0.00  0.00    +0.024 A 
BRANCH   6  14
ATOM     12  O1  UNL     1      12.146  13.893  36.072  0.00  0.00    -0.275 OA
ATOM     13  C1  UNL     1      13.329  14.085  35.685  0.00  0.00    +0.220 C 
ATOM     14  N1  UNL     1      13.724  13.665  34.364  0.00  0.00    -0.285 N 
ATOM     15  H1  UNL     1      14.724  13.424  34.186  0.00  0.00    +0.155 HD
BRANCH  13  16
ATOM     16  C21 UNL     1      14.291  14.722  36.660  0.00  0.00    +0.075 C 
ATOM     17  C22 UNL     1      15.682  15.019  36.122  0.00  0.00    +0.013 C 
ATOM     18  C23 UNL     1      14.712  16.161  36.401  0.00  0.00    +0.013 C 
ENDBRANCH  13  16
ENDBRANCH   6  14
ENDBRANCH   1   9
BRANCH   3  19
ATOM     19  C8  UNL     1       8.545  10.664  27.541  0.00  0.00    +0.023 A 
ATOM     20  C9  UNL     1       7.692   9.620  27.935  0.00  0.00    +0.012 A 
ATOM     21  C10 UNL     1       7.243   8.686  27.000  0.00  0.00    +0.001 A 
ATOM     22  C11 UNL     1       7.639   8.781  25.664  0.00  0.00    +0.008 A 
ATOM     23  C12 UNL     1       8.493   9.816  25.247  0.00  0.00    -0.017 A 
ATOM     24  C18 UNL     1       8.941  10.754  26.195  0.00  0.00    +0.020 A 
BRANCH  23  25
ATOM     25  C13 UNL     1       8.917   9.916  23.826  0.00  0.00    -0.015 A 
ATOM     26  C14 UNL     1       7.966   9.885  22.791  0.00  0.00    +0.028 A 
ATOM     27  C15 UNL     1       8.386   9.982  21.462  0.00  0.00    +0.111 A 
ATOM     28  N3  UNL     1       9.708  10.105  21.172  0.00  0.00    -0.263 NA
ATOM     29  C16 UNL     1      10.652  10.137  22.149  0.00  0.00    +0.111 A 
ATOM     30  C17 UNL     1      10.275  10.044  23.491  0.00  0.00    +0.028 A 
ENDBRANCH  23  25
ENDBRANCH   3  19
TORSDOF 5
ENDMDL
