REMARK  Name = /home/qwerty/github/datacon2025hack/step_04_hit_selection/docking/ligands/lig_366.pdb
REMARK  5 active torsions:
REMARK  status: ('A' for Active; 'I' for Inactive)
REMARK    1  A    between atoms: C1_1  and  C2_2
REMARK    2  A    between atoms: C2_2  and  C3_3
REMARK    3  A    between atoms: C2_2  and  C4_4
REMARK    4  A    between atoms: C7_8  and  C8_9
REMARK    5  A    between atoms: C13_17  and  C14_19
REMARK                            x       y       z     vdW  Elec       q    Type
REMARK                         _______ _______ _______ _____ _____    ______ ____
ROOT
ATOM      1  C8  UNL     1      -2.578  -1.016  -0.575  0.00  0.00    +0.248 C 
ATOM      2  O1  UNL     1      -3.420  -1.425  -1.418  0.00  0.00    -0.270 OA
ATOM      3  N2  UNL     1      -1.179  -1.303  -0.773  0.00  0.00    -0.297 N 
ATOM      4  C9  UNL     1      -0.799  -2.457  -1.601  0.00  0.00    +0.108 C 
ATOM      5  C10 UNL     1       0.709  -2.720  -1.538  0.00  0.00    +0.024 C 
ATOM      6  C11 UNL     1       1.499  -1.443  -1.888  0.00  0.00    +0.014 C 
ATOM      7  C12 UNL     1       2.989  -1.576  -1.554  0.00  0.00    +0.112 C 
ATOM      8  N3  UNL     1       3.329  -0.428  -0.731  0.00  0.00    -0.296 N 
ATOM      9  C13 UNL     1       4.693  -0.080  -0.436  0.00  0.00    +0.263 C 
ATOM     10  O2  UNL     1       5.611  -0.444  -1.219  0.00  0.00    -0.268 OA
ATOM     11  C18 UNL     1       2.208   0.464  -0.484  0.00  0.00    +0.113 C 
ATOM     12  C19 UNL     1       0.988  -0.179  -1.154  0.00  0.00    +0.028 C 
ATOM     13  C20 UNL     1      -0.137  -0.478  -0.142  0.00  0.00    +0.113 C 
ENDROOT
BRANCH   9  14
ATOM     14  C14 UNL     1       5.055   0.700   0.762  0.00  0.00    +0.105 A 
ATOM     15  C15 UNL     1       4.406   0.665   1.985  0.00  0.00    +0.070 A 
ATOM     16  C16 UNL     1       5.132   1.495   2.812  0.00  0.00    +0.141 A 
ATOM     17  F1  UNL     1       4.874   1.746   4.119  0.00  0.00    -0.204 F 
ATOM     18  C17 UNL     1       6.191   1.988   2.084  0.00  0.00    +0.121 A 
ATOM     19  N4  UNL     1       6.144   1.492   0.834  0.00  0.00    -0.355 N 
ATOM     20  H20 UNL     1       6.829   1.686   0.069  0.00  0.00    +0.166 HD
ENDBRANCH   9  14
BRANCH   1  25
ATOM     21  C4  UNL     1      -3.963   0.746   0.726  0.00  0.00    +0.031 A 
ATOM     22  N1  UNL     1      -4.119   1.074   2.025  0.00  0.00    -0.364 N 
ATOM     23  C5  UNL     1      -3.323   0.268   2.748  0.00  0.00    +0.083 A 
ATOM     24  C6  UNL     1      -2.643  -0.596   1.917  0.00  0.00    +0.032 A 
ATOM     25  C7  UNL     1      -3.051  -0.305   0.628  0.00  0.00    +0.058 A 
ATOM     26  H8  UNL     1      -4.736   1.825   2.408  0.00  0.00    +0.165 HD
BRANCH  21  28
ATOM     27  C1  UNL     1      -5.891   0.708  -0.891  0.00  0.00    +0.013 C 
ATOM     28  C2  UNL     1      -4.679   1.492  -0.381  0.00  0.00    +0.030 C 
ATOM     29  C3  UNL     1      -3.739   1.901  -1.522  0.00  0.00    +0.013 C 
ENDBRANCH  21  28
ENDBRANCH   1  25
TORSDOF 3
