REMARK  Name = /home/qwerty/github/datacon2025hack/step_04_hit_selection/docking/ligands/lig_755.pdb
REMARK  8 active torsions:
REMARK  status: ('A' for Active; 'I' for Inactive)
REMARK    1  A    between atoms: C1_1  and  O1_2
REMARK    2  A    between atoms: O1_2  and  C2_3
REMARK    3  A    between atoms: C2_3  and  C3_5
REMARK    4  A    between atoms: C5_7  and  C6_8
REMARK    5  A    between atoms: N2_24  and  C20_25
REMARK    6  A    between atoms: C23_29  and  N3_30
REMARK    7  A    between atoms: N3_30  and  C24_31
REMARK    8  A    between atoms: N3_30  and  C25_32
REMARK                            x       y       z     vdW  Elec       q    Type
REMARK                         _______ _______ _______ _____ _____    ______ ____
ROOT
ATOM      1  C6  UNL     1       1.402  -0.917  -1.779  0.00  0.00    +0.247 C 
ATOM      2  O3  UNL     1       1.466  -1.842  -2.631  0.00  0.00    -0.270 OA
ATOM      3  N1  UNL     1       0.113  -0.401  -1.385  0.00  0.00    -0.297 N 
ATOM      4  C7  UNL     1      -1.026  -0.446  -2.307  0.00  0.00    +0.109 C 
ATOM      5  C8  UNL     1      -2.118  -1.347  -1.726  0.00  0.00    +0.035 C 
ATOM      6  C9  UNL     1      -2.573  -0.884  -0.316  0.00  0.00    +0.054 C 
ATOM      7  C10 UNL     1      -1.318  -0.731   0.609  0.00  0.00    +0.035 C 
ATOM      8  C11 UNL     1      -0.149   0.053  -0.014  0.00  0.00    +0.109 C 
ATOM      9  C12 UNL     1      -3.474  -2.007   0.289  0.00  0.00    +0.051 C 
ATOM     10  C13 UNL     1      -4.335  -1.513   1.428  0.00  0.00    -0.042 A 
ATOM     11  C14 UNL     1      -3.962  -1.769   2.756  0.00  0.00    +0.004 A 
ATOM     12  C15 UNL     1      -4.705  -1.233   3.808  0.00  0.00    +0.000 A 
ATOM     13  C16 UNL     1      -5.822  -0.436   3.545  0.00  0.00    +0.000 A 
ATOM     14  C17 UNL     1      -6.195  -0.163   2.227  0.00  0.00    +0.005 A 
ATOM     15  C18 UNL     1      -5.445  -0.687   1.157  0.00  0.00    -0.027 A 
ATOM     16  C19 UNL     1      -5.780  -0.311  -0.269  0.00  0.00    +0.142 C 
ATOM     17  N2  UNL     1      -4.720   0.515  -0.878  0.00  0.00    -0.300 N 
ATOM     18  C20 UNL     1      -5.124   1.652  -1.709  0.00  0.00    +0.132 C 
ATOM     19  C21 UNL     1      -3.338   0.450  -0.447  0.00  0.00    +0.222 C 
ATOM     20  O4  UNL     1      -2.734   1.536  -0.228  0.00  0.00    -0.275 OA
ENDROOT
BRANCH   1  23
ATOM     21  C3  UNL     1       4.948  -0.756  -0.442  0.00  0.00    +0.061 A 
ATOM     22  C4  UNL     1       3.758  -1.238  -1.009  0.00  0.00    +0.028 A 
ATOM     23  C5  UNL     1       2.662  -0.386  -1.205  0.00  0.00    +0.039 A 
ATOM     24  C22 UNL     1       2.778   0.972  -0.871  0.00  0.00    +0.036 A 
ATOM     25  C23 UNL     1       3.960   1.481  -0.299  0.00  0.00    +0.031 A 
ATOM     26  C26 UNL     1       5.038   0.599  -0.088  0.00  0.00    +0.038 A 
BRANCH  25  27
ATOM     27  N3  UNL     1       4.065   2.881   0.073  0.00  0.00    -0.336 N 
ATOM     28  C24 UNL     1       5.379   3.526   0.199  0.00  0.00    +0.129 C 
ATOM     29  C25 UNL     1       2.858   3.678   0.334  0.00  0.00    +0.129 C 
ENDBRANCH  25  27
BRANCH  21  30
ATOM     30  C2  UNL     1       6.086  -1.665  -0.188  0.00  0.00    +0.339 C 
ATOM     31  O2  UNL     1       6.073  -2.841  -0.640  0.00  0.00    -0.245 OA
BRANCH  30  33
ATOM     32  C1  UNL     1       8.267  -2.060   0.910  0.00  0.00    +0.280 C 
ATOM     33  O1  UNL     1       7.178  -1.217   0.560  0.00  0.00    -0.464 OA
ENDBRANCH  30  33
ENDBRANCH  21  30
ENDBRANCH   1  23
TORSDOF 4
