MODEL 1
REMARK VINA RESULT:    -6.186      0.000      0.000
REMARK INTER + INTRA:          -9.766
REMARK INTER:                  -8.356
REMARK INTRA:                  -1.410
REMARK UNBOUND:                -1.410
REMARK  Name = /home/qwerty/github/datacon2025hack/step_04_hit_selection/docking/ligands/lig_713.pdb
REMARK  8 active torsions:
REMARK  status: ('A' for Active; 'I' for Inactive)
REMARK    1  A    between atoms: C1_1  and  O1_2
REMARK    2  A    between atoms: O1_2  and  C2_3
REMARK    3  A    between atoms: C5_6  and  C6_7
REMARK    4  A    between atoms: C11_15  and  C12_16
REMARK    5  A    between atoms: C12_16  and  N4_17
REMARK    6  A    between atoms: C13_18  and  C14_19
REMARK    7  A    between atoms: N5_22  and  C16_23
REMARK    8  A    between atoms: C16_23  and  C17_24
REMARK                            x       y       z     vdW  Elec       q    Type
REMARK                         _______ _______ _______ _____ _____    ______ ____
ROOT
ATOM      1  C6  UNL     1      23.402  15.363  24.734  0.00  0.00    +0.165 A 
ATOM      2  N1  UNL     1      24.556  15.964  24.381  0.00  0.00    -0.128 NA
ATOM      3  N2  UNL     1      24.558  16.057  23.061  0.00  0.00    -0.113 NA
ATOM      4  C7  UNL     1      23.408  15.509  22.629  0.00  0.00    +0.220 A 
ATOM      5  N3  UNL     1      23.029  15.491  21.242  0.00  0.00    -0.299 N 
ATOM      6  C8  UNL     1      23.283  16.685  20.422  0.00  0.00    +0.108 C 
ATOM      7  C9  UNL     1      22.879  16.458  18.961  0.00  0.00    +0.019 C 
ATOM      8  C10 UNL     1      23.518  15.174  18.409  0.00  0.00    +0.008 C 
ATOM      9  C11 UNL     1      23.349  13.944  19.349  0.00  0.00    +0.024 C 
ATOM     10  C15 UNL     1      22.527  14.264  20.615  0.00  0.00    +0.113 C 
ATOM     11  N5  UNL     1      22.645  15.060  23.653  0.00  0.00    -0.295 N 
ENDROOT
BRANCH   1  15
ATOM     12  C2  UNL     1      22.291  14.728  28.828  0.00  0.00    +0.120 A 
ATOM     13  C3  UNL     1      23.122  13.807  28.162  0.00  0.00    +0.046 A 
ATOM     14  C4  UNL     1      23.473  14.012  26.824  0.00  0.00    +0.015 A 
ATOM     15  C5  UNL     1      23.013  15.145  26.139  0.00  0.00    +0.020 A 
ATOM     16  C21 UNL     1      22.161  16.047  26.793  0.00  0.00    +0.015 A 
ATOM     17  C22 UNL     1      21.809  15.840  28.129  0.00  0.00    +0.046 A 
BRANCH  12  19
ATOM     18  C1  UNL     1      21.827  15.646  31.108  0.00  0.00    +0.277 C 
ATOM     19  O1  UNL     1      21.921  14.576  30.172  0.00  0.00    -0.495 OA
ENDBRANCH  12  19
ENDBRANCH   1  15
BRANCH   9  20
ATOM     20  C12 UNL     1      22.800  12.705  18.610  0.00  0.00    +0.109 C 
BRANCH  20  21
ATOM     21  N4  UNL     1      21.336  12.671  18.608  0.00  0.00    -0.315 N 
ATOM     22  C13 UNL     1      20.576  11.583  19.152  0.00  0.00    +0.210 C 
ATOM     23  C14 UNL     1      19.083  11.651  19.170  0.00  0.00    +0.109 C 
ATOM     24  O2  UNL     1      21.157  10.590  19.670  0.00  0.00    -0.276 OA
ATOM     25  H15 UNL     1      20.822  13.470  18.172  0.00  0.00    +0.149 HD
ENDBRANCH  20  21
ENDBRANCH   9  20
BRANCH  11  26
ATOM     26  C16 UNL     1      21.215  14.717  23.644  0.00  0.00    +0.132 C 
BRANCH  26  27
ATOM     27  C17 UNL     1      21.016  13.194  23.752  0.00  0.00    +0.037 C 
ATOM     28  C18 UNL     1      20.056  12.658  22.729  0.00  0.00    +0.035 C 
ATOM     29  C19 UNL     1      19.455  11.452  23.428  0.00  0.00    +0.160 C 
ATOM     30  O3  UNL     1      19.652  11.566  24.821  0.00  0.00    -0.379 OA
ATOM     31  C20 UNL     1      20.370  12.754  25.054  0.00  0.00    +0.165 C 
ENDBRANCH  26  27
ENDBRANCH  11  26
TORSDOF 6
ENDMDL
MODEL 2
REMARK VINA RESULT:    -6.019     12.862     14.737
REMARK INTER + INTRA:          -9.540
REMARK INTER:                  -8.140
REMARK INTRA:                  -1.400
REMARK UNBOUND:                -1.410
REMARK  Name = /home/qwerty/github/datacon2025hack/step_04_hit_selection/docking/ligands/lig_713.pdb
REMARK  8 active torsions:
REMARK  status: ('A' for Active; 'I' for Inactive)
REMARK    1  A    between atoms: C1_1  and  O1_2
REMARK    2  A    between atoms: O1_2  and  C2_3
REMARK    3  A    between atoms: C5_6  and  C6_7
REMARK    4  A    between atoms: C11_15  and  C12_16
REMARK    5  A    between atoms: C12_16  and  N4_17
REMARK    6  A    between atoms: C13_18  and  C14_19
REMARK    7  A    between atoms: N5_22  and  C16_23
REMARK    8  A    between atoms: C16_23  and  C17_24
REMARK                            x       y       z     vdW  Elec       q    Type
REMARK                         _______ _______ _______ _____ _____    ______ ____
ROOT
ATOM      1  C6  UNL     1      12.519   7.041  21.330  0.00  0.00    +0.165 A 
ATOM      2  N1  UNL     1      13.741   7.364  21.799  0.00  0.00    -0.128 NA
ATOM      3  N2  UNL     1      14.513   6.302  21.638  0.00  0.00    -0.113 NA
ATOM      4  C7  UNL     1      13.750   5.346  21.076  0.00  0.00    +0.220 A 
ATOM      5  N3  UNL     1      14.272   4.063  20.690  0.00  0.00    -0.299 N 
ATOM      6  C8  UNL     1      15.596   3.998  20.055  0.00  0.00    +0.108 C 
ATOM      7  C9  UNL     1      16.014   2.550  19.777  0.00  0.00    +0.019 C 
ATOM      8  C10 UNL     1      15.887   1.690  21.044  0.00  0.00    +0.008 C 
ATOM      9  C11 UNL     1      14.523   1.865  21.777  0.00  0.00    +0.024 C 
ATOM     10  C15 UNL     1      13.566   2.826  21.044  0.00  0.00    +0.113 C 
ATOM     11  N5  UNL     1      12.483   5.772  20.862  0.00  0.00    -0.295 N 
ENDROOT
BRANCH   1  15
ATOM     12  C2  UNL     1       9.277   9.847  21.211  0.00  0.00    +0.120 A 
ATOM     13  C3  UNL     1       9.402   8.945  22.285  0.00  0.00    +0.046 A 
ATOM     14  C4  UNL     1      10.455   8.025  22.314  0.00  0.00    +0.015 A 
ATOM     15  C5  UNL     1      11.402   8.003  21.282  0.00  0.00    +0.020 A 
ATOM     16  C21 UNL     1      11.261   8.881  20.198  0.00  0.00    +0.015 A 
ATOM     17  C22 UNL     1      10.208   9.798  20.168  0.00  0.00    +0.046 A 
BRANCH  12  19
ATOM     18  C1  UNL     1       7.483  11.240  22.259  0.00  0.00    +0.277 C 
ATOM     19  O1  UNL     1       8.249  10.798  21.141  0.00  0.00    -0.495 OA
ENDBRANCH  12  19
ENDBRANCH   1  15
BRANCH   9  20
ATOM     20  C12 UNL     1      13.845   0.515  22.094  0.00  0.00    +0.109 C 
BRANCH  20  21
ATOM     21  N4  UNL     1      12.405   0.549  21.827  0.00  0.00    -0.315 N 
ATOM     22  C13 UNL     1      11.417   0.652  22.863  0.00  0.00    +0.210 C 
ATOM     23  C14 UNL     1       9.969   0.744  22.505  0.00  0.00    +0.109 C 
ATOM     24  O2  UNL     1      11.763   0.723  24.074  0.00  0.00    -0.276 OA
ATOM     25  H15 UNL     1      12.083   0.475  20.835  0.00  0.00    +0.149 HD
ENDBRANCH  20  21
ENDBRANCH   9  20
BRANCH  11  26
ATOM     26  C16 UNL     1      11.457   5.181  19.988  0.00  0.00    +0.132 C 
BRANCH  26  27
ATOM     27  C17 UNL     1      10.433   4.378  20.811  0.00  0.00    +0.037 C 
ATOM     28  C18 UNL     1       9.036   4.913  20.683  0.00  0.00    +0.035 C 
ATOM     29  C19 UNL     1       8.411   4.548  22.017  0.00  0.00    +0.160 C 
ATOM     30  O3  UNL     1       9.428   4.297  22.964  0.00  0.00    -0.379 OA
ATOM     31  C20 UNL     1      10.665   4.450  22.310  0.00  0.00    +0.165 C 
ENDBRANCH  26  27
ENDBRANCH  11  26
TORSDOF 6
ENDMDL
MODEL 3
REMARK VINA RESULT:    -5.986     11.417     13.259
REMARK INTER + INTRA:          -9.496
REMARK INTER:                  -8.606
REMARK INTRA:                  -0.890
REMARK UNBOUND:                -1.410
REMARK  Name = /home/qwerty/github/datacon2025hack/step_04_hit_selection/docking/ligands/lig_713.pdb
REMARK  8 active torsions:
REMARK  status: ('A' for Active; 'I' for Inactive)
REMARK    1  A    between atoms: C1_1  and  O1_2
REMARK    2  A    between atoms: O1_2  and  C2_3
REMARK    3  A    between atoms: C5_6  and  C6_7
REMARK    4  A    between atoms: C11_15  and  C12_16
REMARK    5  A    between atoms: C12_16  and  N4_17
REMARK    6  A    between atoms: C13_18  and  C14_19
REMARK    7  A    between atoms: N5_22  and  C16_23
REMARK    8  A    between atoms: C16_23  and  C17_24
REMARK                            x       y       z     vdW  Elec       q    Type
REMARK                         _______ _______ _______ _____ _____    ______ ____
ROOT
ATOM      1  C6  UNL     1      19.922   2.824  24.628  0.00  0.00    +0.165 A 
ATOM      2  N1  UNL     1      20.664   3.389  23.654  0.00  0.00    -0.128 NA
ATOM      3  N2  UNL     1      19.845   3.666  22.652  0.00  0.00    -0.113 NA
ATOM      4  C7  UNL     1      18.618   3.264  23.028  0.00  0.00    +0.220 A 
ATOM      5  N3  UNL     1      17.451   3.467  22.214  0.00  0.00    -0.299 N 
ATOM      6  C8  UNL     1      17.296   4.744  21.502  0.00  0.00    +0.108 C 
ATOM      7  C9  UNL     1      16.032   4.753  20.635  0.00  0.00    +0.019 C 
ATOM      8  C10 UNL     1      15.988   3.519  19.720  0.00  0.00    +0.008 C 
ATOM      9  C11 UNL     1      16.278   2.183  20.466  0.00  0.00    +0.024 C 
ATOM     10  C15 UNL     1      16.497   2.376  21.980  0.00  0.00    +0.113 C 
ATOM     11  N5  UNL     1      18.620   2.728  24.272  0.00  0.00    -0.295 N 
ENDROOT
BRANCH   1  15
ATOM     12  C2  UNL     1      21.538   1.710  28.442  0.00  0.00    +0.120 A 
ATOM     13  C3  UNL     1      21.372   3.067  28.105  0.00  0.00    +0.046 A 
ATOM     14  C4  UNL     1      20.855   3.426  26.856  0.00  0.00    +0.015 A 
ATOM     15  C5  UNL     1      20.483   2.437  25.936  0.00  0.00    +0.020 A 
ATOM     16  C21 UNL     1      20.675   1.087  26.259  0.00  0.00    +0.015 A 
ATOM     17  C22 UNL     1      21.194   0.729  27.506  0.00  0.00    +0.046 A 
BRANCH  12  19
ATOM     18  C1  UNL     1      22.193   2.152  30.814  0.00  0.00    +0.277 C 
ATOM     19  O1  UNL     1      22.038   1.297  29.685  0.00  0.00    -0.495 OA
ENDBRANCH  12  19
ENDBRANCH   1  15
BRANCH   9  20
ATOM     20  C12 UNL     1      15.217   1.101  20.176  0.00  0.00    +0.109 C 
BRANCH  20  21
ATOM     21  N4  UNL     1      15.676   0.137  19.173  0.00  0.00    -0.315 N 
ATOM     22  C13 UNL     1      16.523  -0.978  19.486  0.00  0.00    +0.210 C 
ATOM     23  C14 UNL     1      16.897  -1.954  18.417  0.00  0.00    +0.109 C 
ATOM     24  O2  UNL     1      16.908  -1.178  20.671  0.00  0.00    -0.276 OA
ATOM     25  H15 UNL     1      15.389   0.282  18.179  0.00  0.00    +0.149 HD
ENDBRANCH  20  21
ENDBRANCH   9  20
BRANCH  11  26
ATOM     26  C16 UNL     1      17.475   2.488  25.164  0.00  0.00    +0.132 C 
BRANCH  26  27
ATOM     27  C17 UNL     1      16.903   1.074  24.952  0.00  0.00    +0.037 C 
ATOM     28  C18 UNL     1      16.422   0.443  26.227  0.00  0.00    +0.035 C 
ATOM     29  C19 UNL     1      16.628  -1.039  25.969  0.00  0.00    +0.160 C 
ATOM     30  O3  UNL     1      17.554  -1.213  24.918  0.00  0.00    -0.379 OA
ATOM     31  C20 UNL     1      17.931   0.067  24.466  0.00  0.00    +0.165 C 
ENDBRANCH  26  27
ENDBRANCH  11  26
TORSDOF 6
ENDMDL
MODEL 4
REMARK VINA RESULT:    -5.963     10.101     13.991
REMARK INTER + INTRA:          -9.465
REMARK INTER:                  -8.226
REMARK INTRA:                  -1.239
REMARK UNBOUND:                -1.410
REMARK  Name = /home/qwerty/github/datacon2025hack/step_04_hit_selection/docking/ligands/lig_713.pdb
REMARK  8 active torsions:
REMARK  status: ('A' for Active; 'I' for Inactive)
REMARK    1  A    between atoms: C1_1  and  O1_2
REMARK    2  A    between atoms: O1_2  and  C2_3
REMARK    3  A    between atoms: C5_6  and  C6_7
REMARK    4  A    between atoms: C11_15  and  C12_16
REMARK    5  A    between atoms: C12_16  and  N4_17
REMARK    6  A    between atoms: C13_18  and  C14_19
REMARK    7  A    between atoms: N5_22  and  C16_23
REMARK    8  A    between atoms: C16_23  and  C17_24
REMARK                            x       y       z     vdW  Elec       q    Type
REMARK                         _______ _______ _______ _____ _____    ______ ____
ROOT
ATOM      1  C6  UNL     1      18.127   9.362  36.229  0.00  0.00    +0.165 A 
ATOM      2  N1  UNL     1      17.809   8.066  36.424  0.00  0.00    -0.128 NA
ATOM      3  N2  UNL     1      18.945   7.391  36.482  0.00  0.00    -0.113 NA
ATOM      4  C7  UNL     1      19.939   8.284  36.318  0.00  0.00    +0.220 A 
ATOM      5  N3  UNL     1      21.328   7.921  36.391  0.00  0.00    -0.299 N 
ATOM      6  C8  UNL     1      21.759   6.968  37.424  0.00  0.00    +0.108 C 
ATOM      7  C9  UNL     1      23.254   6.650  37.305  0.00  0.00    +0.019 C 
ATOM      8  C10 UNL     1      23.610   6.222  35.873  0.00  0.00    +0.008 C 
ATOM      9  C11 UNL     1      23.039   7.174  34.781  0.00  0.00    +0.024 C 
ATOM     10  C15 UNL     1      22.279   8.379  35.372  0.00  0.00    +0.113 C 
ATOM     11  N5  UNL     1      19.467   9.542  36.157  0.00  0.00    -0.295 N 
ENDROOT
BRANCH   1  15
ATOM     12  C2  UNL     1      15.170  12.465  36.068  0.00  0.00    +0.120 A 
ATOM     13  C3  UNL     1      15.555  11.784  34.897  0.00  0.00    +0.046 A 
ATOM     14  C4  UNL     1      16.528  10.781  34.953  0.00  0.00    +0.015 A 
ATOM     15  C5  UNL     1      17.115  10.433  36.176  0.00  0.00    +0.020 A 
ATOM     16  C21 UNL     1      16.753  11.131  37.337  0.00  0.00    +0.015 A 
ATOM     17  C22 UNL     1      15.784  12.136  37.281  0.00  0.00    +0.046 A 
BRANCH  12  19
ATOM     18  C1  UNL     1      14.427  14.824  36.438  0.00  0.00    +0.277 C 
ATOM     19  O1  UNL     1      14.190  13.468  36.069  0.00  0.00    -0.495 OA
ENDBRANCH  12  19
ENDBRANCH   1  15
BRANCH   9  20
ATOM     20  C12 UNL     1      24.112   7.619  33.764  0.00  0.00    +0.109 C 
BRANCH  20  21
ATOM     21  N4  UNL     1      23.544   8.442  32.693  0.00  0.00    -0.315 N 
ATOM     22  C13 UNL     1      24.312   9.400  31.949  0.00  0.00    +0.210 C 
ATOM     23  C14 UNL     1      23.676  10.157  30.829  0.00  0.00    +0.109 C 
ATOM     24  O2  UNL     1      25.538   9.568  32.194  0.00  0.00    -0.276 OA
ATOM     25  H15 UNL     1      22.527   8.340  32.475  0.00  0.00    +0.149 HD
ENDBRANCH  20  21
ENDBRANCH   9  20
BRANCH  11  26
ATOM     26  C16 UNL     1      20.195  10.814  36.286  0.00  0.00    +0.132 C 
BRANCH  26  27
ATOM     27  C17 UNL     1      20.429  11.453  34.904  0.00  0.00    +0.037 C 
ATOM     28  C18 UNL     1      19.607  12.691  34.689  0.00  0.00    +0.035 C 
ATOM     29  C19 UNL     1      19.395  12.699  33.186  0.00  0.00    +0.160 C 
ATOM     30  O3  UNL     1      19.619  11.404  32.669  0.00  0.00    -0.379 OA
ATOM     31  C20 UNL     1      19.992  10.575  33.745  0.00  0.00    +0.165 C 
ENDBRANCH  26  27
ENDBRANCH  11  26
TORSDOF 6
ENDMDL
MODEL 5
REMARK VINA RESULT:    -5.860     12.725     14.984
REMARK INTER + INTRA:          -9.325
REMARK INTER:                  -8.060
REMARK INTRA:                  -1.266
REMARK UNBOUND:                -1.410
REMARK  Name = /home/qwerty/github/datacon2025hack/step_04_hit_selection/docking/ligands/lig_713.pdb
REMARK  8 active torsions:
REMARK  status: ('A' for Active; 'I' for Inactive)
REMARK    1  A    between atoms: C1_1  and  O1_2
REMARK    2  A    between atoms: O1_2  and  C2_3
REMARK    3  A    between atoms: C5_6  and  C6_7
REMARK    4  A    between atoms: C11_15  and  C12_16
REMARK    5  A    between atoms: C12_16  and  N4_17
REMARK    6  A    between atoms: C13_18  and  C14_19
REMARK    7  A    between atoms: N5_22  and  C16_23
REMARK    8  A    between atoms: C16_23  and  C17_24
REMARK                            x       y       z     vdW  Elec       q    Type
REMARK                         _______ _______ _______ _____ _____    ______ ____
ROOT
ATOM      1  C6  UNL     1       8.231   8.880  27.265  0.00  0.00    +0.165 A 
ATOM      2  N1  UNL     1       7.187   8.159  27.721  0.00  0.00    -0.128 NA
ATOM      3  N2  UNL     1       7.112   7.068  26.975  0.00  0.00    -0.113 NA
ATOM      4  C7  UNL     1       8.109   7.141  26.075  0.00  0.00    +0.220 A 
ATOM      5  N3  UNL     1       8.382   6.090  25.133  0.00  0.00    -0.299 N 
ATOM      6  C8  UNL     1       8.299   4.693  25.584  0.00  0.00    +0.108 C 
ATOM      7  C9  UNL     1       8.554   3.716  24.432  0.00  0.00    +0.019 C 
ATOM      8  C10 UNL     1       7.653   4.038  23.230  0.00  0.00    +0.008 C 
ATOM      9  C11 UNL     1       7.654   5.546  22.841  0.00  0.00    +0.024 C 
ATOM     10  C15 UNL     1       8.605   6.391  23.714  0.00  0.00    +0.113 C 
ATOM     11  N5  UNL     1       8.843   8.269  26.223  0.00  0.00    -0.295 N 
ENDROOT
BRANCH   1  15
ATOM     12  C2  UNL     1       9.481  12.550  29.100  0.00  0.00    +0.120 A 
ATOM     13  C3  UNL     1       8.663  12.566  27.954  0.00  0.00    +0.046 A 
ATOM     14  C4  UNL     1       8.267  11.368  27.352  0.00  0.00    +0.015 A 
ATOM     15  C5  UNL     1       8.668  10.139  27.895  0.00  0.00    +0.020 A 
ATOM     16  C21 UNL     1       9.506  10.123  29.018  0.00  0.00    +0.015 A 
ATOM     17  C22 UNL     1       9.903  11.321  29.617  0.00  0.00    +0.046 A 
BRANCH  12  19
ATOM     18  C1  UNL     1      10.874  13.768  30.781  0.00  0.00    +0.277 C 
ATOM     19  O1  UNL     1       9.894  13.722  29.748  0.00  0.00    -0.495 OA
ENDBRANCH  12  19
ENDBRANCH   1  15
BRANCH   9  20
ATOM     20  C12 UNL     1       7.912   5.769  21.336  0.00  0.00    +0.109 C 
BRANCH  20  21
ATOM     21  N4  UNL     1       8.875   6.847  21.098  0.00  0.00    -0.315 N 
ATOM     22  C13 UNL     1      10.145   6.638  20.463  0.00  0.00    +0.210 C 
ATOM     23  C14 UNL     1      11.047   7.800  20.199  0.00  0.00    +0.109 C 
ATOM     24  O2  UNL     1      10.485   5.488  20.072  0.00  0.00    -0.276 OA
ATOM     25  H15 UNL     1       8.632   7.809  21.424  0.00  0.00    +0.149 HD
ENDBRANCH  20  21
ENDBRANCH   9  20
BRANCH  11  26
ATOM     26  C16 UNL     1      10.182   8.563  25.688  0.00  0.00    +0.132 C 
BRANCH  26  27
ATOM     27  C17 UNL     1      10.131   9.753  24.711  0.00  0.00    +0.037 C 
ATOM     28  C18 UNL     1       8.956   9.691  23.779  0.00  0.00    +0.035 C 
ATOM     29  C19 UNL     1       9.468  10.404  22.541  0.00  0.00    +0.160 C 
ATOM     30  O3  UNL     1      10.880  10.425  22.557  0.00  0.00    -0.379 OA
ATOM     31  C20 UNL     1      11.302   9.797  23.744  0.00  0.00    +0.165 C 
ENDBRANCH  26  27
ENDBRANCH  11  26
TORSDOF 6
ENDMDL
MODEL 6
REMARK VINA RESULT:    -5.849     13.155     15.888
REMARK INTER + INTRA:          -9.310
REMARK INTER:                  -7.883
REMARK INTRA:                  -1.427
REMARK UNBOUND:                -1.410
REMARK  Name = /home/qwerty/github/datacon2025hack/step_04_hit_selection/docking/ligands/lig_713.pdb
REMARK  8 active torsions:
REMARK  status: ('A' for Active; 'I' for Inactive)
REMARK    1  A    between atoms: C1_1  and  O1_2
REMARK    2  A    between atoms: O1_2  and  C2_3
REMARK    3  A    between atoms: C5_6  and  C6_7
REMARK    4  A    between atoms: C11_15  and  C12_16
REMARK    5  A    between atoms: C12_16  and  N4_17
REMARK    6  A    between atoms: C13_18  and  C14_19
REMARK    7  A    between atoms: N5_22  and  C16_23
REMARK    8  A    between atoms: C16_23  and  C17_24
REMARK                            x       y       z     vdW  Elec       q    Type
REMARK                         _______ _______ _______ _____ _____    ______ ____
ROOT
ATOM      1  C6  UNL     1      14.197   9.716  36.045  0.00  0.00    +0.165 A 
ATOM      2  N1  UNL     1      13.975   8.495  35.517  0.00  0.00    -0.128 NA
ATOM      3  N2  UNL     1      15.074   7.783  35.708  0.00  0.00    -0.113 NA
ATOM      4  C7  UNL     1      15.950   8.580  36.346  0.00  0.00    +0.220 A 
ATOM      5  N3  UNL     1      17.241   8.122  36.783  0.00  0.00    -0.299 N 
ATOM      6  C8  UNL     1      17.355   6.780  37.374  0.00  0.00    +0.108 C 
ATOM      7  C9  UNL     1      18.810   6.440  37.715  0.00  0.00    +0.019 C 
ATOM      8  C10 UNL     1      19.724   6.667  36.501  0.00  0.00    +0.008 C 
ATOM      9  C11 UNL     1      19.504   8.044  35.808  0.00  0.00    +0.024 C 
ATOM     10  C15 UNL     1      18.448   8.913  36.521  0.00  0.00    +0.113 C 
ATOM     11  N5  UNL     1      15.436   9.810  36.582  0.00  0.00    -0.295 N 
ENDROOT
BRANCH   1  15
ATOM     12  C2  UNL     1      11.192  12.776  36.126  0.00  0.00    +0.120 A 
ATOM     13  C3  UNL     1      12.089  12.684  35.044  0.00  0.00    +0.046 A 
ATOM     14  C4  UNL     1      13.074  11.691  35.028  0.00  0.00    +0.015 A 
ATOM     15  C5  UNL     1      13.167  10.770  36.079  0.00  0.00    +0.020 A 
ATOM     16  C21 UNL     1      12.293  10.880  37.170  0.00  0.00    +0.015 A 
ATOM     17  C22 UNL     1      11.311  11.873  37.188  0.00  0.00    +0.046 A 
BRANCH  12  19
ATOM     18  C1  UNL     1       9.843  14.624  35.117  0.00  0.00    +0.277 C 
ATOM     19  O1  UNL     1      10.179  13.743  36.185  0.00  0.00    -0.495 OA
ENDBRANCH  12  19
ENDBRANCH   1  15
BRANCH   9  20
ATOM     20  C12 UNL     1      20.823   8.814  35.589  0.00  0.00    +0.109 C 
BRANCH  20  21
ATOM     21  N4  UNL     1      20.762  10.173  36.131  0.00  0.00    -0.315 N 
ATOM     22  C13 UNL     1      20.554  11.335  35.315  0.00  0.00    +0.210 C 
ATOM     23  C14 UNL     1      20.441  12.683  35.951  0.00  0.00    +0.109 C 
ATOM     24  O2  UNL     1      20.407  11.224  34.067  0.00  0.00    -0.276 OA
ATOM     25  H15 UNL     1      20.896  10.303  37.159  0.00  0.00    +0.149 HD
ENDBRANCH  20  21
ENDBRANCH   9  20
BRANCH  11  26
ATOM     26  C16 UNL     1      15.916  10.835  37.522  0.00  0.00    +0.132 C 
BRANCH  26  27
ATOM     27  C17 UNL     1      16.612  11.985  36.770  0.00  0.00    +0.037 C 
ATOM     28  C18 UNL     1      15.840  13.272  36.830  0.00  0.00    +0.035 C 
ATOM     29  C19 UNL     1      16.223  13.957  35.532  0.00  0.00    +0.160 C 
ATOM     30  O3  UNL     1      16.731  13.002  34.624  0.00  0.00    -0.379 OA
ATOM     31  C20 UNL     1      16.726  11.753  35.273  0.00  0.00    +0.165 C 
ENDBRANCH  26  27
ENDBRANCH  11  26
TORSDOF 6
ENDMDL
MODEL 7
REMARK VINA RESULT:    -5.801     12.630     14.318
REMARK INTER + INTRA:          -9.245
REMARK INTER:                  -7.684
REMARK INTRA:                  -1.561
REMARK UNBOUND:                -1.410
REMARK  Name = /home/qwerty/github/datacon2025hack/step_04_hit_selection/docking/ligands/lig_713.pdb
REMARK  8 active torsions:
REMARK  status: ('A' for Active; 'I' for Inactive)
REMARK    1  A    between atoms: C1_1  and  O1_2
REMARK    2  A    between atoms: O1_2  and  C2_3
REMARK    3  A    between atoms: C5_6  and  C6_7
REMARK    4  A    between atoms: C11_15  and  C12_16
REMARK    5  A    between atoms: C12_16  and  N4_17
REMARK    6  A    between atoms: C13_18  and  C14_19
REMARK    7  A    between atoms: N5_22  and  C16_23
REMARK    8  A    between atoms: C16_23  and  C17_24
REMARK                            x       y       z     vdW  Elec       q    Type
REMARK                         _______ _______ _______ _____ _____    ______ ____
ROOT
ATOM      1  C6  UNL     1      20.405  10.511  35.303  0.00  0.00    +0.165 A 
ATOM      2  N1  UNL     1      20.753  11.756  35.686  0.00  0.00    -0.128 NA
ATOM      3  N2  UNL     1      19.632  12.444  35.835  0.00  0.00    -0.113 NA
ATOM      4  C7  UNL     1      18.619  11.610  35.538  0.00  0.00    +0.220 A 
ATOM      5  N3  UNL     1      17.238  11.993  35.655  0.00  0.00    -0.299 N 
ATOM      6  C8  UNL     1      16.821  12.797  36.812  0.00  0.00    +0.108 C 
ATOM      7  C9  UNL     1      15.335  13.165  36.732  0.00  0.00    +0.019 C 
ATOM      8  C10 UNL     1      15.002  13.805  35.375  0.00  0.00    +0.008 C 
ATOM      9  C11 UNL     1      15.560  13.007  34.160  0.00  0.00    +0.024 C 
ATOM     10  C15 UNL     1      16.286  11.711  34.575  0.00  0.00    +0.113 C 
ATOM     11  N5  UNL     1      19.062  10.376  35.199  0.00  0.00    -0.295 N 
ENDROOT
BRANCH   1  15
ATOM     12  C2  UNL     1      23.289   7.390  34.711  0.00  0.00    +0.120 A 
ATOM     13  C3  UNL     1      22.894   8.212  33.637  0.00  0.00    +0.046 A 
ATOM     14  C4  UNL     1      21.946   9.221  33.833  0.00  0.00    +0.015 A 
ATOM     15  C5  UNL     1      21.392   9.433  35.102  0.00  0.00    +0.020 A 
ATOM     16  C21 UNL     1      21.762   8.596  36.164  0.00  0.00    +0.015 A 
ATOM     17  C22 UNL     1      22.707   7.587  35.968  0.00  0.00    +0.046 A 
BRANCH  12  19
ATOM     18  C1  UNL     1      25.159   6.274  33.483  0.00  0.00    +0.277 C 
ATOM     19  O1  UNL     1      24.245   6.375  34.571  0.00  0.00    -0.495 OA
ENDBRANCH  12  19
ENDBRANCH   1  15
BRANCH   9  20
ATOM     20  C12 UNL     1      14.487  12.741  33.083  0.00  0.00    +0.109 C 
BRANCH  20  21
ATOM     21  N4  UNL     1      13.149  12.604  33.664  0.00  0.00    -0.315 N 
ATOM     22  C13 UNL     1      12.544  11.335  33.949  0.00  0.00    +0.210 C 
ATOM     23  C14 UNL     1      11.200  11.279  34.601  0.00  0.00    +0.109 C 
ATOM     24  O2  UNL     1      13.160  10.261  33.706  0.00  0.00    -0.276 OA
ATOM     25  H15 UNL     1      12.604  13.473  33.863  0.00  0.00    +0.149 HD
ENDBRANCH  20  21
ENDBRANCH   9  20
BRANCH  11  26
ATOM     26  C16 UNL     1      18.302   9.118  35.138  0.00  0.00    +0.132 C 
BRANCH  26  27
ATOM     27  C17 UNL     1      18.066   8.553  36.552  0.00  0.00    +0.037 C 
ATOM     28  C18 UNL     1      18.422   7.098  36.664  0.00  0.00    +0.035 C 
ATOM     29  C19 UNL     1      17.480   6.603  37.746  0.00  0.00    +0.160 C 
ATOM     30  O3  UNL     1      16.399   7.501  37.881  0.00  0.00    -0.379 OA
ATOM     31  C20 UNL     1      16.607   8.557  36.974  0.00  0.00    +0.165 C 
ENDBRANCH  26  27
ENDBRANCH  11  26
TORSDOF 6
ENDMDL
MODEL 8
REMARK VINA RESULT:    -5.742     13.871     15.990
REMARK INTER + INTRA:          -9.166
REMARK INTER:                  -7.941
REMARK INTRA:                  -1.225
REMARK UNBOUND:                -1.410
REMARK  Name = /home/qwerty/github/datacon2025hack/step_04_hit_selection/docking/ligands/lig_713.pdb
REMARK  8 active torsions:
REMARK  status: ('A' for Active; 'I' for Inactive)
REMARK    1  A    between atoms: C1_1  and  O1_2
REMARK    2  A    between atoms: O1_2  and  C2_3
REMARK    3  A    between atoms: C5_6  and  C6_7
REMARK    4  A    between atoms: C11_15  and  C12_16
REMARK    5  A    between atoms: C12_16  and  N4_17
REMARK    6  A    between atoms: C13_18  and  C14_19
REMARK    7  A    between atoms: N5_22  and  C16_23
REMARK    8  A    between atoms: C16_23  and  C17_24
REMARK                            x       y       z     vdW  Elec       q    Type
REMARK                         _______ _______ _______ _____ _____    ______ ____
ROOT
ATOM      1  C6  UNL     1      13.058   4.591  21.324  0.00  0.00    +0.165 A 
ATOM      2  N1  UNL     1      14.321   5.040  21.176  0.00  0.00    -0.128 NA
ATOM      3  N2  UNL     1      15.100   3.978  21.054  0.00  0.00    -0.113 NA
ATOM      4  C7  UNL     1      14.302   2.897  21.133  0.00  0.00    +0.220 A 
ATOM      5  N3  UNL     1      14.794   1.556  20.973  0.00  0.00    -0.299 N 
ATOM      6  C8  UNL     1      15.797   1.287  19.931  0.00  0.00    +0.108 C 
ATOM      7  C9  UNL     1      16.250  -0.176  19.955  0.00  0.00    +0.019 C 
ATOM      8  C10 UNL     1      16.691  -0.591  21.367  0.00  0.00    +0.008 C 
ATOM      9  C11 UNL     1      15.675  -0.187  22.477  0.00  0.00    +0.024 C 
ATOM     10  C15 UNL     1      14.413   0.497  21.915  0.00  0.00    +0.113 C 
ATOM     11  N5  UNL     1      13.003   3.239  21.301  0.00  0.00    -0.295 N 
ENDROOT
BRANCH   1  15
ATOM     12  C2  UNL     1       9.666   7.202  21.607  0.00  0.00    +0.120 A 
ATOM     13  C3  UNL     1      10.069   6.685  20.360  0.00  0.00    +0.046 A 
ATOM     14  C4  UNL     1      11.182   5.843  20.271  0.00  0.00    +0.015 A 
ATOM     15  C5  UNL     1      11.897   5.494  21.424  0.00  0.00    +0.020 A 
ATOM     16  C21 UNL     1      11.514   6.032  22.661  0.00  0.00    +0.015 A 
ATOM     17  C22 UNL     1      10.404   6.875  22.749  0.00  0.00    +0.046 A 
BRANCH  12  19
ATOM     18  C1  UNL     1       8.482   9.141  22.652  0.00  0.00    +0.277 C 
ATOM     19  O1  UNL     1       8.551   8.038  21.752  0.00  0.00    -0.495 OA
ENDBRANCH  12  19
ENDBRANCH   1  15
BRANCH   9  20
ATOM     20  C12 UNL     1      15.319  -1.365  23.409  0.00  0.00    +0.109 C 
BRANCH  20  21
ATOM     21  N4  UNL     1      14.675  -0.911  24.644  0.00  0.00    -0.315 N 
ATOM     22  C13 UNL     1      14.150  -1.810  25.631  0.00  0.00    +0.210 C 
ATOM     23  C14 UNL     1      13.563  -1.270  26.895  0.00  0.00    +0.109 C 
ATOM     24  O2  UNL     1      14.230  -3.058  25.469  0.00  0.00    -0.276 OA
ATOM     25  H15 UNL     1      14.577   0.117  24.803  0.00  0.00    +0.149 HD
ENDBRANCH  20  21
ENDBRANCH   9  20
BRANCH  11  26
ATOM     26  C16 UNL     1      11.807   2.407  21.098  0.00  0.00    +0.132 C 
BRANCH  26  27
ATOM     27  C17 UNL     1      11.124   2.091  22.442  0.00  0.00    +0.037 C 
ATOM     28  C18 UNL     1      10.744   0.645  22.577  0.00  0.00    +0.035 C 
ATOM     29  C19 UNL     1       9.528   0.698  23.484  0.00  0.00    +0.160 C 
ATOM     30  O3  UNL     1       8.980   1.999  23.464  0.00  0.00    -0.379 OA
ATOM     31  C20 UNL     1       9.788   2.790  22.626  0.00  0.00    +0.165 C 
ENDBRANCH  26  27
ENDBRANCH  11  26
TORSDOF 6
ENDMDL
MODEL 9
REMARK VINA RESULT:    -5.639     13.328     15.364
REMARK INTER + INTRA:          -9.026
REMARK INTER:                  -7.763
REMARK INTRA:                  -1.263
REMARK UNBOUND:                -1.410
REMARK  Name = /home/qwerty/github/datacon2025hack/step_04_hit_selection/docking/ligands/lig_713.pdb
REMARK  8 active torsions:
REMARK  status: ('A' for Active; 'I' for Inactive)
REMARK    1  A    between atoms: C1_1  and  O1_2
REMARK    2  A    between atoms: O1_2  and  C2_3
REMARK    3  A    between atoms: C5_6  and  C6_7
REMARK    4  A    between atoms: C11_15  and  C12_16
REMARK    5  A    between atoms: C12_16  and  N4_17
REMARK    6  A    between atoms: C13_18  and  C14_19
REMARK    7  A    between atoms: N5_22  and  C16_23
REMARK    8  A    between atoms: C16_23  and  C17_24
REMARK                            x       y       z     vdW  Elec       q    Type
REMARK                         _______ _______ _______ _____ _____    ______ ____
ROOT
ATOM      1  C6  UNL     1      18.365  10.893  35.064  0.00  0.00    +0.165 A 
ATOM      2  N1  UNL     1      18.409  11.661  33.956  0.00  0.00    -0.128 NA
ATOM      3  N2  UNL     1      17.501  12.612  34.106  0.00  0.00    -0.113 NA
ATOM      4  C7  UNL     1      16.915  12.409  35.300  0.00  0.00    +0.220 A 
ATOM      5  N3  UNL     1      15.917  13.294  35.835  0.00  0.00    -0.299 N 
ATOM      6  C8  UNL     1      16.096  14.744  35.675  0.00  0.00    +0.108 C 
ATOM      7  C9  UNL     1      14.904  15.522  36.245  0.00  0.00    +0.019 C 
ATOM      8  C10 UNL     1      13.580  14.990  35.677  0.00  0.00    +0.008 C 
ATOM      9  C11 UNL     1      13.458  13.438  35.739  0.00  0.00    +0.024 C 
ATOM     10  C15 UNL     1      14.673  12.766  36.409  0.00  0.00    +0.113 C 
ATOM     11  N5  UNL     1      17.432  11.333  35.940  0.00  0.00    -0.295 N 
ENDROOT
BRANCH   1  15
ATOM     12  C2  UNL     1      21.039   7.608  35.739  0.00  0.00    +0.120 A 
ATOM     13  C3  UNL     1      21.343   8.890  36.235  0.00  0.00    +0.046 A 
ATOM     14  C4  UNL     1      20.474   9.961  36.003  0.00  0.00    +0.015 A 
ATOM     15  C5  UNL     1      19.284   9.763  35.289  0.00  0.00    +0.020 A 
ATOM     16  C21 UNL     1      18.996   8.492  34.770  0.00  0.00    +0.015 A 
ATOM     17  C22 UNL     1      19.866   7.424  35.000  0.00  0.00    +0.046 A 
BRANCH  12  19
ATOM     18  C1  UNL     1      23.290   6.524  35.846  0.00  0.00    +0.277 C 
ATOM     19  O1  UNL     1      21.869   6.499  35.956  0.00  0.00    -0.495 OA
ENDBRANCH  12  19
ENDBRANCH   1  15
BRANCH   9  20
ATOM     20  C12 UNL     1      12.128  12.974  36.372  0.00  0.00    +0.109 C 
BRANCH  20  21
ATOM     21  N4  UNL     1      11.879  11.550  36.140  0.00  0.00    -0.315 N 
ATOM     22  C13 UNL     1      11.260  10.694  37.111  0.00  0.00    +0.210 C 
ATOM     23  C14 UNL     1      10.981   9.264  36.776  0.00  0.00    +0.109 C 
ATOM     24  O2  UNL     1      10.893  11.151  38.228  0.00  0.00    -0.276 OA
ATOM     25  H15 UNL     1      12.184  11.134  35.231  0.00  0.00    +0.149 HD
ENDBRANCH  20  21
ENDBRANCH   9  20
BRANCH  11  26
ATOM     26  C16 UNL     1      17.319  10.978  37.363  0.00  0.00    +0.132 C 
BRANCH  26  27
ATOM     27  C17 UNL     1      16.409   9.748  37.550  0.00  0.00    +0.037 C 
ATOM     28  C18 UNL     1      17.174   8.510  37.919  0.00  0.00    +0.035 C 
ATOM     29  C19 UNL     1      16.320   7.399  37.334  0.00  0.00    +0.160 C 
ATOM     30  O3  UNL     1      15.467   7.930  36.342  0.00  0.00    -0.379 OA
ATOM     31  C20 UNL     1      15.700   9.317  36.278  0.00  0.00    +0.165 C 
ENDBRANCH  26  27
ENDBRANCH  11  26
TORSDOF 6
ENDMDL
