REMARK  Name = /home/qwerty/github/datacon2025hack/step_04_hit_selection/docking/ligands/lig_344.pdb
REMARK  3 active torsions:
REMARK  status: ('A' for Active; 'I' for Inactive)
REMARK    1  A    between atoms: C1_2  and  C15_20
REMARK    2  A    between atoms: N1_3  and  C2_4
REMARK    3  A    between atoms: C6_9  and  C7_10
REMARK                            x       y       z     vdW  Elec       q    Type
REMARK                         _______ _______ _______ _____ _____    ______ ____
ROOT
ATOM      1  C2  UNL     1       0.284   0.909   0.940  0.00  0.00    +0.036 A 
ATOM      2  C3  UNL     1      -0.239   2.196   1.230  0.00  0.00    +0.025 A 
ATOM      3  C4  UNL     1      -1.601   2.483   1.025  0.00  0.00    +0.029 A 
ATOM      4  C5  UNL     1      -2.404   1.466   0.518  0.00  0.00    +0.067 A 
ATOM      5  N2  UNL     1      -3.710   1.504   0.228  0.00  0.00    -0.338 N 
ATOM      6  C6  UNL     1      -3.977   0.260  -0.253  0.00  0.00    +0.139 A 
ATOM      7  N3  UNL     1      -2.883  -0.551  -0.276  0.00  0.00    -0.228 NA
ATOM      8  C13 UNL     1      -1.911   0.235   0.218  0.00  0.00    +0.091 A 
ATOM      9  C14 UNL     1      -0.569  -0.088   0.406  0.00  0.00    +0.053 A 
ATOM     10  H4  UNL     1      -4.350   2.321   0.340  0.00  0.00    +0.167 HD
ENDROOT
BRANCH   6  11
ATOM     11  C7  UNL     1      -5.314  -0.189  -0.721  0.00  0.00    +0.017 A 
ATOM     12  C8  UNL     1      -6.455   0.624  -0.574  0.00  0.00    +0.013 A 
ATOM     13  C9  UNL     1      -7.704   0.181  -1.021  0.00  0.00    +0.021 A 
ATOM     14  C10 UNL     1      -7.831  -1.076  -1.618  0.00  0.00    +0.041 A 
ATOM     15 CL1  UNL     1      -9.400  -1.628  -2.178  0.00  0.00    -0.084 Cl
ATOM     16  C11 UNL     1      -6.708  -1.892  -1.767  0.00  0.00    +0.021 A 
ATOM     17  C12 UNL     1      -5.457  -1.454  -1.321  0.00  0.00    +0.013 A 
ENDBRANCH   6  11
BRANCH   1  20
ATOM     18  O1  UNL     1       1.506  -1.528   1.944  0.00  0.00    -0.270 OA
ATOM     19  C1  UNL     1       2.240  -0.624   1.459  0.00  0.00    +0.249 C 
ATOM     20  N1  UNL     1       1.687   0.662   1.137  0.00  0.00    -0.281 N 
ATOM     21  H1  UNL     1       2.340   1.478   1.106  0.00  0.00    +0.155 HD
BRANCH  19  22
ATOM     22  C15 UNL     1       3.695  -0.865   1.328  0.00  0.00    +0.045 A 
ATOM     23  C16 UNL     1       4.370  -1.406   2.431  0.00  0.00    +0.014 A 
ATOM     24  C17 UNL     1       5.749  -1.593   2.401  0.00  0.00    +0.001 A 
ATOM     25  C18 UNL     1       6.482  -1.247   1.268  0.00  0.00    +0.009 A 
ATOM     26  C19 UNL     1       5.839  -0.728   0.130  0.00  0.00    -0.003 A 
ATOM     27  C20 UNL     1       6.571  -0.396  -1.035  0.00  0.00    +0.026 A 
ATOM     28 BR1  UNL     1       8.480  -0.580  -1.156  0.00  0.00    -0.050 Br
ATOM     29  C21 UNL     1       5.903   0.083  -2.165  0.00  0.00    +0.016 A 
ATOM     30  C22 UNL     1       4.519   0.226  -2.161  0.00  0.00    +0.002 A 
ATOM     31  C23 UNL     1       3.782  -0.091  -1.021  0.00  0.00    +0.009 A 
ATOM     32  C24 UNL     1       4.425  -0.547   0.150  0.00  0.00    -0.005 A 
ENDBRANCH  19  22
ENDBRANCH   1  20
TORSDOF 3
