REMARK  Name = /home/qwerty/github/datacon2025hack/step_04_hit_selection/docking/ligands/lig_587.pdb
REMARK  5 active torsions:
REMARK  status: ('A' for Active; 'I' for Inactive)
REMARK    1  A    between atoms: C1_1  and  C2_2
REMARK    2  A    between atoms: C2_2  and  C3_3
REMARK    3  A    between atoms: C2_2  and  N2_13
REMARK    4  A    between atoms: N1_5  and  C4_6
REMARK    5  A    between atoms: C12_17  and  C13_19
REMARK                            x       y       z     vdW  Elec       q    Type
REMARK                         _______ _______ _______ _____ _____    ______ ____
ROOT
ATOM      1  N2  UNL     1      -1.169  -2.506   0.827  0.00  0.00    -0.289 NA
ATOM      2  C10 UNL     1      -0.289  -2.088  -0.285  0.00  0.00    +0.104 C 
ATOM      3  C11 UNL     1       1.174  -2.361   0.068  0.00  0.00    +0.123 C 
ATOM      4  N3  UNL     1       1.495  -1.741   1.356  0.00  0.00    -0.294 N 
ATOM      5  C12 UNL     1       2.818  -1.241   1.604  0.00  0.00    +0.263 C 
ATOM      6  O2  UNL     1       3.471  -1.666   2.595  0.00  0.00    -0.268 OA
ATOM      7  C21 UNL     1       0.597  -2.010   2.481  0.00  0.00    +0.123 C 
ATOM      8  C22 UNL     1      -0.848  -1.742   2.056  0.00  0.00    +0.104 C 
ENDROOT
BRANCH   5   9
ATOM      9  C13 UNL     1       3.412  -0.213   0.730  0.00  0.00    +0.103 A 
ATOM     10  C14 UNL     1       4.757   0.153   0.724  0.00  0.00    +0.040 A 
ATOM     11  C15 UNL     1       4.848   1.155  -0.217  0.00  0.00    +0.000 A 
ATOM     12  C16 UNL     1       5.947   1.894  -0.651  0.00  0.00    +0.010 A 
ATOM     13  C17 UNL     1       5.730   2.872  -1.640  0.00  0.00    +0.001 A 
ATOM     14  C18 UNL     1       4.435   3.085  -2.163  0.00  0.00    +0.002 A 
ATOM     15  C19 UNL     1       3.345   2.323  -1.703  0.00  0.00    +0.026 A 
ATOM     16  C20 UNL     1       3.592   1.360  -0.725  0.00  0.00    +0.047 A 
ATOM     17  N4  UNL     1       2.703   0.533  -0.152  0.00  0.00    -0.351 N 
ATOM     18  H19 UNL     1       1.676   0.495  -0.337  0.00  0.00    +0.166 HD
ENDBRANCH   5   9
BRANCH   1  20
ATOM     19  C1  UNL     1      -3.462  -3.328   1.358  0.00  0.00    +0.034 C 
ATOM     20  C2  UNL     1      -2.604  -2.449   0.437  0.00  0.00    +0.140 C 
BRANCH  20  21
ATOM     21  C3  UNL     1      -3.144  -1.035   0.349  0.00  0.00    +0.234 C 
ATOM     22  O1  UNL     1      -3.577  -0.460   1.386  0.00  0.00    -0.274 OA
ATOM     23  N1  UNL     1      -3.103  -0.330  -0.900  0.00  0.00    -0.283 N 
ATOM     24  H5  UNL     1      -2.601  -0.768  -1.705  0.00  0.00    +0.155 HD
BRANCH  23  25
ATOM     25  C4  UNL     1      -3.441   1.058  -1.001  0.00  0.00    +0.047 A 
ATOM     26  C5  UNL     1      -2.445   1.978  -1.358  0.00  0.00    +0.024 A 
ATOM     27  C6  UNL     1      -2.744   3.340  -1.455  0.00  0.00    +0.002 A 
ATOM     28  C7  UNL     1      -4.043   3.790  -1.209  0.00  0.00    +0.001 A 
ATOM     29  C8  UNL     1      -5.048   2.878  -0.876  0.00  0.00    +0.017 A 
ATOM     30  C9  UNL     1      -4.757   1.511  -0.775  0.00  0.00    +0.039 A 
ATOM     31 BR1  UNL     1      -6.192   0.294  -0.410  0.00  0.00    -0.048 Br
ENDBRANCH  23  25
ENDBRANCH  20  21
ENDBRANCH   1  20
TORSDOF 4
