MODEL 1
REMARK VINA RESULT:    -7.181      0.000      0.000
REMARK INTER + INTRA:          -7.906
REMARK INTER:                  -7.600
REMARK INTRA:                  -0.305
REMARK UNBOUND:                -0.305
REMARK  Name = /home/qwerty/github/datacon2025hack/step_04_hit_selection/docking/ligands/lig_441.pdb
REMARK  4 active torsions:
REMARK  status: ('A' for Active; 'I' for Inactive)
REMARK    1  A    between atoms: C1_1  and  C2_2
REMARK    2  A    between atoms: C4_4  and  C5_5
REMARK    3  A    between atoms: N2_13  and  C11_14
REMARK    4  A    between atoms: C14_17  and  C15_18
REMARK                            x       y       z     vdW  Elec       q    Type
REMARK                         _______ _______ _______ _____ _____    ______ ____
ROOT
ATOM      1  C1  UNL     1      16.916  -1.595  18.552  0.00  0.00    +0.044 C 
ATOM      2  C2  UNL     1      16.612  -0.762  19.762  0.00  0.00    -0.050 A 
ATOM      3  C3  UNL     1      17.063  -1.163  21.024  0.00  0.00    +0.007 A 
ATOM      4  C4  UNL     1      16.752  -0.415  22.171  0.00  0.00    -0.047 A 
ATOM      5  C5  UNL     1      17.259  -0.891  23.508  0.00  0.00    +0.044 C 
ATOM      6  C6  UNL     1      15.992   0.777  22.046  0.00  0.00    -0.038 A 
ATOM      7  C7  UNL     1      15.492   1.150  20.774  0.00  0.00    -0.026 A 
ATOM      8  C8  UNL     1      15.809   0.378  19.648  0.00  0.00    +0.008 A 
ATOM      9  C9  UNL     1      14.614   2.367  20.576  0.00  0.00    +0.144 C 
ATOM     10  N1  UNL     1      14.346   3.091  21.826  0.00  0.00    -0.281 N 
ATOM     11  C10 UNL     1      13.196   3.957  21.933  0.00  0.00    +0.307 C 
ATOM     12  O1  UNL     1      12.820   4.363  23.067  0.00  0.00    -0.252 OA
ATOM     13  N2  UNL     1      12.490   4.386  20.756  0.00  0.00    -0.267 N 
ATOM     14  C19 UNL     1      15.352   3.050  22.890  0.00  0.00    +0.114 C 
ATOM     15  C20 UNL     1      15.638   1.602  23.264  0.00  0.00    +0.055 C 
ATOM     16  H11 UNL     1      12.996   4.376  19.845  0.00  0.00    +0.156 HD
ENDROOT
BRANCH  13  17
ATOM     17  C11 UNL     1      11.156   4.924  20.785  0.00  0.00    +0.060 A 
ATOM     18  C12 UNL     1      10.024   4.103  20.997  0.00  0.00    +0.026 A 
ATOM     19  C13 UNL     1       8.722   4.650  20.986  0.00  0.00    +0.006 A 
ATOM     20  C14 UNL     1       8.522   6.029  20.758  0.00  0.00    -0.040 A 
ATOM     21  C15 UNL     1       7.146   6.628  20.735  0.00  0.00    +0.044 C 
ATOM     22  C16 UNL     1       9.658   6.809  20.535  0.00  0.00    +0.024 A 
ATOM     23  C17 UNL     1       9.825   8.154  20.281  0.00  0.00    +0.143 A 
ATOM     24  N3  UNL     1      11.149   8.403  20.151  0.00  0.00    -0.181 NA
ATOM     25  N4  UNL     1      11.810   7.263  20.312  0.00  0.00    -0.275 N 
ATOM     26  C18 UNL     1      10.920   6.282  20.543  0.00  0.00    +0.087 A 
ATOM     27  H18 UNL     1      12.849   7.177  20.269  0.00  0.00    +0.189 HD
ENDBRANCH  13  17
TORSDOF 1
ENDMDL
MODEL 2
REMARK VINA RESULT:    -7.122      5.667      9.017
REMARK INTER + INTRA:          -7.844
REMARK INTER:                  -7.549
REMARK INTRA:                  -0.294
REMARK UNBOUND:                -0.305
REMARK  Name = /home/qwerty/github/datacon2025hack/step_04_hit_selection/docking/ligands/lig_441.pdb
REMARK  4 active torsions:
REMARK  status: ('A' for Active; 'I' for Inactive)
REMARK    1  A    between atoms: C1_1  and  C2_2
REMARK    2  A    between atoms: C4_4  and  C5_5
REMARK    3  A    between atoms: N2_13  and  C11_14
REMARK    4  A    between atoms: C14_17  and  C15_18
REMARK                            x       y       z     vdW  Elec       q    Type
REMARK                         _______ _______ _______ _____ _____    ______ ____
ROOT
ATOM      1  C1  UNL     1      24.047   0.660  29.177  0.00  0.00    +0.044 C 
ATOM      2  C2  UNL     1      22.561   0.863  29.214  0.00  0.00    -0.050 A 
ATOM      3  C3  UNL     1      21.836   0.541  30.366  0.00  0.00    +0.007 A 
ATOM      4  C4  UNL     1      20.440   0.687  30.401  0.00  0.00    -0.047 A 
ATOM      5  C5  UNL     1      19.704   0.324  31.666  0.00  0.00    +0.044 C 
ATOM      6  C6  UNL     1      19.759   1.192  29.264  0.00  0.00    -0.038 A 
ATOM      7  C7  UNL     1      20.490   1.465  28.082  0.00  0.00    -0.026 A 
ATOM      8  C8  UNL     1      21.883   1.300  28.072  0.00  0.00    +0.008 A 
ATOM      9  C9  UNL     1      19.822   1.935  26.809  0.00  0.00    +0.144 C 
ATOM     10  N1  UNL     1      18.365   2.065  26.939  0.00  0.00    -0.281 N 
ATOM     11  C10 UNL     1      17.523   2.036  25.767  0.00  0.00    +0.307 C 
ATOM     12  O1  UNL     1      16.277   1.881  25.893  0.00  0.00    -0.252 OA
ATOM     13  N2  UNL     1      18.087   2.210  24.455  0.00  0.00    -0.267 N 
ATOM     14  C19 UNL     1      17.804   2.395  28.252  0.00  0.00    +0.114 C 
ATOM     15  C20 UNL     1      18.254   1.357  29.271  0.00  0.00    +0.055 C 
ATOM     16  H11 UNL     1      19.004   2.701  24.373  0.00  0.00    +0.156 HD
ENDROOT
BRANCH  13  17
ATOM     17  C11 UNL     1      17.408   1.835  23.245  0.00  0.00    +0.060 A 
ATOM     18  C12 UNL     1      16.833   2.796  22.381  0.00  0.00    +0.026 A 
ATOM     19  C13 UNL     1      16.140   2.400  21.216  0.00  0.00    +0.006 A 
ATOM     20  C14 UNL     1      16.001   1.033  20.891  0.00  0.00    -0.040 A 
ATOM     21  C15 UNL     1      15.262   0.590  19.662  0.00  0.00    +0.044 C 
ATOM     22  C16 UNL     1      16.563   0.108  21.773  0.00  0.00    +0.024 A 
ATOM     23  C17 UNL     1      16.610  -1.271  21.767  0.00  0.00    +0.143 A 
ATOM     24  N3  UNL     1      17.294  -1.680  22.861  0.00  0.00    -0.181 NA
ATOM     25  N4  UNL     1      17.671  -0.607  23.547  0.00  0.00    -0.275 N 
ATOM     26  C18 UNL     1      17.233   0.489  22.903  0.00  0.00    +0.087 A 
ATOM     27  H18 UNL     1      18.223  -0.642  24.431  0.00  0.00    +0.189 HD
ENDBRANCH  13  17
TORSDOF 1
ENDMDL
MODEL 3
REMARK VINA RESULT:    -7.019      8.498     11.781
REMARK INTER + INTRA:          -7.735
REMARK INTER:                  -7.417
REMARK INTRA:                  -0.318
REMARK UNBOUND:                -0.305
REMARK  Name = /home/qwerty/github/datacon2025hack/step_04_hit_selection/docking/ligands/lig_441.pdb
REMARK  4 active torsions:
REMARK  status: ('A' for Active; 'I' for Inactive)
REMARK    1  A    between atoms: C1_1  and  C2_2
REMARK    2  A    between atoms: C4_4  and  C5_5
REMARK    3  A    between atoms: N2_13  and  C11_14
REMARK    4  A    between atoms: C14_17  and  C15_18
REMARK                            x       y       z     vdW  Elec       q    Type
REMARK                         _______ _______ _______ _____ _____    ______ ____
ROOT
ATOM      1  C1  UNL     1      25.538   9.872  20.170  0.00  0.00    +0.044 C 
ATOM      2  C2  UNL     1      24.152   9.401  20.499  0.00  0.00    -0.050 A 
ATOM      3  C3  UNL     1      23.055  10.243  20.293  0.00  0.00    +0.007 A 
ATOM      4  C4  UNL     1      21.757   9.831  20.634  0.00  0.00    -0.047 A 
ATOM      5  C5  UNL     1      20.609  10.778  20.394  0.00  0.00    +0.044 C 
ATOM      6  C6  UNL     1      21.552   8.535  21.172  0.00  0.00    -0.038 A 
ATOM      7  C7  UNL     1      22.671   7.706  21.430  0.00  0.00    -0.026 A 
ATOM      8  C8  UNL     1      23.958   8.148  21.089  0.00  0.00    +0.008 A 
ATOM      9  C9  UNL     1      22.536   6.341  22.070  0.00  0.00    +0.144 C 
ATOM     10  N1  UNL     1      21.146   5.991  22.388  0.00  0.00    -0.281 N 
ATOM     11  C10 UNL     1      20.856   4.994  23.391  0.00  0.00    +0.307 C 
ATOM     12  O1  UNL     1      19.685   4.885  23.848  0.00  0.00    -0.252 OA
ATOM     13  N2  UNL     1      21.885   4.102  23.854  0.00  0.00    -0.267 N 
ATOM     14  C19 UNL     1      20.074   6.544  21.554  0.00  0.00    +0.114 C 
ATOM     15  C20 UNL     1      20.165   8.064  21.554  0.00  0.00    +0.055 C 
ATOM     16  H11 UNL     1      22.708   3.933  23.237  0.00  0.00    +0.156 HD
ENDROOT
BRANCH  13  17
ATOM     17  C11 UNL     1      21.789   3.352  25.077  0.00  0.00    +0.060 A 
ATOM     18  C12 UNL     1      22.532   3.703  26.229  0.00  0.00    +0.026 A 
ATOM     19  C13 UNL     1      22.448   2.930  27.408  0.00  0.00    +0.006 A 
ATOM     20  C14 UNL     1      21.623   1.785  27.461  0.00  0.00    -0.040 A 
ATOM     21  C15 UNL     1      21.526   0.945  28.701  0.00  0.00    +0.044 C 
ATOM     22  C16 UNL     1      20.917   1.455  26.302  0.00  0.00    +0.024 A 
ATOM     23  C17 UNL     1      20.046   0.426  26.008  0.00  0.00    +0.143 A 
ATOM     24  N3  UNL     1      19.628   0.574  24.729  0.00  0.00    -0.181 NA
ATOM     25  N4  UNL     1      20.208   1.653  24.218  0.00  0.00    -0.275 N 
ATOM     26  C18 UNL     1      20.998   2.200  25.159  0.00  0.00    +0.087 A 
ATOM     27  H18 UNL     1      20.049   2.000  23.247  0.00  0.00    +0.189 HD
ENDBRANCH  13  17
TORSDOF 1
ENDMDL
MODEL 4
REMARK VINA RESULT:    -6.850      8.729     10.554
REMARK INTER + INTRA:          -7.555
REMARK INTER:                  -7.253
REMARK INTRA:                  -0.302
REMARK UNBOUND:                -0.305
REMARK  Name = /home/qwerty/github/datacon2025hack/step_04_hit_selection/docking/ligands/lig_441.pdb
REMARK  4 active torsions:
REMARK  status: ('A' for Active; 'I' for Inactive)
REMARK    1  A    between atoms: C1_1  and  C2_2
REMARK    2  A    between atoms: C4_4  and  C5_5
REMARK    3  A    between atoms: N2_13  and  C11_14
REMARK    4  A    between atoms: C14_17  and  C15_18
REMARK                            x       y       z     vdW  Elec       q    Type
REMARK                         _______ _______ _______ _____ _____    ______ ____
ROOT
ATOM      1  C1  UNL     1      22.973  -1.230  28.946  0.00  0.00    +0.044 C 
ATOM      2  C2  UNL     1      22.400   0.157  28.944  0.00  0.00    -0.050 A 
ATOM      3  C3  UNL     1      21.598   0.589  30.006  0.00  0.00    +0.007 A 
ATOM      4  C4  UNL     1      21.021   1.869  29.998  0.00  0.00    -0.047 A 
ATOM      5  C5  UNL     1      20.162   2.285  31.165  0.00  0.00    +0.044 C 
ATOM      6  C6  UNL     1      21.277   2.746  28.913  0.00  0.00    -0.038 A 
ATOM      7  C7  UNL     1      22.044   2.285  27.815  0.00  0.00    -0.026 A 
ATOM      8  C8  UNL     1      22.599   0.998  27.844  0.00  0.00    +0.008 A 
ATOM      9  C9  UNL     1      22.296   3.138  26.591  0.00  0.00    +0.144 C 
ATOM     10  N1  UNL     1      21.662   4.461  26.671  0.00  0.00    -0.281 N 
ATOM     11  C10 UNL     1      21.385   5.211  25.469  0.00  0.00    +0.307 C 
ATOM     12  O1  UNL     1      20.613   6.208  25.516  0.00  0.00    -0.252 OA
ATOM     13  N2  UNL     1      22.004   4.850  24.222  0.00  0.00    -0.267 N 
ATOM     14  C19 UNL     1      21.475   5.070  27.991  0.00  0.00    +0.114 C 
ATOM     15  C20 UNL     1      20.666   4.130  28.875  0.00  0.00    +0.055 C 
ATOM     16  H11 UNL     1      22.892   4.305  24.251  0.00  0.00    +0.156 HD
ENDROOT
BRANCH  13  17
ATOM     17  C11 UNL     1      21.517   5.288  22.942  0.00  0.00    +0.060 A 
ATOM     18  C12 UNL     1      20.339   4.755  22.368  0.00  0.00    +0.026 A 
ATOM     19  C13 UNL     1      19.901   5.176  21.093  0.00  0.00    +0.006 A 
ATOM     20  C14 UNL     1      20.634   6.135  20.360  0.00  0.00    -0.040 A 
ATOM     21  C15 UNL     1      20.190   6.591  19.001  0.00  0.00    +0.044 C 
ATOM     22  C16 UNL     1      21.801   6.629  20.947  0.00  0.00    +0.024 A 
ATOM     23  C17 UNL     1      22.737   7.549  20.520  0.00  0.00    +0.143 A 
ATOM     24  N3  UNL     1      23.680   7.676  21.483  0.00  0.00    -0.181 NA
ATOM     25  N4  UNL     1      23.366   6.869  22.489  0.00  0.00    -0.275 N 
ATOM     26  C18 UNL     1      22.229   6.222  22.180  0.00  0.00    +0.087 A 
ATOM     27  H18 UNL     1      23.925   6.781  23.365  0.00  0.00    +0.189 HD
ENDBRANCH  13  17
TORSDOF 1
ENDMDL
MODEL 5
REMARK VINA RESULT:    -6.790      2.252      3.399
REMARK INTER + INTRA:          -7.492
REMARK INTER:                  -7.576
REMARK INTRA:                   0.084
REMARK UNBOUND:                -0.305
REMARK  Name = /home/qwerty/github/datacon2025hack/step_04_hit_selection/docking/ligands/lig_441.pdb
REMARK  4 active torsions:
REMARK  status: ('A' for Active; 'I' for Inactive)
REMARK    1  A    between atoms: C1_1  and  C2_2
REMARK    2  A    between atoms: C4_4  and  C5_5
REMARK    3  A    between atoms: N2_13  and  C11_14
REMARK    4  A    between atoms: C14_17  and  C15_18
REMARK                            x       y       z     vdW  Elec       q    Type
REMARK                         _______ _______ _______ _____ _____    ______ ____
ROOT
ATOM      1  C1  UNL     1      13.919  -1.809  26.129  0.00  0.00    +0.044 C 
ATOM      2  C2  UNL     1      14.301  -1.214  24.806  0.00  0.00    -0.050 A 
ATOM      3  C3  UNL     1      15.557  -1.480  24.251  0.00  0.00    +0.007 A 
ATOM      4  C4  UNL     1      15.944  -0.898  23.033  0.00  0.00    -0.047 A 
ATOM      5  C5  UNL     1      17.310  -1.215  22.479  0.00  0.00    +0.044 C 
ATOM      6  C6  UNL     1      15.039  -0.050  22.343  0.00  0.00    -0.038 A 
ATOM      7  C7  UNL     1      13.791   0.260  22.936  0.00  0.00    -0.026 A 
ATOM      8  C8  UNL     1      13.435  -0.328  24.158  0.00  0.00    +0.008 A 
ATOM      9  C9  UNL     1      12.807   1.214  22.294  0.00  0.00    +0.144 C 
ATOM     10  N1  UNL     1      13.291   1.770  21.023  0.00  0.00    -0.281 N 
ATOM     11  C10 UNL     1      12.747   3.006  20.514  0.00  0.00    +0.307 C 
ATOM     12  O1  UNL     1      13.337   3.613  19.578  0.00  0.00    -0.252 OA
ATOM     13  N2  UNL     1      11.521   3.540  21.044  0.00  0.00    -0.267 N 
ATOM     14  C19 UNL     1      14.203   0.964  20.207  0.00  0.00    +0.114 C 
ATOM     15  C20 UNL     1      15.430   0.595  21.031  0.00  0.00    +0.055 C 
ATOM     16  H11 UNL     1      10.860   2.885  21.515  0.00  0.00    +0.156 HD
ENDROOT
BRANCH  13  17
ATOM     17  C11 UNL     1      11.112   4.907  20.870  0.00  0.00    +0.060 A 
ATOM     18  C12 UNL     1      12.047   5.968  20.840  0.00  0.00    +0.026 A 
ATOM     19  C13 UNL     1      11.618   7.307  20.703  0.00  0.00    +0.006 A 
ATOM     20  C14 UNL     1      10.245   7.616  20.598  0.00  0.00    -0.040 A 
ATOM     21  C15 UNL     1       9.767   9.032  20.459  0.00  0.00    +0.044 C 
ATOM     22  C16 UNL     1       9.346   6.548  20.649  0.00  0.00    +0.024 A 
ATOM     23  C17 UNL     1       7.969   6.490  20.581  0.00  0.00    +0.143 A 
ATOM     24  N3  UNL     1       7.593   5.192  20.669  0.00  0.00    -0.181 NA
ATOM     25  N4  UNL     1       8.683   4.445  20.791  0.00  0.00    -0.275 N 
ATOM     26  C18 UNL     1       9.758   5.251  20.783  0.00  0.00    +0.087 A 
ATOM     27  H18 UNL     1       8.674   3.404  20.868  0.00  0.00    +0.189 HD
ENDBRANCH  13  17
TORSDOF 1
ENDMDL
MODEL 6
REMARK VINA RESULT:    -6.631     16.226     19.230
REMARK INTER + INTRA:          -7.324
REMARK INTER:                  -7.017
REMARK INTRA:                  -0.307
REMARK UNBOUND:                -0.305
REMARK  Name = /home/qwerty/github/datacon2025hack/step_04_hit_selection/docking/ligands/lig_441.pdb
REMARK  4 active torsions:
REMARK  status: ('A' for Active; 'I' for Inactive)
REMARK    1  A    between atoms: C1_1  and  C2_2
REMARK    2  A    between atoms: C4_4  and  C5_5
REMARK    3  A    between atoms: N2_13  and  C11_14
REMARK    4  A    between atoms: C14_17  and  C15_18
REMARK                            x       y       z     vdW  Elec       q    Type
REMARK                         _______ _______ _______ _____ _____    ______ ____
ROOT
ATOM      1  C1  UNL     1      11.146  10.861  37.229  0.00  0.00    +0.044 C 
ATOM      2  C2  UNL     1      12.466  11.513  36.941  0.00  0.00    -0.050 A 
ATOM      3  C3  UNL     1      12.512  12.813  36.427  0.00  0.00    +0.007 A 
ATOM      4  C4  UNL     1      13.738  13.422  36.114  0.00  0.00    -0.047 A 
ATOM      5  C5  UNL     1      13.732  14.824  35.561  0.00  0.00    +0.044 C 
ATOM      6  C6  UNL     1      14.948  12.719  36.346  0.00  0.00    -0.038 A 
ATOM      7  C7  UNL     1      14.895  11.383  36.814  0.00  0.00    -0.026 A 
ATOM      8  C8  UNL     1      13.656  10.797  37.108  0.00  0.00    +0.008 A 
ATOM      9  C9  UNL     1      16.141  10.547  37.014  0.00  0.00    +0.144 C 
ATOM     10  N1  UNL     1      17.375  11.264  36.669  0.00  0.00    -0.281 N 
ATOM     11  C10 UNL     1      18.576  10.532  36.342  0.00  0.00    +0.307 C 
ATOM     12  O1  UNL     1      19.544  11.127  35.795  0.00  0.00    -0.252 OA
ATOM     13  N2  UNL     1      18.690   9.134  36.660  0.00  0.00    -0.267 N 
ATOM     14  C19 UNL     1      17.409  12.720  36.828  0.00  0.00    +0.114 C 
ATOM     15  C20 UNL     1      16.284  13.346  36.015  0.00  0.00    +0.055 C 
ATOM     16  H11 UNL     1      18.088   8.749  37.419  0.00  0.00    +0.156 HD
ENDROOT
BRANCH  13  17
ATOM     17  C11 UNL     1      19.663   8.262  36.058  0.00  0.00    +0.060 A 
ATOM     18  C12 UNL     1      19.529   7.800  34.727  0.00  0.00    +0.026 A 
ATOM     19  C13 UNL     1      20.480   6.917  34.170  0.00  0.00    +0.006 A 
ATOM     20  C14 UNL     1      21.582   6.470  34.931  0.00  0.00    -0.040 A 
ATOM     21  C15 UNL     1      22.598   5.526  34.360  0.00  0.00    +0.044 C 
ATOM     22  C16 UNL     1      21.675   6.930  36.246  0.00  0.00    +0.024 A 
ATOM     23  C17 UNL     1      22.595   6.697  37.247  0.00  0.00    +0.143 A 
ATOM     24  N3  UNL     1      22.223   7.402  38.341  0.00  0.00    -0.181 NA
ATOM     25  N4  UNL     1      21.106   8.061  38.057  0.00  0.00    -0.275 N 
ATOM     26  C18 UNL     1      20.756   7.784  36.789  0.00  0.00    +0.087 A 
ATOM     27  H18 UNL     1      20.611   8.690  38.727  0.00  0.00    +0.189 HD
ENDBRANCH  13  17
TORSDOF 1
ENDMDL
MODEL 7
REMARK VINA RESULT:    -6.630      7.540     10.254
REMARK INTER + INTRA:          -7.323
REMARK INTER:                  -7.103
REMARK INTRA:                  -0.221
REMARK UNBOUND:                -0.305
REMARK  Name = /home/qwerty/github/datacon2025hack/step_04_hit_selection/docking/ligands/lig_441.pdb
REMARK  4 active torsions:
REMARK  status: ('A' for Active; 'I' for Inactive)
REMARK    1  A    between atoms: C1_1  and  C2_2
REMARK    2  A    between atoms: C4_4  and  C5_5
REMARK    3  A    between atoms: N2_13  and  C11_14
REMARK    4  A    between atoms: C14_17  and  C15_18
REMARK                            x       y       z     vdW  Elec       q    Type
REMARK                         _______ _______ _______ _____ _____    ______ ____
ROOT
ATOM      1  C1  UNL     1      23.001  -1.367  28.908  0.00  0.00    +0.044 C 
ATOM      2  C2  UNL     1      22.355  -0.013  28.928  0.00  0.00    -0.050 A 
ATOM      3  C3  UNL     1      21.429   0.311  29.925  0.00  0.00    +0.007 A 
ATOM      4  C4  UNL     1      20.786   1.559  29.933  0.00  0.00    -0.047 A 
ATOM      5  C5  UNL     1      19.795   1.858  31.029  0.00  0.00    +0.044 C 
ATOM      6  C6  UNL     1      21.099   2.514  28.932  0.00  0.00    -0.038 A 
ATOM      7  C7  UNL     1      21.995   2.162  27.893  0.00  0.00    -0.026 A 
ATOM      8  C8  UNL     1      22.614   0.904  27.904  0.00  0.00    +0.008 A 
ATOM      9  C9  UNL     1      22.319   3.102  26.752  0.00  0.00    +0.144 C 
ATOM     10  N1  UNL     1      21.607   4.384  26.844  0.00  0.00    -0.281 N 
ATOM     11  C10 UNL     1      21.409   5.194  25.666  0.00  0.00    +0.307 C 
ATOM     12  O1  UNL     1      20.583   6.147  25.691  0.00  0.00    -0.252 OA
ATOM     13  N2  UNL     1      22.167   4.943  24.469  0.00  0.00    -0.267 N 
ATOM     14  C19 UNL     1      21.259   4.899  28.171  0.00  0.00    +0.114 C 
ATOM     15  C20 UNL     1      20.419   3.866  28.912  0.00  0.00    +0.055 C 
ATOM     16  H11 UNL     1      23.077   4.441  24.556  0.00  0.00    +0.156 HD
ENDROOT
BRANCH  13  17
ATOM     17  C11 UNL     1      21.786   5.436  23.173  0.00  0.00    +0.060 A 
ATOM     18  C12 UNL     1      22.593   6.348  22.453  0.00  0.00    +0.026 A 
ATOM     19  C13 UNL     1      22.180   6.845  21.198  0.00  0.00    +0.006 A 
ATOM     20  C14 UNL     1      20.948   6.446  20.635  0.00  0.00    -0.040 A 
ATOM     21  C15 UNL     1      20.486   6.969  19.306  0.00  0.00    +0.044 C 
ATOM     22  C16 UNL     1      20.166   5.560  21.379  0.00  0.00    +0.024 A 
ATOM     23  C17 UNL     1      18.936   4.982  21.139  0.00  0.00    +0.143 A 
ATOM     24  N3  UNL     1      18.629   4.182  22.187  0.00  0.00    -0.181 NA
ATOM     25  N4  UNL     1      19.621   4.243  23.068  0.00  0.00    -0.275 N 
ATOM     26  C18 UNL     1      20.562   5.078  22.596  0.00  0.00    +0.087 A 
ATOM     27  H18 UNL     1      19.640   3.711  23.966  0.00  0.00    +0.189 HD
ENDBRANCH  13  17
TORSDOF 1
ENDMDL
MODEL 8
REMARK VINA RESULT:    -6.534      8.108     10.605
REMARK INTER + INTRA:          -7.221
REMARK INTER:                  -6.902
REMARK INTRA:                  -0.319
REMARK UNBOUND:                -0.305
REMARK  Name = /home/qwerty/github/datacon2025hack/step_04_hit_selection/docking/ligands/lig_441.pdb
REMARK  4 active torsions:
REMARK  status: ('A' for Active; 'I' for Inactive)
REMARK    1  A    between atoms: C1_1  and  C2_2
REMARK    2  A    between atoms: C4_4  and  C5_5
REMARK    3  A    between atoms: N2_13  and  C11_14
REMARK    4  A    between atoms: C14_17  and  C15_18
REMARK                            x       y       z     vdW  Elec       q    Type
REMARK                         _______ _______ _______ _____ _____    ______ ____
ROOT
ATOM      1  C1  UNL     1      22.680   1.692  28.754  0.00  0.00    +0.044 C 
ATOM      2  C2  UNL     1      21.897   1.927  27.496  0.00  0.00    -0.050 A 
ATOM      3  C3  UNL     1      21.052   0.930  26.997  0.00  0.00    +0.007 A 
ATOM      4  C4  UNL     1      20.344   1.119  25.800  0.00  0.00    -0.047 A 
ATOM      5  C5  UNL     1      19.449   0.012  25.303  0.00  0.00    +0.044 C 
ATOM      6  C6  UNL     1      20.466   2.347  25.100  0.00  0.00    -0.038 A 
ATOM      7  C7  UNL     1      21.363   3.332  25.580  0.00  0.00    -0.026 A 
ATOM      8  C8  UNL     1      22.066   3.112  26.773  0.00  0.00    +0.008 A 
ATOM      9  C9  UNL     1      21.600   4.635  24.848  0.00  0.00    +0.144 C 
ATOM     10  N1  UNL     1      20.816   4.750  23.611  0.00  0.00    -0.281 N 
ATOM     11  C10 UNL     1      21.232   5.653  22.565  0.00  0.00    +0.307 C 
ATOM     12  O1  UNL     1      20.721   5.559  21.415  0.00  0.00    -0.252 OA
ATOM     13  N2  UNL     1      22.205   6.679  22.828  0.00  0.00    -0.267 N 
ATOM     14  C19 UNL     1      19.522   4.065  23.535  0.00  0.00    +0.114 C 
ATOM     15  C20 UNL     1      19.718   2.579  23.805  0.00  0.00    +0.055 C 
ATOM     16  H11 UNL     1      22.334   6.997  23.813  0.00  0.00    +0.156 HD
ENDROOT
BRANCH  13  17
ATOM     17  C11 UNL     1      22.935   7.361  21.794  0.00  0.00    +0.060 A 
ATOM     18  C12 UNL     1      24.297   7.081  21.532  0.00  0.00    +0.026 A 
ATOM     19  C13 UNL     1      25.002   7.790  20.534  0.00  0.00    +0.006 A 
ATOM     20  C14 UNL     1      24.363   8.797  19.778  0.00  0.00    -0.040 A 
ATOM     21  C15 UNL     1      25.096   9.566  18.718  0.00  0.00    +0.044 C 
ATOM     22  C16 UNL     1      23.024   9.061  20.073  0.00  0.00    +0.024 A 
ATOM     23  C17 UNL     1      22.118   9.959  19.547  0.00  0.00    +0.143 A 
ATOM     24  N3  UNL     1      20.937   9.798  20.188  0.00  0.00    -0.181 NA
ATOM     25  N4  UNL     1      21.077   8.837  21.093  0.00  0.00    -0.275 N 
ATOM     26  C18 UNL     1      22.339   8.379  21.040  0.00  0.00    +0.087 A 
ATOM     27  H18 UNL     1      20.311   8.507  21.720  0.00  0.00    +0.189 HD
ENDBRANCH  13  17
TORSDOF 1
ENDMDL
MODEL 9
REMARK VINA RESULT:    -6.479      2.153      3.347
REMARK INTER + INTRA:          -7.163
REMARK INTER:                  -6.971
REMARK INTRA:                  -0.192
REMARK UNBOUND:                -0.305
REMARK  Name = /home/qwerty/github/datacon2025hack/step_04_hit_selection/docking/ligands/lig_441.pdb
REMARK  4 active torsions:
REMARK  status: ('A' for Active; 'I' for Inactive)
REMARK    1  A    between atoms: C1_1  and  C2_2
REMARK    2  A    between atoms: C4_4  and  C5_5
REMARK    3  A    between atoms: N2_13  and  C11_14
REMARK    4  A    between atoms: C14_17  and  C15_18
REMARK                            x       y       z     vdW  Elec       q    Type
REMARK                         _______ _______ _______ _____ _____    ______ ____
ROOT
ATOM      1  C1  UNL     1      13.922  -1.808  26.172  0.00  0.00    +0.044 C 
ATOM      2  C2  UNL     1      14.316  -1.237  24.842  0.00  0.00    -0.050 A 
ATOM      3  C3  UNL     1      15.538  -1.587  24.259  0.00  0.00    +0.007 A 
ATOM      4  C4  UNL     1      15.938  -1.030  23.034  0.00  0.00    -0.047 A 
ATOM      5  C5  UNL     1      17.267  -1.438  22.451  0.00  0.00    +0.044 C 
ATOM      6  C6  UNL     1      15.079  -0.121  22.365  0.00  0.00    -0.038 A 
ATOM      7  C7  UNL     1      13.868   0.272  22.984  0.00  0.00    -0.026 A 
ATOM      8  C8  UNL     1      13.499  -0.292  24.213  0.00  0.00    +0.008 A 
ATOM      9  C9  UNL     1      12.938   1.293  22.364  0.00  0.00    +0.144 C 
ATOM     10  N1  UNL     1      13.431   1.817  21.084  0.00  0.00    -0.281 N 
ATOM     11  C10 UNL     1      12.962   3.089  20.587  0.00  0.00    +0.307 C 
ATOM     12  O1  UNL     1      13.572   3.656  19.639  0.00  0.00    -0.252 OA
ATOM     13  N2  UNL     1      11.787   3.703  21.144  0.00  0.00    -0.267 N 
ATOM     14  C19 UNL     1      14.269   0.952  20.247  0.00  0.00    +0.114 C 
ATOM     15  C20 UNL     1      15.485   0.499  21.045  0.00  0.00    +0.055 C 
ATOM     16  H11 UNL     1      11.093   3.094  21.629  0.00  0.00    +0.156 HD
ENDROOT
BRANCH  13  17
ATOM     17  C11 UNL     1      11.469   5.096  20.979  0.00  0.00    +0.060 A 
ATOM     18  C12 UNL     1      10.264   5.521  20.374  0.00  0.00    +0.026 A 
ATOM     19  C13 UNL     1       9.991   6.895  20.191  0.00  0.00    +0.006 A 
ATOM     20  C14 UNL     1      10.919   7.875  20.606  0.00  0.00    -0.040 A 
ATOM     21  C15 UNL     1      10.651   9.339  20.414  0.00  0.00    +0.044 C 
ATOM     22  C16 UNL     1      12.107   7.422  21.184  0.00  0.00    +0.024 A 
ATOM     23  C17 UNL     1      13.207   8.088  21.684  0.00  0.00    +0.143 A 
ATOM     24  N3  UNL     1      14.088   7.168  22.144  0.00  0.00    -0.181 NA
ATOM     25  N4  UNL     1      13.578   5.959  21.945  0.00  0.00    -0.275 N 
ATOM     26  C18 UNL     1      12.375   6.093  21.360  0.00  0.00    +0.087 A 
ATOM     27  H18 UNL     1      14.052   5.071  22.218  0.00  0.00    +0.189 HD
ENDBRANCH  13  17
TORSDOF 1
ENDMDL
