REMARK  Name = /home/qwerty/github/datacon2025hack/step_04_hit_selection/docking/ligands/lig_361.pdb
REMARK  9 active torsions:
REMARK  status: ('A' for Active; 'I' for Inactive)
REMARK    1  A    between atoms: C1_1  and  N1_2
REMARK    2  A    between atoms: C3_4  and  C4_5
REMARK    3  A    between atoms: C8_11  and  C9_12
REMARK    4  A    between atoms: C13_18  and  C14_19
REMARK    5  A    between atoms: C17_23  and  N7_24
REMARK    6  A    between atoms: N7_24  and  C18_25
REMARK    7  A    between atoms: C18_25  and  C19_26
REMARK    8  A    between atoms: C18_25  and  C20_27
REMARK    9  A    between atoms: C18_25  and  C21_28
REMARK                            x       y       z     vdW  Elec       q    Type
REMARK                         _______ _______ _______ _____ _____    ______ ____
ROOT
ATOM      1  C9  UNL     1       1.958  -0.751   0.095  0.00  0.00    +0.122 A 
ATOM      2  N4  UNL     1       2.690  -1.672   0.768  0.00  0.00    -0.171 NA
ATOM      3  N5  UNL     1       1.871  -2.624   1.198  0.00  0.00    -0.276 N 
ATOM      4  C10 UNL     1       0.624  -2.323   0.804  0.00  0.00    +0.066 A 
ATOM      5  C11 UNL     1      -0.545  -3.041   1.031  0.00  0.00    +0.028 A 
ATOM      6  C12 UNL     1      -1.743  -2.522   0.508  0.00  0.00    +0.010 A 
ATOM      7  C13 UNL     1      -1.752  -1.303  -0.226  0.00  0.00    -0.016 A 
ATOM      8  C23 UNL     1      -0.536  -0.605  -0.429  0.00  0.00    +0.020 A 
ATOM      9  C24 UNL     1       0.632  -1.150   0.105  0.00  0.00    +0.030 A 
ATOM     10  H8  UNL     1       2.171  -3.460   1.748  0.00  0.00    +0.189 HD
ENDROOT
BRANCH   1  17
ATOM     11  C4  UNL     1       6.194   0.758  -0.312  0.00  0.00    +0.075 A 
ATOM     12  C5  UNL     1       6.284   2.003  -1.000  0.00  0.00    +0.030 A 
ATOM     13  C6  UNL     1       5.118   2.634  -1.473  0.00  0.00    +0.031 A 
ATOM     14  C7  UNL     1       3.910   1.991  -1.237  0.00  0.00    +0.085 A 
ATOM     15  N2  UNL     1       2.666   2.360  -1.579  0.00  0.00    -0.275 N 
ATOM     16  N3  UNL     1       1.818   1.428  -1.148  0.00  0.00    -0.169 NA
ATOM     17  C8  UNL     1       2.531   0.455  -0.525  0.00  0.00    +0.139 A 
ATOM     18  C25 UNL     1       3.861   0.807  -0.577  0.00  0.00    +0.118 A 
ATOM     19  N8  UNL     1       4.968   0.179  -0.112  0.00  0.00    -0.243 NA
ATOM     20  H7  UNL     1       2.387   3.223  -2.095  0.00  0.00    +0.189 HD
BRANCH  11  24
ATOM     21  C1  UNL     1      10.934  -0.480   0.746  0.00  0.00    +0.172 C 
ATOM     22  N1  UNL     1       9.479  -0.473   0.687  0.00  0.00    -0.274 N 
ATOM     23  C2  UNL     1       8.721   0.460   0.082  0.00  0.00    +0.118 A 
ATOM     24  C3  UNL     1       7.399   0.071   0.193  0.00  0.00    +0.038 A 
ATOM     25  C26 UNL     1       7.437  -1.133   0.877  0.00  0.00    +0.144 A 
ATOM     26  N9  UNL     1       8.716  -1.446   1.160  0.00  0.00    -0.179 NA
ENDBRANCH  11  24
ENDBRANCH   1  17
BRANCH   7  27
ATOM     27  C14 UNL     1      -3.023  -0.770  -0.777  0.00  0.00    +0.002 A 
ATOM     28  C15 UNL     1      -3.066  -0.188  -2.053  0.00  0.00    +0.119 A 
ATOM     29  N6  UNL     1      -4.238   0.282  -2.553  0.00  0.00    -0.261 NA
ATOM     30  C16 UNL     1      -5.396   0.226  -1.847  0.00  0.00    +0.133 A 
ATOM     31  C17 UNL     1      -5.411  -0.323  -0.555  0.00  0.00    +0.046 A 
ATOM     32  C22 UNL     1      -4.214  -0.837  -0.037  0.00  0.00    +0.034 A 
BRANCH  31  33
ATOM     33  N7  UNL     1      -6.618  -0.430   0.227  0.00  0.00    -0.338 N 
ATOM     34  H13 UNL     1      -6.657  -1.251   0.876  0.00  0.00    +0.147 HD
BRANCH  33  35
ATOM     35  C18 UNL     1      -7.646   0.620   0.404  0.00  0.00    +0.024 C 
ATOM     36  C19 UNL     1      -8.297   0.441   1.793  0.00  0.00    +0.031 C 
ATOM     37  C20 UNL     1      -7.027   2.033   0.346  0.00  0.00    +0.031 C 
ATOM     38  C21 UNL     1      -8.745   0.467  -0.664  0.00  0.00    +0.031 C 
ENDBRANCH  33  35
ENDBRANCH  31  33
ENDBRANCH   7  27
TORSDOF 5
