REMARK  Name = /home/qwerty/github/datacon2025hack/step_04_hit_selection/docking/ligands/lig_297.pdb
REMARK  5 active torsions:
REMARK  status: ('A' for Active; 'I' for Inactive)
REMARK    1  A    between atoms: C1_1  and  C2_2
REMARK    2  A    between atoms: C5_5  and  C6_6
REMARK    3  A    between atoms: C7_8  and  C8_9
REMARK    4  A    between atoms: C8_9  and  C9_10
REMARK    5  A    between atoms: C12_15  and  C13_16
REMARK                            x       y       z     vdW  Elec       q    Type
REMARK                         _______ _______ _______ _____ _____    ______ ____
ROOT
ATOM      1  C9  UNL     1       0.835  -0.692   1.948  0.00  0.00    +0.224 C 
ATOM      2  O1  UNL     1       1.618   0.141   2.478  0.00  0.00    -0.275 OA
ATOM      3  N2  UNL     1       1.017  -1.112   0.586  0.00  0.00    -0.267 N 
ATOM      4  C10 UNL     1       2.178  -0.829  -0.209  0.00  0.00    +0.168 A 
ATOM      5  C11 UNL     1       3.416  -0.409   0.241  0.00  0.00    +0.097 A 
ATOM      6  C12 UNL     1       4.163  -0.341  -0.918  0.00  0.00    +0.176 A 
ATOM      7  O2  UNL     1       3.412  -0.700  -1.934  0.00  0.00    -0.352 OA
ATOM      8  N3  UNL     1       2.209  -1.007  -1.544  0.00  0.00    -0.062 NA
ATOM      9  H8  UNL     1       0.238  -1.635   0.127  0.00  0.00    +0.156 HD
ENDROOT
BRANCH   6  10
ATOM     10  C13 UNL     1       5.572   0.055  -1.035  0.00  0.00    +0.059 A 
ATOM     11  C14 UNL     1       6.410   0.445   0.007  0.00  0.00    +0.021 A 
ATOM     12  C15 UNL     1       7.705   0.765  -0.418  0.00  0.00    +0.028 A 
ATOM     13  C16 UNL     1       7.878   0.626  -1.788  0.00  0.00    +0.079 A 
ATOM     14 CL1  UNL     1       9.360   0.939  -2.667  0.00  0.00    -0.076 Cl
ATOM     15  S1  UNL     1       6.437   0.108  -2.478  0.00  0.00    -0.074 S 
ENDBRANCH   6  10
BRANCH   1  16
ATOM     16  C8  UNL     1      -0.348  -1.180   2.726  0.00  0.00    +0.152 C 
BRANCH  16  19
ATOM     17  C6  UNL     1      -3.367   0.243   1.222  0.00  0.00    +0.144 A 
ATOM     18  N1  UNL     1      -2.376  -0.664   1.366  0.00  0.00    -0.240 NA
ATOM     19  C7  UNL     1      -1.551  -0.351   2.402  0.00  0.00    +0.058 A 
ATOM     20  C17 UNL     1      -1.872   0.822   3.081  0.00  0.00    +0.071 A 
ATOM     21  S2  UNL     1      -3.248   1.470   2.365  0.00  0.00    -0.072 S 
BRANCH  17  26
ATOM     22  C1  UNL     1      -7.299   1.424  -1.462  0.00  0.00    +0.086 C 
ATOM     23  C2  UNL     1      -6.114   0.665  -0.971  0.00  0.00    +0.103 A 
ATOM     24  C3  UNL     1      -5.624  -0.505  -1.519  0.00  0.00    +0.045 A 
ATOM     25  C4  UNL     1      -4.516  -0.834  -0.766  0.00  0.00    +0.052 A 
ATOM     26  C5  UNL     1      -4.403   0.159   0.188  0.00  0.00    +0.160 A 
ATOM     27  O3  UNL     1      -5.366   1.040   0.041  0.00  0.00    -0.458 OA
ENDBRANCH  17  26
ENDBRANCH  16  19
ENDBRANCH   1  16
TORSDOF 4
