MODEL 1
REMARK VINA RESULT:    -6.229      0.000      0.000
REMARK INTER + INTRA:          -8.404
REMARK INTER:                  -7.686
REMARK INTRA:                  -0.718
REMARK UNBOUND:                -0.718
REMARK  Name = /home/qwerty/github/datacon2025hack/step_04_hit_selection/docking/ligands/lig_206.pdb
REMARK  5 active torsions:
REMARK  status: ('A' for Active; 'I' for Inactive)
REMARK    1  A    between atoms: C1_1  and  C2_2
REMARK    2  A    between atoms: C3_3  and  N1_4
REMARK    3  A    between atoms: C4_5  and  C5_7
REMARK    4  A    between atoms: C12_17  and  C13_19
REMARK    5  A    between atoms: C13_19  and  C14_20
REMARK                            x       y       z     vdW  Elec       q    Type
REMARK                         _______ _______ _______ _____ _____    ______ ____
ROOT
ATOM      1  C1  UNL     1      22.828   2.974  31.822  0.00  0.00    +0.030 C 
ATOM      2  C2  UNL     1      21.293   3.013  31.800  0.00  0.00    +0.093 C 
ATOM      3  C3  UNL     1      20.778   4.441  32.119  0.00  0.00    +0.093 C 
ATOM      4  C9  UNL     1      19.284   4.531  31.773  0.00  0.00    +0.025 C 
ATOM      5  C10 UNL     1      19.007   4.249  30.283  0.00  0.00    +0.021 C 
ATOM      6  C11 UNL     1      20.136   3.483  29.572  0.00  0.00    +0.108 C 
ATOM      7  N4  UNL     1      20.797   2.544  30.490  0.00  0.00    -0.297 N 
ATOM      8  C12 UNL     1      20.998   1.168  30.112  0.00  0.00    +0.223 C 
ATOM      9  O2  UNL     1      20.808   0.255  30.963  0.00  0.00    -0.275 OA
ENDROOT
BRANCH   3  10
ATOM     10  N1  UNL     1      20.981   4.771  33.536  0.00  0.00    -0.307 N 
ATOM     11  C4  UNL     1      21.869   5.819  33.955  0.00  0.00    +0.246 C 
ATOM     12  O1  UNL     1      22.635   6.360  33.111  0.00  0.00    -0.270 OA
ATOM     13  H6  UNL     1      20.524   4.177  34.264  0.00  0.00    +0.149 HD
BRANCH  11  14
ATOM     14  C5  UNL     1      21.918   6.265  35.368  0.00  0.00    +0.058 A 
ATOM     15  C6  UNL     1      20.761   6.671  36.051  0.00  0.00    +0.036 A 
ATOM     16  C7  UNL     1      20.857   7.089  37.378  0.00  0.00    +0.135 A 
ATOM     17  N2  UNL     1      22.070   7.106  37.990  0.00  0.00    -0.158 NA
ATOM     18  N3  UNL     1      23.177   6.731  37.348  0.00  0.00    -0.157 NA
ATOM     19  C8  UNL     1      23.142   6.315  36.054  0.00  0.00    +0.148 A 
ENDBRANCH  11  14
ENDBRANCH   3  10
BRANCH   8  20
ATOM     20  C13 UNL     1      21.562   0.800  28.768  0.00  0.00    +0.174 C 
BRANCH  20  21
ATOM     21  C14 UNL     1      22.897   0.156  28.948  0.00  0.00    +0.159 A 
ATOM     22  N5  UNL     1      23.108  -1.173  28.824  0.00  0.00    -0.219 NA
ATOM     23  C15 UNL     1      24.443  -1.263  28.984  0.00  0.00    +0.216 A 
ATOM     24  N6  UNL     1      24.997  -0.056  29.182  0.00  0.00    -0.265 N 
ATOM     25  N7  UNL     1      24.035   0.848  29.152  0.00  0.00    -0.157 NA
ATOM     26  H19 UNL     1      26.010   0.155  29.322  0.00  0.00    +0.190 HD
ENDBRANCH  20  21
ENDBRANCH   8  20
TORSDOF 4
ENDMDL
MODEL 2
REMARK VINA RESULT:    -5.898      5.622      9.890
REMARK INTER + INTRA:          -7.995
REMARK INTER:                  -7.290
REMARK INTRA:                  -0.705
REMARK UNBOUND:                -0.718
REMARK  Name = /home/qwerty/github/datacon2025hack/step_04_hit_selection/docking/ligands/lig_206.pdb
REMARK  5 active torsions:
REMARK  status: ('A' for Active; 'I' for Inactive)
REMARK    1  A    between atoms: C1_1  and  C2_2
REMARK    2  A    between atoms: C3_3  and  N1_4
REMARK    3  A    between atoms: C4_5  and  C5_7
REMARK    4  A    between atoms: C12_17  and  C13_19
REMARK    5  A    between atoms: C13_19  and  C14_20
REMARK                            x       y       z     vdW  Elec       q    Type
REMARK                         _______ _______ _______ _____ _____    ______ ____
ROOT
ATOM      1  C1  UNL     1      20.229   0.500  26.248  0.00  0.00    +0.030 C 
ATOM      2  C2  UNL     1      20.183   2.033  26.323  0.00  0.00    +0.093 C 
ATOM      3  C3  UNL     1      18.753   2.552  26.018  0.00  0.00    +0.093 C 
ATOM      4  C9  UNL     1      18.656   4.033  26.416  0.00  0.00    +0.025 C 
ATOM      5  C10 UNL     1      18.932   4.259  27.915  0.00  0.00    +0.021 C 
ATOM      6  C11 UNL     1      19.701   3.109  28.588  0.00  0.00    +0.108 C 
ATOM      7  N4  UNL     1      20.646   2.485  27.651  0.00  0.00    -0.297 N 
ATOM      8  C12 UNL     1      22.023   2.277  28.025  0.00  0.00    +0.223 C 
ATOM      9  O2  UNL     1      22.936   2.500  27.184  0.00  0.00    -0.275 OA
ENDROOT
BRANCH   3  10
ATOM     10  N1  UNL     1      18.428   2.397  24.594  0.00  0.00    -0.307 N 
ATOM     11  C4  UNL     1      17.362   1.546  24.144  0.00  0.00    +0.246 C 
ATOM     12  O1  UNL     1      16.798   0.769  24.962  0.00  0.00    -0.270 OA
ATOM     13  H6  UNL     1      19.037   2.860  23.883  0.00  0.00    +0.149 HD
BRANCH  11  14
ATOM     14  C5  UNL     1      16.924   1.547  22.727  0.00  0.00    +0.058 A 
ATOM     15  C6  UNL     1      16.512   0.370  22.084  0.00  0.00    +0.036 A 
ATOM     16  C7  UNL     1      16.117   0.420  20.748  0.00  0.00    +0.135 A 
ATOM     17  N2  UNL     1      16.142   1.604  20.083  0.00  0.00    -0.158 NA
ATOM     18  N3  UNL     1      16.541   2.727  20.682  0.00  0.00    -0.157 NA
ATOM     19  C8  UNL     1      16.938   2.737  21.982  0.00  0.00    +0.148 A 
ENDBRANCH  11  14
ENDBRANCH   3  10
BRANCH   8  20
ATOM     20  C13 UNL     1      22.389   1.669  29.349  0.00  0.00    +0.174 C 
BRANCH  20  21
ATOM     21  C14 UNL     1      23.127   0.391  29.122  0.00  0.00    +0.159 A 
ATOM     22  N5  UNL     1      24.469   0.273  29.230  0.00  0.00    -0.219 NA
ATOM     23  C15 UNL     1      24.654  -1.045  29.026  0.00  0.00    +0.216 A 
ATOM     24  N6  UNL     1      23.489  -1.680  28.820  0.00  0.00    -0.265 N 
ATOM     25  N7  UNL     1      22.518  -0.788  28.887  0.00  0.00    -0.157 NA
ATOM     26  H19 UNL     1      23.352  -2.701  28.650  0.00  0.00    +0.190 HD
ENDBRANCH  20  21
ENDBRANCH   8  20
TORSDOF 4
ENDMDL
MODEL 3
REMARK VINA RESULT:    -5.681      7.482     10.117
REMARK INTER + INTRA:          -7.728
REMARK INTER:                  -6.986
REMARK INTRA:                  -0.742
REMARK UNBOUND:                -0.718
REMARK  Name = /home/qwerty/github/datacon2025hack/step_04_hit_selection/docking/ligands/lig_206.pdb
REMARK  5 active torsions:
REMARK  status: ('A' for Active; 'I' for Inactive)
REMARK    1  A    between atoms: C1_1  and  C2_2
REMARK    2  A    between atoms: C3_3  and  N1_4
REMARK    3  A    between atoms: C4_5  and  C5_7
REMARK    4  A    between atoms: C12_17  and  C13_19
REMARK    5  A    between atoms: C13_19  and  C14_20
REMARK                            x       y       z     vdW  Elec       q    Type
REMARK                         _______ _______ _______ _____ _____    ______ ____
ROOT
ATOM      1  C1  UNL     1      17.336   1.606  23.628  0.00  0.00    +0.030 C 
ATOM      2  C2  UNL     1      16.928   0.371  24.444  0.00  0.00    +0.093 C 
ATOM      3  C3  UNL     1      17.149   0.620  25.959  0.00  0.00    +0.093 C 
ATOM      4  C9  UNL     1      16.438  -0.479  26.763  0.00  0.00    +0.025 C 
ATOM      5  C10 UNL     1      14.919  -0.509  26.505  0.00  0.00    +0.021 C 
ATOM      6  C11 UNL     1      14.495   0.183  25.198  0.00  0.00    +0.108 C 
ATOM      7  N4  UNL     1      15.521   0.023  24.157  0.00  0.00    -0.297 N 
ATOM      8  C12 UNL     1      15.165  -0.443  22.841  0.00  0.00    +0.223 C 
ATOM      9  O2  UNL     1      15.912  -1.272  22.252  0.00  0.00    -0.275 OA
ENDROOT
BRANCH   3  10
ATOM     10  N1  UNL     1      18.580   0.631  26.289  0.00  0.00    -0.307 N 
ATOM     11  C4  UNL     1      19.215   1.768  26.895  0.00  0.00    +0.246 C 
ATOM     12  O1  UNL     1      18.582   2.856  26.990  0.00  0.00    -0.270 OA
ATOM     13  H6  UNL     1      19.171  -0.183  26.006  0.00  0.00    +0.149 HD
BRANCH  11  14
ATOM     14  C5  UNL     1      20.609   1.695  27.394  0.00  0.00    +0.058 A 
ATOM     15  C6  UNL     1      20.981   0.796  28.405  0.00  0.00    +0.036 A 
ATOM     16  C7  UNL     1      22.303   0.769  28.848  0.00  0.00    +0.135 A 
ATOM     17  N2  UNL     1      23.213   1.616  28.300  0.00  0.00    -0.158 NA
ATOM     18  N3  UNL     1      22.868   2.480  27.344  0.00  0.00    -0.157 NA
ATOM     19  C8  UNL     1      21.593   2.551  26.876  0.00  0.00    +0.148 A 
ENDBRANCH  11  14
ENDBRANCH   3  10
BRANCH   8  20
ATOM     20  C13 UNL     1      13.997   0.139  22.095  0.00  0.00    +0.174 C 
BRANCH  20  21
ATOM     21  C14 UNL     1      14.489   1.146  21.109  0.00  0.00    +0.159 A 
ATOM     22  N5  UNL     1      14.634   2.459  21.391  0.00  0.00    -0.219 NA
ATOM     23  C15 UNL     1      15.172   2.936  20.252  0.00  0.00    +0.216 A 
ATOM     24  N6  UNL     1      15.349   1.961  19.346  0.00  0.00    -0.265 N 
ATOM     25  N7  UNL     1      14.931   0.827  19.877  0.00  0.00    -0.157 NA
ATOM     26  H19 UNL     1      15.756   2.059  18.389  0.00  0.00    +0.190 HD
ENDBRANCH  20  21
ENDBRANCH   8  20
TORSDOF 4
ENDMDL
MODEL 4
REMARK VINA RESULT:    -5.679      2.082      3.028
REMARK INTER + INTRA:          -7.725
REMARK INTER:                  -6.864
REMARK INTRA:                  -0.861
REMARK UNBOUND:                -0.718
REMARK  Name = /home/qwerty/github/datacon2025hack/step_04_hit_selection/docking/ligands/lig_206.pdb
REMARK  5 active torsions:
REMARK  status: ('A' for Active; 'I' for Inactive)
REMARK    1  A    between atoms: C1_1  and  C2_2
REMARK    2  A    between atoms: C3_3  and  N1_4
REMARK    3  A    between atoms: C4_5  and  C5_7
REMARK    4  A    between atoms: C12_17  and  C13_19
REMARK    5  A    between atoms: C13_19  and  C14_20
REMARK                            x       y       z     vdW  Elec       q    Type
REMARK                         _______ _______ _______ _____ _____    ______ ____
ROOT
ATOM      1  C1  UNL     1      21.787   3.807  30.374  0.00  0.00    +0.030 C 
ATOM      2  C2  UNL     1      21.771   2.556  31.265  0.00  0.00    +0.093 C 
ATOM      3  C3  UNL     1      20.831   2.764  32.481  0.00  0.00    +0.093 C 
ATOM      4  C9  UNL     1      20.577   1.412  33.165  0.00  0.00    +0.025 C 
ATOM      5  C10 UNL     1      19.911   0.392  32.221  0.00  0.00    +0.021 C 
ATOM      6  C11 UNL     1      20.075   0.723  30.727  0.00  0.00    +0.108 C 
ATOM      7  N4  UNL     1      21.366   1.378  30.470  0.00  0.00    -0.297 N 
ATOM      8  C12 UNL     1      22.235   0.903  29.423  0.00  0.00    +0.223 C 
ATOM      9  O2  UNL     1      23.478   0.842  29.627  0.00  0.00    -0.275 OA
ENDROOT
BRANCH   3  10
ATOM     10  N1  UNL     1      21.416   3.706  33.445  0.00  0.00    -0.307 N 
ATOM     11  C4  UNL     1      20.812   4.979  33.730  0.00  0.00    +0.246 C 
ATOM     12  O1  UNL     1      19.856   5.388  33.016  0.00  0.00    -0.270 OA
ATOM     13  H6  UNL     1      22.337   3.478  33.880  0.00  0.00    +0.149 HD
BRANCH  11  14
ATOM     14  C5  UNL     1      21.306   5.831  34.838  0.00  0.00    +0.058 A 
ATOM     15  C6  UNL     1      22.674   5.938  35.130  0.00  0.00    +0.036 A 
ATOM     16  C7  UNL     1      23.090   6.746  36.187  0.00  0.00    +0.135 A 
ATOM     17  N2  UNL     1      22.167   7.415  36.925  0.00  0.00    -0.158 NA
ATOM     18  N3  UNL     1      20.863   7.314  36.662  0.00  0.00    -0.157 NA
ATOM     19  C8  UNL     1      20.401   6.540  35.645  0.00  0.00    +0.148 A 
ENDBRANCH  11  14
ENDBRANCH   3  10
BRANCH   8  20
ATOM     20  C13 UNL     1      21.711   0.609  28.046  0.00  0.00    +0.174 C 
BRANCH  20  21
ATOM     21  C14 UNL     1      21.532   1.889  27.298  0.00  0.00    +0.159 A 
ATOM     22  N5  UNL     1      20.326   2.440  27.039  0.00  0.00    -0.219 NA
ATOM     23  C15 UNL     1      20.667   3.595  26.436  0.00  0.00    +0.216 A 
ATOM     24  N6  UNL     1      22.000   3.730  26.350  0.00  0.00    -0.265 N 
ATOM     25  N7  UNL     1      22.557   2.666  26.897  0.00  0.00    -0.157 NA
ATOM     26  H19 UNL     1      22.526   4.534  25.939  0.00  0.00    +0.190 HD
ENDBRANCH  20  21
ENDBRANCH   8  20
TORSDOF 4
ENDMDL
MODEL 5
REMARK VINA RESULT:    -5.606     13.770     16.481
REMARK INTER + INTRA:          -7.635
REMARK INTER:                  -6.778
REMARK INTRA:                  -0.857
REMARK UNBOUND:                -0.718
REMARK  Name = /home/qwerty/github/datacon2025hack/step_04_hit_selection/docking/ligands/lig_206.pdb
REMARK  5 active torsions:
REMARK  status: ('A' for Active; 'I' for Inactive)
REMARK    1  A    between atoms: C1_1  and  C2_2
REMARK    2  A    between atoms: C3_3  and  N1_4
REMARK    3  A    between atoms: C4_5  and  C5_7
REMARK    4  A    between atoms: C12_17  and  C13_19
REMARK    5  A    between atoms: C13_19  and  C14_20
REMARK                            x       y       z     vdW  Elec       q    Type
REMARK                         _______ _______ _______ _____ _____    ______ ____
ROOT
ATOM      1  C1  UNL     1      23.508  12.569  21.384  0.00  0.00    +0.030 C 
ATOM      2  C2  UNL     1      22.900  13.026  20.051  0.00  0.00    +0.093 C 
ATOM      3  C3  UNL     1      21.700  12.123  19.660  0.00  0.00    +0.093 C 
ATOM      4  C9  UNL     1      20.917  12.786  18.517  0.00  0.00    +0.025 C 
ATOM      5  C10 UNL     1      20.360  14.168  18.910  0.00  0.00    +0.021 C 
ATOM      6  C11 UNL     1      21.071  14.808  20.115  0.00  0.00    +0.108 C 
ATOM      7  N4  UNL     1      22.496  14.444  20.143  0.00  0.00    -0.297 N 
ATOM      8  C12 UNL     1      23.510  15.457  20.292  0.00  0.00    +0.223 C 
ATOM      9  O2  UNL     1      24.566  15.385  19.606  0.00  0.00    -0.275 OA
ENDROOT
BRANCH   3  10
ATOM     10  N1  UNL     1      22.157  10.791  19.242  0.00  0.00    -0.307 N 
ATOM     11  C4  UNL     1      21.782   9.598  19.950  0.00  0.00    +0.246 C 
ATOM     12  O1  UNL     1      21.193   9.695  21.061  0.00  0.00    -0.270 OA
ATOM     13  H6  UNL     1      22.836  10.714  18.451  0.00  0.00    +0.149 HD
BRANCH  11  14
ATOM     14  C5  UNL     1      22.091   8.254  19.408  0.00  0.00    +0.058 A 
ATOM     15  C6  UNL     1      21.086   7.416  18.901  0.00  0.00    +0.036 A 
ATOM     16  C7  UNL     1      21.425   6.156  18.409  0.00  0.00    +0.135 A 
ATOM     17  N2  UNL     1      22.721   5.752  18.432  0.00  0.00    -0.158 NA
ATOM     18  N3  UNL     1      23.684   6.537  18.920  0.00  0.00    -0.157 NA
ATOM     19  C8  UNL     1      23.411   7.774  19.413  0.00  0.00    +0.148 A 
ENDBRANCH  11  14
ENDBRANCH   3  10
BRANCH   8  20
ATOM     20  C13 UNL     1      23.400  16.524  21.345  0.00  0.00    +0.174 C 
BRANCH  20  21
ATOM     21  C14 UNL     1      23.828  15.967  22.663  0.00  0.00    +0.159 A 
ATOM     22  N5  UNL     1      22.972  15.433  23.561  0.00  0.00    -0.219 NA
ATOM     23  C15 UNL     1      23.807  15.000  24.525  0.00  0.00    +0.216 A 
ATOM     24  N6  UNL     1      25.089  15.252  24.214  0.00  0.00    -0.265 N 
ATOM     25  N7  UNL     1      25.116  15.853  23.039  0.00  0.00    -0.157 NA
ATOM     26  H19 UNL     1      25.932  15.011  24.782  0.00  0.00    +0.190 HD
ENDBRANCH  20  21
ENDBRANCH   8  20
TORSDOF 4
ENDMDL
MODEL 6
REMARK VINA RESULT:    -5.573     14.285     16.859
REMARK INTER + INTRA:          -7.595
REMARK INTER:                  -7.392
REMARK INTRA:                  -0.202
REMARK UNBOUND:                -0.718
REMARK  Name = /home/qwerty/github/datacon2025hack/step_04_hit_selection/docking/ligands/lig_206.pdb
REMARK  5 active torsions:
REMARK  status: ('A' for Active; 'I' for Inactive)
REMARK    1  A    between atoms: C1_1  and  C2_2
REMARK    2  A    between atoms: C3_3  and  N1_4
REMARK    3  A    between atoms: C4_5  and  C5_7
REMARK    4  A    between atoms: C12_17  and  C13_19
REMARK    5  A    between atoms: C13_19  and  C14_20
REMARK                            x       y       z     vdW  Elec       q    Type
REMARK                         _______ _______ _______ _____ _____    ______ ____
ROOT
ATOM      1  C1  UNL     1      20.812  14.508  22.352  0.00  0.00    +0.030 C 
ATOM      2  C2  UNL     1      21.551  14.377  21.012  0.00  0.00    +0.093 C 
ATOM      3  C3  UNL     1      20.635  14.814  19.838  0.00  0.00    +0.093 C 
ATOM      4  C9  UNL     1      21.484  14.987  18.570  0.00  0.00    +0.025 C 
ATOM      5  C10 UNL     1      22.582  16.056  18.738  0.00  0.00    +0.021 C 
ATOM      6  C11 UNL     1      22.930  16.368  20.203  0.00  0.00    +0.108 C 
ATOM      7  N4  UNL     1      22.796  15.171  21.046  0.00  0.00    -0.297 N 
ATOM      8  C12 UNL     1      23.859  14.775  21.935  0.00  0.00    +0.223 C 
ATOM      9  O2  UNL     1      24.159  13.555  22.042  0.00  0.00    -0.275 OA
ENDROOT
BRANCH   3  10
ATOM     10  N1  UNL     1      19.577  13.824  19.598  0.00  0.00    -0.307 N 
ATOM     11  C4  UNL     1      19.872  12.450  19.296  0.00  0.00    +0.246 C 
ATOM     12  O1  UNL     1      21.062  12.109  19.053  0.00  0.00    -0.270 OA
ATOM     13  H6  UNL     1      18.583  14.143  19.570  0.00  0.00    +0.149 HD
BRANCH  11  14
ATOM     14  C5  UNL     1      18.799  11.428  19.245  0.00  0.00    +0.058 A 
ATOM     15  C6  UNL     1      17.442  11.786  19.255  0.00  0.00    +0.036 A 
ATOM     16  C7  UNL     1      16.469  10.789  19.213  0.00  0.00    +0.135 A 
ATOM     17  N2  UNL     1      16.845   9.484  19.171  0.00  0.00    -0.158 NA
ATOM     18  N3  UNL     1      18.131   9.133  19.171  0.00  0.00    -0.157 NA
ATOM     19  C8  UNL     1      19.122  10.063  19.211  0.00  0.00    +0.148 A 
ENDBRANCH  11  14
ENDBRANCH   3  10
BRANCH   8  20
ATOM     20  C13 UNL     1      24.530  15.769  22.842  0.00  0.00    +0.174 C 
BRANCH  20  21
ATOM     21  C14 UNL     1      23.812  15.810  24.150  0.00  0.00    +0.159 A 
ATOM     22  N5  UNL     1      22.806  16.670  24.423  0.00  0.00    -0.219 NA
ATOM     23  C15 UNL     1      22.429  16.282  25.657  0.00  0.00    +0.216 A 
ATOM     24  N6  UNL     1      23.161  15.243  26.090  0.00  0.00    -0.265 N 
ATOM     25  N7  UNL     1      24.030  14.930  25.146  0.00  0.00    -0.157 NA
ATOM     26  H19 UNL     1      23.067  14.745  27.004  0.00  0.00    +0.190 HD
ENDBRANCH  20  21
ENDBRANCH   8  20
TORSDOF 4
ENDMDL
MODEL 7
REMARK VINA RESULT:    -5.498     14.490     17.217
REMARK INTER + INTRA:          -7.502
REMARK INTER:                  -6.675
REMARK INTRA:                  -0.827
REMARK UNBOUND:                -0.718
REMARK  Name = /home/qwerty/github/datacon2025hack/step_04_hit_selection/docking/ligands/lig_206.pdb
REMARK  5 active torsions:
REMARK  status: ('A' for Active; 'I' for Inactive)
REMARK    1  A    between atoms: C1_1  and  C2_2
REMARK    2  A    between atoms: C3_3  and  N1_4
REMARK    3  A    between atoms: C4_5  and  C5_7
REMARK    4  A    between atoms: C12_17  and  C13_19
REMARK    5  A    between atoms: C13_19  and  C14_20
REMARK                            x       y       z     vdW  Elec       q    Type
REMARK                         _______ _______ _______ _____ _____    ______ ____
ROOT
ATOM      1  C1  UNL     1      10.027  10.863  26.582  0.00  0.00    +0.030 C 
ATOM      2  C2  UNL     1       8.601  10.636  27.104  0.00  0.00    +0.093 C 
ATOM      3  C3  UNL     1       8.309   9.120  27.254  0.00  0.00    +0.093 C 
ATOM      4  C9  UNL     1       7.023   8.929  28.073  0.00  0.00    +0.025 C 
ATOM      5  C10 UNL     1       7.131   9.533  29.487  0.00  0.00    +0.021 C 
ATOM      6  C11 UNL     1       8.241  10.588  29.632  0.00  0.00    +0.108 C 
ATOM      7  N4  UNL     1       8.415  11.348  28.385  0.00  0.00    -0.297 N 
ATOM      8  C12 UNL     1       8.439  12.789  28.400  0.00  0.00    +0.223 C 
ATOM      9  O2  UNL     1       7.839  13.430  27.494  0.00  0.00    -0.275 OA
ENDROOT
BRANCH   3  10
ATOM     10  N1  UNL     1       8.163   8.478  25.941  0.00  0.00    -0.307 N 
ATOM     11  C4  UNL     1       8.876   7.281  25.593  0.00  0.00    +0.246 C 
ATOM     12  O1  UNL     1       9.789   6.857  26.354  0.00  0.00    -0.270 OA
ATOM     13  H6  UNL     1       7.580   8.947  25.211  0.00  0.00    +0.149 HD
BRANCH  11  14
ATOM     14  C5  UNL     1       8.575   6.543  24.343  0.00  0.00    +0.058 A 
ATOM     15  C6  UNL     1       8.138   5.209  24.364  0.00  0.00    +0.036 A 
ATOM     16  C7  UNL     1       7.875   4.554  23.162  0.00  0.00    +0.135 A 
ATOM     17  N2  UNL     1       8.050   5.211  21.986  0.00  0.00    -0.158 NA
ATOM     18  N3  UNL     1       8.474   6.475  21.954  0.00  0.00    -0.157 NA
ATOM     19  C8  UNL     1       8.747   7.162  23.095  0.00  0.00    +0.148 A 
ENDBRANCH  11  14
ENDBRANCH   3  10
BRANCH   8  20
ATOM     20  C13 UNL     1       9.277  13.546  29.392  0.00  0.00    +0.174 C 
BRANCH  20  21
ATOM     21  C14 UNL     1      10.680  13.637  28.890  0.00  0.00    +0.159 A 
ATOM     22  N5  UNL     1      11.659  12.779  29.251  0.00  0.00    -0.219 NA
ATOM     23  C15 UNL     1      12.694  13.198  28.498  0.00  0.00    +0.216 A 
ATOM     24  N6  UNL     1      12.349  14.239  27.723  0.00  0.00    -0.265 N 
ATOM     25  N7  UNL     1      11.080  14.520  27.955  0.00  0.00    -0.157 NA
ATOM     26  H19 UNL     1      12.958  14.744  27.041  0.00  0.00    +0.190 HD
ENDBRANCH  20  21
ENDBRANCH   8  20
TORSDOF 4
ENDMDL
MODEL 8
REMARK VINA RESULT:    -5.481      5.546      9.998
REMARK INTER + INTRA:          -7.481
REMARK INTER:                  -6.645
REMARK INTRA:                  -0.836
REMARK UNBOUND:                -0.718
REMARK  Name = /home/qwerty/github/datacon2025hack/step_04_hit_selection/docking/ligands/lig_206.pdb
REMARK  5 active torsions:
REMARK  status: ('A' for Active; 'I' for Inactive)
REMARK    1  A    between atoms: C1_1  and  C2_2
REMARK    2  A    between atoms: C3_3  and  N1_4
REMARK    3  A    between atoms: C4_5  and  C5_7
REMARK    4  A    between atoms: C12_17  and  C13_19
REMARK    5  A    between atoms: C13_19  and  C14_20
REMARK                            x       y       z     vdW  Elec       q    Type
REMARK                         _______ _______ _______ _____ _____    ______ ____
ROOT
ATOM      1  C1  UNL     1      19.245   1.168  27.574  0.00  0.00    +0.030 C 
ATOM      2  C2  UNL     1      20.475   1.315  26.667  0.00  0.00    +0.093 C 
ATOM      3  C3  UNL     1      20.173   2.279  25.490  0.00  0.00    +0.093 C 
ATOM      4  C9  UNL     1      21.490   2.662  24.797  0.00  0.00    +0.025 C 
ATOM      5  C10 UNL     1      22.471   3.371  25.750  0.00  0.00    +0.021 C 
ATOM      6  C11 UNL     1      22.180   3.128  27.241  0.00  0.00    +0.108 C 
ATOM      7  N4  UNL     1      21.631   1.781  27.460  0.00  0.00    -0.297 N 
ATOM      8  C12 UNL     1      22.190   0.915  28.467  0.00  0.00    +0.223 C 
ATOM      9  O2  UNL     1      22.344  -0.312  28.216  0.00  0.00    -0.275 OA
ENDROOT
BRANCH   3  10
ATOM     10  N1  UNL     1      19.263   1.657  24.519  0.00  0.00    -0.307 N 
ATOM     11  C4  UNL     1      18.079   2.322  24.048  0.00  0.00    +0.246 C 
ATOM     12  O1  UNL     1      17.703   3.389  24.605  0.00  0.00    -0.270 OA
ATOM     13  H6  UNL     1      19.440   0.672  24.217  0.00  0.00    +0.149 HD
BRANCH  11  14
ATOM     14  C5  UNL     1      17.278   1.765  22.932  0.00  0.00    +0.058 A 
ATOM     15  C6  UNL     1      16.893   2.555  21.838  0.00  0.00    +0.036 A 
ATOM     16  C7  UNL     1      16.133   1.990  20.816  0.00  0.00    +0.135 A 
ATOM     17  N2  UNL     1      15.768   0.683  20.894  0.00  0.00    -0.158 NA
ATOM     18  N3  UNL     1      16.120  -0.074  21.934  0.00  0.00    -0.157 NA
ATOM     19  C8  UNL     1      16.860   0.425  22.959  0.00  0.00    +0.148 A 
ENDBRANCH  11  14
ENDBRANCH   3  10
BRANCH   8  20
ATOM     20  C13 UNL     1      22.466   1.411  29.858  0.00  0.00    +0.174 C 
BRANCH  20  21
ATOM     21  C14 UNL     1      21.196   1.422  30.644  0.00  0.00    +0.159 A 
ATOM     22  N5  UNL     1      20.522   2.549  30.958  0.00  0.00    -0.219 NA
ATOM     23  C15 UNL     1      19.430   2.062  31.578  0.00  0.00    +0.216 A 
ATOM     24  N6  UNL     1      19.446   0.720  31.620  0.00  0.00    -0.265 N 
ATOM     25  N7  UNL     1      20.550   0.304  31.027  0.00  0.00    -0.157 NA
ATOM     26  H19 UNL     1      18.717   0.095  32.032  0.00  0.00    +0.190 HD
ENDBRANCH  20  21
ENDBRANCH   8  20
TORSDOF 4
ENDMDL
MODEL 9
REMARK VINA RESULT:    -5.425     14.657     15.973
REMARK INTER + INTRA:          -7.412
REMARK INTER:                  -6.674
REMARK INTRA:                  -0.738
REMARK UNBOUND:                -0.718
REMARK  Name = /home/qwerty/github/datacon2025hack/step_04_hit_selection/docking/ligands/lig_206.pdb
REMARK  5 active torsions:
REMARK  status: ('A' for Active; 'I' for Inactive)
REMARK    1  A    between atoms: C1_1  and  C2_2
REMARK    2  A    between atoms: C3_3  and  N1_4
REMARK    3  A    between atoms: C4_5  and  C5_7
REMARK    4  A    between atoms: C12_17  and  C13_19
REMARK    5  A    between atoms: C13_19  and  C14_20
REMARK                            x       y       z     vdW  Elec       q    Type
REMARK                         _______ _______ _______ _____ _____    ______ ____
ROOT
ATOM      1  C1  UNL     1       9.834   7.254  23.926  0.00  0.00    +0.030 C 
ATOM      2  C2  UNL     1       8.813   8.091  23.143  0.00  0.00    +0.093 C 
ATOM      3  C3  UNL     1       8.935   9.592  23.517  0.00  0.00    +0.093 C 
ATOM      4  C9  UNL     1       8.149  10.435  22.501  0.00  0.00    +0.025 C 
ATOM      5  C10 UNL     1       8.673  10.261  21.062  0.00  0.00    +0.021 C 
ATOM      6  C11 UNL     1       9.497   8.980  20.848  0.00  0.00    +0.108 C 
ATOM      7  N4  UNL     1       8.999   7.884  21.692  0.00  0.00    -0.297 N 
ATOM      8  C12 UNL     1       8.719   6.589  21.125  0.00  0.00    +0.223 C 
ATOM      9  O2  UNL     1       7.688   5.960  21.491  0.00  0.00    -0.275 OA
ENDROOT
BRANCH   3  10
ATOM     10  N1  UNL     1       8.424   9.841  24.871  0.00  0.00    -0.307 N 
ATOM     11  C4  UNL     1       9.246  10.408  25.905  0.00  0.00    +0.246 C 
ATOM     12  O1  UNL     1      10.486  10.536  25.713  0.00  0.00    -0.270 OA
ATOM     13  H6  UNL     1       7.457   9.528  25.113  0.00  0.00    +0.149 HD
BRANCH  11  14
ATOM     14  C5  UNL     1       8.666  10.829  27.203  0.00  0.00    +0.058 A 
ATOM     15  C6  UNL     1       8.852  12.126  27.705  0.00  0.00    +0.036 A 
ATOM     16  C7  UNL     1       8.295  12.473  28.935  0.00  0.00    +0.135 A 
ATOM     17  N2  UNL     1       7.584  11.551  29.635  0.00  0.00    -0.158 NA
ATOM     18  N3  UNL     1       7.409  10.312  29.171  0.00  0.00    -0.157 NA
ATOM     19  C8  UNL     1       7.931   9.919  27.979  0.00  0.00    +0.148 A 
ENDBRANCH  11  14
ENDBRANCH   3  10
BRANCH   8  20
ATOM     20  C13 UNL     1       9.696   5.909  20.207  0.00  0.00    +0.174 C 
BRANCH  20  21
ATOM     21  C14 UNL     1      10.475   4.893  20.976  0.00  0.00    +0.159 A 
ATOM     22  N5  UNL     1      11.619   5.173  21.638  0.00  0.00    -0.219 NA
ATOM     23  C15 UNL     1      11.896   3.996  22.232  0.00  0.00    +0.216 A 
ATOM     24  N6  UNL     1      10.965   3.071  21.950  0.00  0.00    -0.265 N 
ATOM     25  N7  UNL     1      10.059   3.626  21.167  0.00  0.00    -0.157 NA
ATOM     26  H19 UNL     1      10.937   2.084  22.291  0.00  0.00    +0.190 HD
ENDBRANCH  20  21
ENDBRANCH   8  20
TORSDOF 4
ENDMDL
