REMARK  Name = /home/qwerty/github/datacon2025hack/step_04_hit_selection/docking/ligands/lig_199.pdb
REMARK  6 active torsions:
REMARK  status: ('A' for Active; 'I' for Inactive)
REMARK    1  A    between atoms: C1_2  and  C11_16
REMARK    2  A    between atoms: N1_3  and  C2_4
REMARK    3  A    between atoms: C4_6  and  C5_7
REMARK    4  A    between atoms: C5_7  and  N2_8
REMARK    5  A    between atoms: N2_8  and  C6_9
REMARK    6  A    between atoms: C6_9  and  C7_10
REMARK                            x       y       z     vdW  Elec       q    Type
REMARK                         _______ _______ _______ _____ _____    ______ ____
ROOT
ATOM      1  O1  UNL     1       1.928  -2.728  -0.579  0.00  0.00    -0.270 OA
ATOM      2  C1  UNL     1       1.915  -1.468  -0.656  0.00  0.00    +0.244 C 
ATOM      3  N1  UNL     1       0.853  -0.815  -1.369  0.00  0.00    -0.308 N 
ATOM      4  H1  UNL     1       0.961   0.190  -1.632  0.00  0.00    +0.149 HD
ENDROOT
BRANCH   2   5
ATOM      5  C11 UNL     1       3.003  -0.689  -0.020  0.00  0.00    +0.037 A 
ATOM      6  C12 UNL     1       2.808   0.662   0.365  0.00  0.00    +0.013 A 
ATOM      7  C13 UNL     1       3.846   1.385   0.975  0.00  0.00    +0.007 A 
ATOM      8  C14 UNL     1       5.062   0.740   1.195  0.00  0.00    -0.017 A 
ATOM      9  C15 UNL     1       5.255  -0.546   0.844  0.00  0.00    -0.016 A 
ATOM     10  C16 UNL     1       4.251  -1.301   0.237  0.00  0.00    +0.019 A 
ATOM     11  C17 UNL     1       6.625  -0.940   1.211  0.00  0.00    +0.195 C 
ATOM     12  O3  UNL     1       7.241   0.196   1.806  0.00  0.00    -0.371 OA
ATOM     13  C18 UNL     1       6.294   1.257   1.814  0.00  0.00    +0.195 C 
ENDBRANCH   2   5
BRANCH   3  14
ATOM     14  C2  UNL     1      -0.326  -1.557  -1.827  0.00  0.00    +0.074 C 
ATOM     15  C3  UNL     1      -1.406  -0.658  -2.430  0.00  0.00    +0.027 C 
ATOM     16  C4  UNL     1      -2.343  -1.014  -1.273  0.00  0.00    +0.006 C 
ATOM     17  C10 UNL     1      -1.262  -1.915  -0.675  0.00  0.00    +0.027 C 
BRANCH  16  18
ATOM     18  C5  UNL     1      -2.703   0.182  -0.364  0.00  0.00    +0.085 C 
BRANCH  18  19
ATOM     19  N2  UNL     1      -3.685   1.085  -0.990  0.00  0.00    -0.310 NA
ATOM     20  H8  UNL     1      -3.484   1.172  -2.014  0.00  0.00    +0.122 HD
BRANCH  19  21
ATOM     21  C6  UNL     1      -5.069   0.621  -0.818  0.00  0.00    +0.140 C 
BRANCH  21  22
ATOM     22  C7  UNL     1      -5.576   0.988   0.542  0.00  0.00    +0.097 A 
ATOM     23  C8  UNL     1      -5.834   2.264   0.993  0.00  0.00    +0.068 A 
ATOM     24  C9  UNL     1      -6.240   2.074   2.296  0.00  0.00    +0.230 A 
ATOM     25  O2  UNL     1      -6.207   0.787   2.559  0.00  0.00    -0.363 OA
ATOM     26  N3  UNL     1      -5.809   0.101   1.527  0.00  0.00    -0.082 NA
ENDBRANCH  21  22
ENDBRANCH  19  21
ENDBRANCH  18  19
ENDBRANCH  16  18
ENDBRANCH   3  14
TORSDOF 6
