REMARK  Name = /home/qwerty/github/datacon2025hack/step_04_hit_selection/docking/ligands/lig_370.pdb
REMARK  5 active torsions:
REMARK  status: ('A' for Active; 'I' for Inactive)
REMARK    1  A    between atoms: C1_2  and  C17_20
REMARK    2  A    between atoms: N1_3  and  C2_4
REMARK    3  A    between atoms: C5_7  and  C6_8
REMARK    4  A    between atoms: C21_24  and  C22_25
REMARK    5  A    between atoms: C23_26  and  C24_27
REMARK                            x       y       z     vdW  Elec       q    Type
REMARK                         _______ _______ _______ _____ _____    ______ ____
ROOT
ATOM      1  O1  UNL     1      -0.104  -1.468  -3.313  0.00  0.00    -0.270 OA
ATOM      2  C1  UNL     1       0.745  -0.793  -2.669  0.00  0.00    +0.248 C 
ATOM      3  N1  UNL     1       0.302   0.268  -1.805  0.00  0.00    -0.282 N 
ATOM      4  H1  UNL     1       0.942   1.082  -1.661  0.00  0.00    +0.155 HD
ENDROOT
BRANCH   3   5
ATOM      5  C2  UNL     1      -1.023   0.349  -1.252  0.00  0.00    +0.034 A 
ATOM      6  C3  UNL     1      -1.574   1.605  -0.962  0.00  0.00    +0.024 A 
ATOM      7  C4  UNL     1      -2.851   1.710  -0.406  0.00  0.00    +0.012 A 
ATOM      8  C5  UNL     1      -3.603   0.555  -0.118  0.00  0.00    +0.000 A 
ATOM      9  C15 UNL     1      -3.034  -0.704  -0.378  0.00  0.00    +0.012 A 
ATOM     10  C16 UNL     1      -1.757  -0.807  -0.937  0.00  0.00    +0.024 A 
BRANCH   8  11
ATOM     11  C6  UNL     1      -4.960   0.643   0.481  0.00  0.00    +0.072 A 
ATOM     12  C7  UNL     1      -5.805   1.742   0.237  0.00  0.00    +0.029 A 
ATOM     13  C8  UNL     1      -7.076   1.782   0.816  0.00  0.00    +0.012 A 
ATOM     14  C9  UNL     1      -7.505   0.729   1.630  0.00  0.00    +0.000 A 
ATOM     15  C10 UNL     1      -8.776   0.738   2.226  0.00  0.00    +0.010 A 
ATOM     16  C11 UNL     1      -9.176  -0.333   3.031  0.00  0.00    +0.001 A 
ATOM     17  C12 UNL     1      -8.314  -1.414   3.245  0.00  0.00    +0.002 A 
ATOM     18  C13 UNL     1      -7.047  -1.430   2.654  0.00  0.00    +0.028 A 
ATOM     19  C14 UNL     1      -6.637  -0.362   1.847  0.00  0.00    +0.072 A 
ATOM     20  N2  UNL     1      -5.406  -0.374   1.271  0.00  0.00    -0.247 NA
ENDBRANCH   8  11
ENDBRANCH   3   5
BRANCH   2  21
ATOM     21  C17 UNL     1       2.190  -1.070  -2.853  0.00  0.00    +0.038 A 
ATOM     22  C18 UNL     1       2.634  -1.793  -3.976  0.00  0.00    +0.013 A 
ATOM     23  C19 UNL     1       3.993  -2.063  -4.153  0.00  0.00    +0.002 A 
ATOM     24  C20 UNL     1       4.925  -1.623  -3.212  0.00  0.00    +0.017 A 
ATOM     25  C21 UNL     1       4.499  -0.912  -2.085  0.00  0.00    +0.026 A 
ATOM     26  C30 UNL     1       3.136  -0.639  -1.904  0.00  0.00    +0.030 A 
BRANCH  25  27
ATOM     27  C22 UNL     1       5.459  -0.469  -1.108  0.00  0.00    -0.061 C 
ATOM     28  C23 UNL     1       6.262  -0.096  -0.290  0.00  0.00    -0.061 C 
BRANCH  28  29
ATOM     29  C24 UNL     1       7.220   0.348   0.687  0.00  0.00    +0.025 A 
ATOM     30  C25 UNL     1       8.464   0.847   0.275  0.00  0.00    +0.019 A 
ATOM     31  C26 UNL     1       9.394   1.280   1.226  0.00  0.00    +0.039 A 
ATOM     32  C27 UNL     1       9.084   1.217   2.589  0.00  0.00    +0.123 A 
ATOM     33  F1  UNL     1       9.986   1.637   3.509  0.00  0.00    -0.205 F 
ATOM     34  C28 UNL     1       7.843   0.719   3.002  0.00  0.00    +0.039 A 
ATOM     35  C29 UNL     1       6.911   0.285   2.053  0.00  0.00    +0.019 A 
ENDBRANCH  28  29
ENDBRANCH  25  27
ENDBRANCH   2  21
TORSDOF 5
