MODEL 1
REMARK VINA RESULT:    -6.522      0.000      0.000
REMARK INTER + INTRA:          -8.683
REMARK INTER:                  -7.666
REMARK INTRA:                  -1.018
REMARK UNBOUND:                -1.018
REMARK  Name = /home/qwerty/github/datacon2025hack/step_04_hit_selection/docking/ligands/lig_143.pdb
REMARK  3 active torsions:
REMARK  status: ('A' for Active; 'I' for Inactive)
REMARK    1  A    between atoms: C1_2  and  C13_18
REMARK    2  A    between atoms: N1_3  and  C2_4
REMARK    3  A    between atoms: C7_9  and  C8_10
REMARK                            x       y       z     vdW  Elec       q    Type
REMARK                         _______ _______ _______ _____ _____    ______ ____
ROOT
ATOM      1  C2  UNL     1      22.189   2.002  30.971  0.00  0.00    +0.043 A 
ATOM      2  C3  UNL     1      23.235   1.802  30.058  0.00  0.00    +0.024 A 
ATOM      3  C4  UNL     1      23.038   1.030  28.912  0.00  0.00    +0.002 A 
ATOM      4  C5  UNL     1      21.795   0.446  28.667  0.00  0.00    +0.001 A 
ATOM      5  C6  UNL     1      20.752   0.611  29.581  0.00  0.00    +0.012 A 
ATOM      6  C7  UNL     1      20.939   1.365  30.753  0.00  0.00    +0.023 A 
ENDROOT
BRANCH   6   7
ATOM      7  C8  UNL     1      19.836   1.428  31.737  0.00  0.00    +0.092 A 
ATOM      8  C9  UNL     1      19.391   0.370  32.541  0.00  0.00    +0.121 A 
ATOM      9  N2  UNL     1      18.381   0.868  33.255  0.00  0.00    -0.300 N 
ATOM     10  C10 UNL     1      17.523   0.433  34.201  0.00  0.00    +0.100 A 
ATOM     11  C11 UNL     1      16.638   1.447  34.594  0.00  0.00    +0.067 A 
ATOM     12  S1  UNL     1      16.978   2.880  33.712  0.00  0.00    -0.058 S 
ATOM     13  C12 UNL     1      18.226   2.121  32.893  0.00  0.00    +0.178 A 
ATOM     14  N3  UNL     1      19.085   2.548  31.949  0.00  0.00    -0.221 NA
ENDBRANCH   6   7
BRANCH   1  17
ATOM     15  O1  UNL     1      21.821   4.832  30.961  0.00  0.00    -0.269 OA
ATOM     16  C1  UNL     1      22.037   4.260  32.063  0.00  0.00    +0.255 C 
ATOM     17  N1  UNL     1      22.410   2.874  32.089  0.00  0.00    -0.280 N 
ATOM     18  H1  UNL     1      23.007   2.528  32.873  0.00  0.00    +0.155 HD
BRANCH  16  19
ATOM     19  C13 UNL     1      21.883   5.022  33.313  0.00  0.00    +0.075 A 
ATOM     20  C14 UNL     1      22.910   5.433  34.160  0.00  0.00    +0.024 A 
ATOM     21  C15 UNL     1      22.442   6.080  35.310  0.00  0.00    -0.036 A 
ATOM     22  C16 UNL     1      21.060   6.207  35.350  0.00  0.00    -0.006 A 
ATOM     23  S2  UNL     1      20.404   5.461  33.995  0.00  0.00    -0.088 S 
ATOM     24  C17 UNL     1      20.296   6.769  36.509  0.00  0.00    +0.043 C 
ATOM     25  C18 UNL     1      21.211   7.628  37.398  0.00  0.00    +0.005 C 
ATOM     26  C19 UNL     1      22.548   6.920  37.675  0.00  0.00    +0.005 C 
ATOM     27  C20 UNL     1      23.330   6.665  36.373  0.00  0.00    +0.036 C 
ENDBRANCH  16  19
ENDBRANCH   1  17
TORSDOF 3
ENDMDL
MODEL 2
REMARK VINA RESULT:    -6.521      3.202      5.160
REMARK INTER + INTRA:          -8.682
REMARK INTER:                  -7.640
REMARK INTRA:                  -1.042
REMARK UNBOUND:                -1.018
REMARK  Name = /home/qwerty/github/datacon2025hack/step_04_hit_selection/docking/ligands/lig_143.pdb
REMARK  3 active torsions:
REMARK  status: ('A' for Active; 'I' for Inactive)
REMARK    1  A    between atoms: C1_2  and  C13_18
REMARK    2  A    between atoms: N1_3  and  C2_4
REMARK    3  A    between atoms: C7_9  and  C8_10
REMARK                            x       y       z     vdW  Elec       q    Type
REMARK                         _______ _______ _______ _____ _____    ______ ____
ROOT
ATOM      1  C2  UNL     1      19.937   2.676  32.290  0.00  0.00    +0.043 A 
ATOM      2  C3  UNL     1      19.278   2.151  33.411  0.00  0.00    +0.024 A 
ATOM      3  C4  UNL     1      18.795   0.841  33.400  0.00  0.00    +0.002 A 
ATOM      4  C5  UNL     1      18.964   0.043  32.269  0.00  0.00    +0.001 A 
ATOM      5  C6  UNL     1      19.593   0.561  31.134  0.00  0.00    +0.012 A 
ATOM      6  C7  UNL     1      20.063   1.886  31.118  0.00  0.00    +0.023 A 
ENDROOT
BRANCH   6   7
ATOM      7  C8  UNL     1      20.631   2.419  29.861  0.00  0.00    +0.092 A 
ATOM      8  C9  UNL     1      21.661   1.834  29.112  0.00  0.00    +0.121 A 
ATOM      9  N2  UNL     1      21.859   2.654  28.079  0.00  0.00    -0.300 N 
ATOM     10  C10 UNL     1      22.660   2.711  26.995  0.00  0.00    +0.100 A 
ATOM     11  C11 UNL     1      22.407   3.862  26.233  0.00  0.00    +0.067 A 
ATOM     12  S1  UNL     1      21.162   4.781  26.976  0.00  0.00    -0.058 S 
ATOM     13  C12 UNL     1      21.023   3.658  28.211  0.00  0.00    +0.178 A 
ATOM     14  N3  UNL     1      20.229   3.594  29.295  0.00  0.00    -0.221 NA
ENDBRANCH   6   7
BRANCH   1  17
ATOM     15  O1  UNL     1      22.652   3.291  32.919  0.00  0.00    -0.269 OA
ATOM     16  C1  UNL     1      21.903   4.224  32.523  0.00  0.00    +0.255 C 
ATOM     17  N1  UNL     1      20.493   3.997  32.376  0.00  0.00    -0.280 N 
ATOM     18  H1  UNL     1      19.838   4.800  32.503  0.00  0.00    +0.155 HD
BRANCH  16  19
ATOM     19  C13 UNL     1      22.492   5.533  32.199  0.00  0.00    +0.075 A 
ATOM     20  C14 UNL     1      23.639   6.085  32.766  0.00  0.00    +0.024 A 
ATOM     21  C15 UNL     1      23.908   7.379  32.302  0.00  0.00    -0.036 A 
ATOM     22  C16 UNL     1      22.999   7.826  31.352  0.00  0.00    -0.006 A 
ATOM     23  S2  UNL     1      21.820   6.651  31.129  0.00  0.00    -0.088 S 
ATOM     24  C17 UNL     1      22.998   9.205  30.767  0.00  0.00    +0.043 C 
ATOM     25  C18 UNL     1      24.372   9.873  30.946  0.00  0.00    +0.005 C 
ATOM     26  C19 UNL     1      24.904   9.684  32.378  0.00  0.00    +0.005 C 
ATOM     27  C20 UNL     1      25.103   8.194  32.711  0.00  0.00    +0.036 C 
ENDBRANCH  16  19
ENDBRANCH   1  17
TORSDOF 3
ENDMDL
MODEL 3
REMARK VINA RESULT:    -6.518      5.407      9.354
REMARK INTER + INTRA:          -8.678
REMARK INTER:                  -7.644
REMARK INTRA:                  -1.034
REMARK UNBOUND:                -1.018
REMARK  Name = /home/qwerty/github/datacon2025hack/step_04_hit_selection/docking/ligands/lig_143.pdb
REMARK  3 active torsions:
REMARK  status: ('A' for Active; 'I' for Inactive)
REMARK    1  A    between atoms: C1_2  and  C13_18
REMARK    2  A    between atoms: N1_3  and  C2_4
REMARK    3  A    between atoms: C7_9  and  C8_10
REMARK                            x       y       z     vdW  Elec       q    Type
REMARK                         _______ _______ _______ _____ _____    ______ ____
ROOT
ATOM      1  C2  UNL     1      20.423   3.471  25.345  0.00  0.00    +0.043 A 
ATOM      2  C3  UNL     1      20.729   4.305  24.260  0.00  0.00    +0.024 A 
ATOM      3  C4  UNL     1      21.943   4.991  24.214  0.00  0.00    +0.002 A 
ATOM      4  C5  UNL     1      22.864   4.853  25.253  0.00  0.00    +0.001 A 
ATOM      5  C6  UNL     1      22.562   4.049  26.355  0.00  0.00    +0.012 A 
ATOM      6  C7  UNL     1      21.332   3.371  26.430  0.00  0.00    +0.023 A 
ENDROOT
BRANCH   6   7
ATOM      7  C8  UNL     1      21.017   2.613  27.660  0.00  0.00    +0.092 A 
ATOM      8  C9  UNL     1      21.801   1.596  28.222  0.00  0.00    +0.121 A 
ATOM      9  N2  UNL     1      21.135   1.190  29.303  0.00  0.00    -0.300 N 
ATOM     10  C10 UNL     1      21.296   0.282  30.288  0.00  0.00    +0.100 A 
ATOM     11  C11 UNL     1      20.219   0.304  31.186  0.00  0.00    +0.067 A 
ATOM     12  S1  UNL     1      19.081   1.490  30.689  0.00  0.00    -0.058 S 
ATOM     13  C12 UNL     1      20.031   1.899  29.371  0.00  0.00    +0.178 A 
ATOM     14  N3  UNL     1      19.876   2.800  28.384  0.00  0.00    -0.221 NA
ENDBRANCH   6   7
BRANCH   1  17
ATOM     15  O1  UNL     1      20.146   0.811  24.348  0.00  0.00    -0.269 OA
ATOM     16  C1  UNL     1      19.171   1.327  24.958  0.00  0.00    +0.255 C 
ATOM     17  N1  UNL     1      19.201   2.718  25.310  0.00  0.00    -0.280 N 
ATOM     18  H1  UNL     1      18.298   3.239  25.379  0.00  0.00    +0.155 HD
BRANCH  16  19
ATOM     19  C13 UNL     1      18.020   0.484  25.318  0.00  0.00    +0.075 A 
ATOM     20  C14 UNL     1      17.743  -0.790  24.826  0.00  0.00    +0.024 A 
ATOM     21  C15 UNL     1      16.533  -1.309  25.305  0.00  0.00    -0.036 A 
ATOM     22  C16 UNL     1      15.883  -0.464  26.195  0.00  0.00    -0.006 A 
ATOM     23  S2  UNL     1      16.765   0.957  26.343  0.00  0.00    -0.088 S 
ATOM     24  C17 UNL     1      14.529  -0.732  26.778  0.00  0.00    +0.043 C 
ATOM     25  C18 UNL     1      14.184  -2.228  26.686  0.00  0.00    +0.005 C 
ATOM     26  C19 UNL     1      14.507  -2.793  25.291  0.00  0.00    +0.005 C 
ATOM     27  C20 UNL     1      16.009  -2.678  24.972  0.00  0.00    +0.036 C 
ENDBRANCH  16  19
ENDBRANCH   1  17
TORSDOF 3
ENDMDL
MODEL 4
REMARK VINA RESULT:    -6.442     14.310     16.459
REMARK INTER + INTRA:          -8.589
REMARK INTER:                  -7.545
REMARK INTRA:                  -1.044
REMARK UNBOUND:                -1.018
REMARK  Name = /home/qwerty/github/datacon2025hack/step_04_hit_selection/docking/ligands/lig_143.pdb
REMARK  3 active torsions:
REMARK  status: ('A' for Active; 'I' for Inactive)
REMARK    1  A    between atoms: C1_2  and  C13_18
REMARK    2  A    between atoms: N1_3  and  C2_4
REMARK    3  A    between atoms: C7_9  and  C8_10
REMARK                            x       y       z     vdW  Elec       q    Type
REMARK                         _______ _______ _______ _____ _____    ______ ____
ROOT
ATOM      1  C2  UNL     1       8.521   8.521  27.837  0.00  0.00    +0.043 A 
ATOM      2  C3  UNL     1       7.801   7.391  28.251  0.00  0.00    +0.024 A 
ATOM      3  C4  UNL     1       7.129   7.388  29.475  0.00  0.00    +0.002 A 
ATOM      4  C5  UNL     1       7.171   8.512  30.298  0.00  0.00    +0.001 A 
ATOM      5  C6  UNL     1       7.908   9.635  29.914  0.00  0.00    +0.012 A 
ATOM      6  C7  UNL     1       8.612   9.646  28.696  0.00  0.00    +0.023 A 
ENDROOT
BRANCH   6   7
ATOM      7  C8  UNL     1       9.457  10.818  28.379  0.00  0.00    +0.092 A 
ATOM      8  C9  UNL     1       9.029  12.151  28.333  0.00  0.00    +0.121 A 
ATOM      9  N2  UNL     1      10.108  12.859  27.997  0.00  0.00    -0.300 N 
ATOM     10  C10 UNL     1      10.421  14.155  27.786  0.00  0.00    +0.100 A 
ATOM     11  C11 UNL     1      11.772  14.304  27.438  0.00  0.00    +0.067 A 
ATOM     12  S1  UNL     1      12.531  12.765  27.407  0.00  0.00    -0.058 S 
ATOM     13  C12 UNL     1      11.099  12.011  27.839  0.00  0.00    +0.178 A 
ATOM     14  N3  UNL     1      10.778  10.722  28.050  0.00  0.00    -0.221 NA
ENDBRANCH   6   7
BRANCH   1  17
ATOM     15  O1  UNL     1       7.323   9.533  25.452  0.00  0.00    -0.269 OA
ATOM     16  C1  UNL     1       8.537   9.195  25.416  0.00  0.00    +0.255 C 
ATOM     17  N1  UNL     1       9.123   8.512  26.534  0.00  0.00    -0.280 N 
ATOM     18  H1  UNL     1       9.916   7.853  26.362  0.00  0.00    +0.155 HD
BRANCH  16  19
ATOM     19  C13 UNL     1       9.342   9.526  24.229  0.00  0.00    +0.075 A 
ATOM     20  C14 UNL     1       8.856   9.809  22.955  0.00  0.00    +0.024 A 
ATOM     21  C15 UNL     1       9.875  10.015  22.016  0.00  0.00    -0.036 A 
ATOM     22  C16 UNL     1      11.150   9.930  22.557  0.00  0.00    -0.006 A 
ATOM     23  S2  UNL     1      11.029   9.533  24.184  0.00  0.00    -0.088 S 
ATOM     24  C17 UNL     1      12.414  10.013  21.757  0.00  0.00    +0.043 C 
ATOM     25  C18 UNL     1      12.156  10.691  20.400  0.00  0.00    +0.005 C 
ATOM     26  C19 UNL     1      10.895  10.127  19.723  0.00  0.00    +0.005 C 
ATOM     27  C20 UNL     1       9.638  10.379  20.577  0.00  0.00    +0.036 C 
ENDBRANCH  16  19
ENDBRANCH   1  17
TORSDOF 3
ENDMDL
MODEL 5
REMARK VINA RESULT:    -6.382      7.877     10.720
REMARK INTER + INTRA:          -8.519
REMARK INTER:                  -7.616
REMARK INTRA:                  -0.903
REMARK UNBOUND:                -1.018
REMARK  Name = /home/qwerty/github/datacon2025hack/step_04_hit_selection/docking/ligands/lig_143.pdb
REMARK  3 active torsions:
REMARK  status: ('A' for Active; 'I' for Inactive)
REMARK    1  A    between atoms: C1_2  and  C13_18
REMARK    2  A    between atoms: N1_3  and  C2_4
REMARK    3  A    between atoms: C7_9  and  C8_10
REMARK                            x       y       z     vdW  Elec       q    Type
REMARK                         _______ _______ _______ _____ _____    ______ ____
ROOT
ATOM      1  C2  UNL     1      21.575   2.526  25.631  0.00  0.00    +0.043 A 
ATOM      2  C3  UNL     1      22.541   2.919  26.570  0.00  0.00    +0.024 A 
ATOM      3  C4  UNL     1      22.599   2.309  27.823  0.00  0.00    +0.002 A 
ATOM      4  C5  UNL     1      21.692   1.303  28.155  0.00  0.00    +0.001 A 
ATOM      5  C6  UNL     1      20.705   0.921  27.243  0.00  0.00    +0.012 A 
ATOM      6  C7  UNL     1      20.616   1.542  25.984  0.00  0.00    +0.023 A 
ENDROOT
BRANCH   6   7
ATOM      7  C8  UNL     1      19.494   1.173  25.093  0.00  0.00    +0.092 A 
ATOM      8  C9  UNL     1      19.117  -0.130  24.744  0.00  0.00    +0.121 A 
ATOM      9  N2  UNL     1      18.078   0.010  23.919  0.00  0.00    -0.300 N 
ATOM     10  C10 UNL     1      17.240  -0.792  23.230  0.00  0.00    +0.100 A 
ATOM     11  C11 UNL     1      16.305  -0.047  22.497  0.00  0.00    +0.067 A 
ATOM     12  S1  UNL     1      16.580   1.628  22.751  0.00  0.00    -0.058 S 
ATOM     13  C12 UNL     1      17.864   1.298  23.775  0.00  0.00    +0.178 A 
ATOM     14  N3  UNL     1      18.704   2.092  24.464  0.00  0.00    -0.221 NA
ENDBRANCH   6   7
BRANCH   1  17
ATOM     15  O1  UNL     1      20.466   5.063  24.937  0.00  0.00    -0.269 OA
ATOM     16  C1  UNL     1      21.185   4.471  24.088  0.00  0.00    +0.255 C 
ATOM     17  N1  UNL     1      21.606   3.119  24.324  0.00  0.00    -0.280 N 
ATOM     18  H1  UNL     1      21.780   2.496  23.504  0.00  0.00    +0.155 HD
BRANCH  16  19
ATOM     19  C13 UNL     1      21.599   5.186  22.870  0.00  0.00    +0.075 A 
ATOM     20  C14 UNL     1      22.536   6.215  22.795  0.00  0.00    +0.024 A 
ATOM     21  C15 UNL     1      22.662   6.744  21.505  0.00  0.00    -0.036 A 
ATOM     22  C16 UNL     1      21.858   6.112  20.567  0.00  0.00    -0.006 A 
ATOM     23  S2  UNL     1      20.935   4.940  21.338  0.00  0.00    -0.088 S 
ATOM     24  C17 UNL     1      21.728   6.543  19.138  0.00  0.00    +0.043 C 
ATOM     25  C18 UNL     1      22.929   7.408  18.719  0.00  0.00    +0.005 C 
ATOM     26  C19 UNL     1      23.248   8.475  19.781  0.00  0.00    +0.005 C 
ATOM     27  C20 UNL     1      23.629   7.831  21.127  0.00  0.00    +0.036 C 
ENDBRANCH  16  19
ENDBRANCH   1  17
TORSDOF 3
ENDMDL
MODEL 6
REMARK VINA RESULT:    -6.318     12.214     13.663
REMARK INTER + INTRA:          -8.443
REMARK INTER:                  -7.400
REMARK INTRA:                  -1.044
REMARK UNBOUND:                -1.018
REMARK  Name = /home/qwerty/github/datacon2025hack/step_04_hit_selection/docking/ligands/lig_143.pdb
REMARK  3 active torsions:
REMARK  status: ('A' for Active; 'I' for Inactive)
REMARK    1  A    between atoms: C1_2  and  C13_18
REMARK    2  A    between atoms: N1_3  and  C2_4
REMARK    3  A    between atoms: C7_9  and  C8_10
REMARK                            x       y       z     vdW  Elec       q    Type
REMARK                         _______ _______ _______ _____ _____    ______ ____
ROOT
ATOM      1  C2  UNL     1      13.034  13.551  29.530  0.00  0.00    +0.043 A 
ATOM      2  C3  UNL     1      14.118  14.352  29.144  0.00  0.00    +0.024 A 
ATOM      3  C4  UNL     1      14.103  15.025  27.921  0.00  0.00    +0.002 A 
ATOM      4  C5  UNL     1      13.005  14.902  27.069  0.00  0.00    +0.001 A 
ATOM      5  C6  UNL     1      11.930  14.084  27.425  0.00  0.00    +0.012 A 
ATOM      6  C7  UNL     1      11.940  13.379  28.642  0.00  0.00    +0.023 A 
ENDROOT
BRANCH   6   7
ATOM      7  C8  UNL     1      10.826  12.450  28.929  0.00  0.00    +0.092 A 
ATOM      8  C9  UNL     1       9.461  12.758  28.860  0.00  0.00    +0.121 A 
ATOM      9  N2  UNL     1       8.826  11.639  29.211  0.00  0.00    -0.300 N 
ATOM     10  C10 UNL     1       7.550  11.222  29.353  0.00  0.00    +0.100 A 
ATOM     11  C11 UNL     1       7.493   9.884  29.770  0.00  0.00    +0.067 A 
ATOM     12  S1  UNL     1       9.086   9.270  29.950  0.00  0.00    -0.058 S 
ATOM     13  C12 UNL     1       9.742  10.739  29.484  0.00  0.00    +0.178 A 
ATOM     14  N3  UNL     1      11.011  11.162  29.343  0.00  0.00    -0.221 NA
ENDBRANCH   6   7
BRANCH   1  17
ATOM     15  O1  UNL     1      11.949  14.704  31.904  0.00  0.00    -0.269 OA
ATOM     16  C1  UNL     1      12.336  13.505  31.943  0.00  0.00    +0.255 C 
ATOM     17  N1  UNL     1      13.054  12.948  30.832  0.00  0.00    -0.280 N 
ATOM     18  H1  UNL     1      13.743  12.183  31.010  0.00  0.00    +0.155 HD
BRANCH  16  19
ATOM     19  C13 UNL     1      12.027  12.686  33.126  0.00  0.00    +0.075 A 
ATOM     20  C14 UNL     1      11.604  13.156  34.368  0.00  0.00    +0.024 A 
ATOM     21  C15 UNL     1      11.460  12.135  35.317  0.00  0.00    -0.036 A 
ATOM     22  C16 UNL     1      11.731  10.870  34.814  0.00  0.00    -0.006 A 
ATOM     23  S2  UNL     1      12.217  11.011  33.212  0.00  0.00    -0.088 S 
ATOM     24  C17 UNL     1      11.747   9.619  35.638  0.00  0.00    +0.043 C 
ATOM     25  C18 UNL     1      10.956   9.816  36.942  0.00  0.00    +0.005 C 
ATOM     26  C19 UNL     1      11.320  11.148  37.622  0.00  0.00    +0.005 C 
ATOM     27  C20 UNL     1      10.976  12.351  36.724  0.00  0.00    +0.036 C 
ENDBRANCH  16  19
ENDBRANCH   1  17
TORSDOF 3
ENDMDL
MODEL 7
REMARK VINA RESULT:    -6.258      6.682     11.033
REMARK INTER + INTRA:          -8.373
REMARK INTER:                  -7.342
REMARK INTRA:                  -1.031
REMARK UNBOUND:                -1.018
REMARK  Name = /home/qwerty/github/datacon2025hack/step_04_hit_selection/docking/ligands/lig_143.pdb
REMARK  3 active torsions:
REMARK  status: ('A' for Active; 'I' for Inactive)
REMARK    1  A    between atoms: C1_2  and  C13_18
REMARK    2  A    between atoms: N1_3  and  C2_4
REMARK    3  A    between atoms: C7_9  and  C8_10
REMARK                            x       y       z     vdW  Elec       q    Type
REMARK                         _______ _______ _______ _____ _____    ______ ____
ROOT
ATOM      1  C2  UNL     1      21.087   1.018  27.085  0.00  0.00    +0.043 A 
ATOM      2  C3  UNL     1      21.393   0.079  28.081  0.00  0.00    +0.024 A 
ATOM      3  C4  UNL     1      22.073   0.468  29.237  0.00  0.00    +0.002 A 
ATOM      4  C5  UNL     1      22.457   1.798  29.408  0.00  0.00    +0.001 A 
ATOM      5  C6  UNL     1      22.187   2.739  28.412  0.00  0.00    +0.012 A 
ATOM      6  C7  UNL     1      21.525   2.360  27.230  0.00  0.00    +0.023 A 
ENDROOT
BRANCH   6   7
ATOM      7  C8  UNL     1      21.349   3.370  26.163  0.00  0.00    +0.092 A 
ATOM      8  C9  UNL     1      22.375   3.949  25.404  0.00  0.00    +0.121 A 
ATOM      9  N2  UNL     1      21.768   4.805  24.582  0.00  0.00    -0.300 N 
ATOM     10  C10 UNL     1      22.121   5.668  23.607  0.00  0.00    +0.100 A 
ATOM     11  C11 UNL     1      21.002   6.328  23.078  0.00  0.00    +0.067 A 
ATOM     12  S1  UNL     1      19.584   5.789  23.880  0.00  0.00    -0.058 S 
ATOM     13  C12 UNL     1      20.481   4.752  24.842  0.00  0.00    +0.178 A 
ATOM     14  N3  UNL     1      20.136   3.891  25.817  0.00  0.00    -0.221 NA
ENDBRANCH   6   7
BRANCH   1  17
ATOM     15  O1  UNL     1      18.242   0.799  27.019  0.00  0.00    -0.269 OA
ATOM     16  C1  UNL     1      18.878   0.675  25.938  0.00  0.00    +0.255 C 
ATOM     17  N1  UNL     1      20.311   0.592  25.955  0.00  0.00    -0.280 N 
ATOM     18  H1  UNL     1      20.793   0.057  25.199  0.00  0.00    +0.155 HD
BRANCH  16  19
ATOM     19  C13 UNL     1      18.137   0.635  24.667  0.00  0.00    +0.075 A 
ATOM     20  C14 UNL     1      17.897  -0.495  23.887  0.00  0.00    +0.024 A 
ATOM     21  C15 UNL     1      17.224  -0.201  22.694  0.00  0.00    -0.036 A 
ATOM     22  C16 UNL     1      16.905   1.143  22.556  0.00  0.00    -0.006 A 
ATOM     23  S2  UNL     1      17.513   1.988  23.875  0.00  0.00    -0.088 S 
ATOM     24  C17 UNL     1      16.273   1.741  21.336  0.00  0.00    +0.043 C 
ATOM     25  C18 UNL     1      15.576   0.656  20.498  0.00  0.00    +0.005 C 
ATOM     26  C19 UNL     1      16.472  -0.583  20.328  0.00  0.00    +0.005 C 
ATOM     27  C20 UNL     1      16.799  -1.232  21.686  0.00  0.00    +0.036 C 
ENDBRANCH  16  19
ENDBRANCH   1  17
TORSDOF 3
ENDMDL
MODEL 8
REMARK VINA RESULT:    -6.149     14.339     16.315
REMARK INTER + INTRA:          -8.245
REMARK INTER:                  -7.144
REMARK INTRA:                  -1.101
REMARK UNBOUND:                -1.018
REMARK  Name = /home/qwerty/github/datacon2025hack/step_04_hit_selection/docking/ligands/lig_143.pdb
REMARK  3 active torsions:
REMARK  status: ('A' for Active; 'I' for Inactive)
REMARK    1  A    between atoms: C1_2  and  C13_18
REMARK    2  A    between atoms: N1_3  and  C2_4
REMARK    3  A    between atoms: C7_9  and  C8_10
REMARK                            x       y       z     vdW  Elec       q    Type
REMARK                         _______ _______ _______ _____ _____    ______ ____
ROOT
ATOM      1  C2  UNL     1      10.647   8.461  20.259  0.00  0.00    +0.043 A 
ATOM      2  C3  UNL     1      10.941   9.591  19.482  0.00  0.00    +0.024 A 
ATOM      3  C4  UNL     1      10.263  10.792  19.693  0.00  0.00    +0.002 A 
ATOM      4  C5  UNL     1       9.282  10.877  20.681  0.00  0.00    +0.001 A 
ATOM      5  C6  UNL     1       8.956   9.753  21.443  0.00  0.00    +0.012 A 
ATOM      6  C7  UNL     1       9.611   8.528  21.227  0.00  0.00    +0.023 A 
ENDROOT
BRANCH   6   7
ATOM      7  C8  UNL     1       9.163   7.342  21.991  0.00  0.00    +0.092 A 
ATOM      8  C9  UNL     1       9.011   7.271  23.382  0.00  0.00    +0.121 A 
ATOM      9  N2  UNL     1       8.607   6.025  23.631  0.00  0.00    -0.300 N 
ATOM     10  C10 UNL     1       8.272   5.284  24.708  0.00  0.00    +0.100 A 
ATOM     11  C11 UNL     1       7.918   3.978  24.341  0.00  0.00    +0.067 A 
ATOM     12  S1  UNL     1       8.046   3.805  22.638  0.00  0.00    -0.058 S 
ATOM     13  C12 UNL     1       8.540   5.397  22.479  0.00  0.00    +0.178 A 
ATOM     14  N3  UNL     1       8.877   6.141  21.409  0.00  0.00    -0.221 NA
ENDBRANCH   6   7
BRANCH   1  17
ATOM     15  O1  UNL     1      12.966   7.744  21.760  0.00  0.00    -0.269 OA
ATOM     16  C1  UNL     1      12.475   6.892  20.973  0.00  0.00    +0.255 C 
ATOM     17  N1  UNL     1      11.428   7.272  20.067  0.00  0.00    -0.280 N 
ATOM     18  H1  UNL     1      11.341   6.767  19.157  0.00  0.00    +0.155 HD
BRANCH  16  19
ATOM     19  C13 UNL     1      12.973   5.507  21.007  0.00  0.00    +0.075 A 
ATOM     20  C14 UNL     1      14.114   5.024  20.368  0.00  0.00    +0.024 A 
ATOM     21  C15 UNL     1      14.287   3.644  20.530  0.00  0.00    -0.036 A 
ATOM     22  C16 UNL     1      13.310   3.053  21.321  0.00  0.00    -0.006 A 
ATOM     23  S2  UNL     1      12.188   4.221  21.768  0.00  0.00    -0.088 S 
ATOM     24  C17 UNL     1      13.204   1.581  21.572  0.00  0.00    +0.043 C 
ATOM     25  C18 UNL     1      14.545   0.882  21.291  0.00  0.00    +0.005 C 
ATOM     26  C19 UNL     1      15.155   1.357  19.961  0.00  0.00    +0.005 C 
ATOM     27  C20 UNL     1      15.453   2.867  19.986  0.00  0.00    +0.036 C 
ENDBRANCH  16  19
ENDBRANCH   1  17
TORSDOF 3
ENDMDL
MODEL 9
REMARK VINA RESULT:    -6.070     14.106     16.444
REMARK INTER + INTRA:          -8.152
REMARK INTER:                  -7.116
REMARK INTRA:                  -1.036
REMARK UNBOUND:                -1.018
REMARK  Name = /home/qwerty/github/datacon2025hack/step_04_hit_selection/docking/ligands/lig_143.pdb
REMARK  3 active torsions:
REMARK  status: ('A' for Active; 'I' for Inactive)
REMARK    1  A    between atoms: C1_2  and  C13_18
REMARK    2  A    between atoms: N1_3  and  C2_4
REMARK    3  A    between atoms: C7_9  and  C8_10
REMARK                            x       y       z     vdW  Elec       q    Type
REMARK                         _______ _______ _______ _____ _____    ______ ____
ROOT
ATOM      1  C2  UNL     1       8.203  11.219  27.326  0.00  0.00    +0.043 A 
ATOM      2  C3  UNL     1       8.322  12.609  27.186  0.00  0.00    +0.024 A 
ATOM      3  C4  UNL     1       8.672  13.404  28.278  0.00  0.00    +0.002 A 
ATOM      4  C5  UNL     1       8.903  12.819  29.523  0.00  0.00    +0.001 A 
ATOM      5  C6  UNL     1       8.760  11.439  29.686  0.00  0.00    +0.012 A 
ATOM      6  C7  UNL     1       8.384  10.626  28.602  0.00  0.00    +0.023 A 
ENDROOT
BRANCH   6   7
ATOM      7  C8  UNL     1       8.149   9.186  28.847  0.00  0.00    +0.092 A 
ATOM      8  C9  UNL     1       7.112   8.643  29.618  0.00  0.00    +0.121 A 
ATOM      9  N2  UNL     1       7.294   7.322  29.577  0.00  0.00    -0.300 N 
ATOM     10  C10 UNL     1       6.691   6.220  30.068  0.00  0.00    +0.100 A 
ATOM     11  C11 UNL     1       7.365   5.053  29.680  0.00  0.00    +0.067 A 
ATOM     12  S1  UNL     1       8.723   5.467  28.715  0.00  0.00    -0.058 S 
ATOM     13  C12 UNL     1       8.366   7.097  28.851  0.00  0.00    +0.178 A 
ATOM     14  N3  UNL     1       8.962   8.201  28.366  0.00  0.00    -0.221 NA
ENDBRANCH   6   7
BRANCH   1  17
ATOM     15  O1  UNL     1      10.146  10.323  25.437  0.00  0.00    -0.269 OA
ATOM     16  C1  UNL     1       8.973   9.871  25.350  0.00  0.00    +0.255 C 
ATOM     17  N1  UNL     1       7.927  10.431  26.157  0.00  0.00    -0.280 N 
ATOM     18  H1  UNL     1       6.947  10.411  25.797  0.00  0.00    +0.155 HD
BRANCH  16  19
ATOM     19  C13 UNL     1       8.697   8.755  24.430  0.00  0.00    +0.075 A 
ATOM     20  C14 UNL     1       8.674   7.401  24.758  0.00  0.00    +0.024 A 
ATOM     21  C15 UNL     1       8.452   6.575  23.649  0.00  0.00    -0.036 A 
ATOM     22  C16 UNL     1       8.266   7.276  22.466  0.00  0.00    -0.006 A 
ATOM     23  S2  UNL     1       8.442   8.919  22.770  0.00  0.00    -0.088 S 
ATOM     24  C17 UNL     1       8.108   6.636  21.121  0.00  0.00    +0.043 C 
ATOM     25  C18 UNL     1       7.676   5.167  21.264  0.00  0.00    +0.005 C 
ATOM     26  C19 UNL     1       8.514   4.438  22.330  0.00  0.00    +0.005 C 
ATOM     27  C20 UNL     1       8.336   5.078  23.719  0.00  0.00    +0.036 C 
ENDBRANCH  16  19
ENDBRANCH   1  17
TORSDOF 3
ENDMDL
