MODEL 1
REMARK VINA RESULT:    -7.036      0.000      0.000
REMARK INTER + INTRA:         -10.048
REMARK INTER:                  -9.093
REMARK INTRA:                  -0.955
REMARK UNBOUND:                -0.955
REMARK  Name = /home/qwerty/github/datacon2025hack/step_04_hit_selection/docking/ligands/lig_538.pdb
REMARK  7 active torsions:
REMARK  status: ('A' for Active; 'I' for Inactive)
REMARK    1  A    between atoms: C1_1  and  C2_2
REMARK    2  A    between atoms: C2_2  and  C3_3
REMARK    3  A    between atoms: C2_2  and  C4_4
REMARK    4  A    between atoms: C5_6  and  C6_7
REMARK    5  A    between atoms: N2_9  and  C7_10
REMARK    6  A    between atoms: C9_12  and  C10_13
REMARK    7  A    between atoms: N5_21  and  C14_22
REMARK                            x       y       z     vdW  Elec       q    Type
REMARK                         _______ _______ _______ _____ _____    ______ ____
ROOT
ATOM      1  C6  UNL     1      11.461   1.465  22.178  0.00  0.00    +0.287 C 
ATOM      2  O1  UNL     1      10.548   0.596  22.211  0.00  0.00    -0.266 OA
ATOM      3  N2  UNL     1      11.133   2.863  22.144  0.00  0.00    -0.277 N 
ATOM      4  H8  UNL     1      11.871   3.533  21.827  0.00  0.00    +0.155 HD
ENDROOT
BRANCH   3   5
ATOM      5  C7  UNL     1       9.819   3.385  22.412  0.00  0.00    +0.070 A 
ATOM      6  C8  UNL     1       9.090   4.061  21.418  0.00  0.00    +0.039 A 
ATOM      7  C9  UNL     1       7.799   4.556  21.681  0.00  0.00    +0.038 A 
ATOM      8  C11 UNL     1       7.232   4.337  22.949  0.00  0.00    +0.016 A 
ATOM      9  C12 UNL     1       7.945   3.645  23.931  0.00  0.00    +0.041 A 
ATOM     10  C13 UNL     1       9.229   3.167  23.666  0.00  0.00    +0.145 A 
ATOM     11  F1  UNL     1       9.903   2.501  24.637  0.00  0.00    -0.204 F 
BRANCH   7  12
ATOM     12  C10 UNL     1       7.047   5.268  20.619  0.00  0.00    +0.242 C 
ATOM     13  N3  UNL     1       6.621   4.600  19.428  0.00  0.00    -0.325 N 
ATOM     14  O2  UNL     1       6.761   6.487  20.767  0.00  0.00    -0.270 OA
ATOM     15  H10 UNL     1       6.689   3.565  19.323  0.00  0.00    +0.145 HD
ATOM     16  H11 UNL     1       6.144   5.140  18.671  0.00  0.00    +0.145 HD
ENDBRANCH   7  12
ENDBRANCH   3   5
BRANCH   1  19
ATOM     17  C4  UNL     1      14.848   0.710  21.512  0.00  0.00    +0.136 A 
ATOM     18  N1  UNL     1      13.700   1.289  21.104  0.00  0.00    -0.207 NA
ATOM     19  C5  UNL     1      12.864   1.028  22.135  0.00  0.00    +0.237 A 
ATOM     20  N4  UNL     1      13.462   0.350  23.133  0.00  0.00    -0.140 NA
ATOM     21  N5  UNL     1      14.702   0.148  22.730  0.00  0.00    -0.215 N 
BRANCH  21  22
ATOM     22  C14 UNL     1      15.702  -0.496  23.528  0.00  0.00    +0.086 A 
ATOM     23  C15 UNL     1      15.953  -1.863  23.347  0.00  0.00    +0.029 A 
ATOM     24  C16 UNL     1      16.924  -2.509  24.117  0.00  0.00    +0.002 A 
ATOM     25  C17 UNL     1      17.657  -1.791  25.065  0.00  0.00    +0.002 A 
ATOM     26  C18 UNL     1      17.425  -0.424  25.241  0.00  0.00    +0.022 A 
ATOM     27  C19 UNL     1      16.454   0.230  24.472  0.00  0.00    +0.066 A 
ATOM     28 CL1  UNL     1      16.224   1.961  24.684  0.00  0.00    -0.081 Cl
ENDBRANCH  21  22
BRANCH  17  30
ATOM     29  C1  UNL     1      16.196   2.170  20.013  0.00  0.00    +0.015 C 
ATOM     30  C2  UNL     1      16.153   0.837  20.764  0.00  0.00    +0.051 C 
ATOM     31  C3  UNL     1      16.344  -0.340  19.803  0.00  0.00    +0.015 C 
ENDBRANCH  17  30
ENDBRANCH   1  19
TORSDOF 5
ENDMDL
MODEL 2
REMARK VINA RESULT:    -6.977     12.673     15.815
REMARK INTER + INTRA:          -9.972
REMARK INTER:                  -8.966
REMARK INTRA:                  -1.006
REMARK UNBOUND:                -0.955
REMARK  Name = /home/qwerty/github/datacon2025hack/step_04_hit_selection/docking/ligands/lig_538.pdb
REMARK  7 active torsions:
REMARK  status: ('A' for Active; 'I' for Inactive)
REMARK    1  A    between atoms: C1_1  and  C2_2
REMARK    2  A    between atoms: C2_2  and  C3_3
REMARK    3  A    between atoms: C2_2  and  C4_4
REMARK    4  A    between atoms: C5_6  and  C6_7
REMARK    5  A    between atoms: N2_9  and  C7_10
REMARK    6  A    between atoms: C9_12  and  C10_13
REMARK    7  A    between atoms: N5_21  and  C14_22
REMARK                            x       y       z     vdW  Elec       q    Type
REMARK                         _______ _______ _______ _____ _____    ______ ____
ROOT
ATOM      1  C6  UNL     1      21.678   5.330  30.878  0.00  0.00    +0.287 C 
ATOM      2  O1  UNL     1      21.488   5.309  29.632  0.00  0.00    -0.266 OA
ATOM      3  N2  UNL     1      21.509   4.136  31.660  0.00  0.00    -0.277 N 
ATOM      4  H8  UNL     1      21.385   4.239  32.692  0.00  0.00    +0.155 HD
ENDROOT
BRANCH   3   5
ATOM      5  C7  UNL     1      21.389   2.818  31.094  0.00  0.00    +0.070 A 
ATOM      6  C8  UNL     1      22.487   2.186  30.484  0.00  0.00    +0.039 A 
ATOM      7  C9  UNL     1      22.368   0.891  29.946  0.00  0.00    +0.038 A 
ATOM      8  C11 UNL     1      21.135   0.222  30.053  0.00  0.00    +0.016 A 
ATOM      9  C12 UNL     1      20.049   0.838  30.678  0.00  0.00    +0.041 A 
ATOM     10  C13 UNL     1      20.173   2.127  31.200  0.00  0.00    +0.145 A 
ATOM     11  F1  UNL     1      19.103   2.706  31.800  0.00  0.00    -0.204 F 
BRANCH   7  12
ATOM     12  C10 UNL     1      23.538   0.243  29.306  0.00  0.00    +0.242 C 
ATOM     13  N3  UNL     1      24.817   0.883  29.262  0.00  0.00    -0.325 N 
ATOM     14  O2  UNL     1      23.416  -0.905  28.799  0.00  0.00    -0.270 OA
ATOM     15  H10 UNL     1      25.015   1.754  29.800  0.00  0.00    +0.145 HD
ATOM     16  H11 UNL     1      25.609   0.429  28.754  0.00  0.00    +0.145 HD
ENDBRANCH   7  12
ENDBRANCH   3   5
BRANCH   1  19
ATOM     17  C4  UNL     1      23.040   8.372  32.049  0.00  0.00    +0.136 A 
ATOM     18  N1  UNL     1      23.142   7.313  31.218  0.00  0.00    -0.207 NA
ATOM     19  C5  UNL     1      22.036   6.599  31.526  0.00  0.00    +0.237 A 
ATOM     20  N4  UNL     1      21.280   7.189  32.472  0.00  0.00    -0.140 NA
ATOM     21  N5  UNL     1      21.921   8.295  32.799  0.00  0.00    -0.215 N 
BRANCH  21  22
ATOM     22  C14 UNL     1      21.424   9.253  33.740  0.00  0.00    +0.086 A 
ATOM     23  C15 UNL     1      20.707  10.366  33.277  0.00  0.00    +0.029 A 
ATOM     24  C16 UNL     1      20.215  11.312  34.181  0.00  0.00    +0.002 A 
ATOM     25  C17 UNL     1      20.428  11.148  35.552  0.00  0.00    +0.002 A 
ATOM     26  C18 UNL     1      21.128  10.033  36.023  0.00  0.00    +0.022 A 
ATOM     27  C19 UNL     1      21.623   9.080  35.123  0.00  0.00    +0.066 A 
ATOM     28 CL1  UNL     1      22.454   7.665  35.754  0.00  0.00    -0.081 Cl
ENDBRANCH  21  22
BRANCH  17  30
ATOM     29  C1  UNL     1      23.995  10.150  30.591  0.00  0.00    +0.015 C 
ATOM     30  C2  UNL     1      23.976   9.556  32.002  0.00  0.00    +0.051 C 
ATOM     31  C3  UNL     1      25.384   9.152  32.446  0.00  0.00    +0.015 C 
ENDBRANCH  17  30
ENDBRANCH   1  19
TORSDOF 5
ENDMDL
MODEL 3
REMARK VINA RESULT:    -6.932      6.025     10.664
REMARK INTER + INTRA:          -9.913
REMARK INTER:                  -8.818
REMARK INTRA:                  -1.095
REMARK UNBOUND:                -0.955
REMARK  Name = /home/qwerty/github/datacon2025hack/step_04_hit_selection/docking/ligands/lig_538.pdb
REMARK  7 active torsions:
REMARK  status: ('A' for Active; 'I' for Inactive)
REMARK    1  A    between atoms: C1_1  and  C2_2
REMARK    2  A    between atoms: C2_2  and  C3_3
REMARK    3  A    between atoms: C2_2  and  C4_4
REMARK    4  A    between atoms: C5_6  and  C6_7
REMARK    5  A    between atoms: N2_9  and  C7_10
REMARK    6  A    between atoms: C9_12  and  C10_13
REMARK    7  A    between atoms: N5_21  and  C14_22
REMARK                            x       y       z     vdW  Elec       q    Type
REMARK                         _______ _______ _______ _____ _____    ______ ____
ROOT
ATOM      1  C6  UNL     1      18.213   0.815  26.939  0.00  0.00    +0.287 C 
ATOM      2  O1  UNL     1      17.760   0.901  28.112  0.00  0.00    -0.266 OA
ATOM      3  N2  UNL     1      19.559   1.221  26.647  0.00  0.00    -0.277 N 
ATOM      4  H8  UNL     1      19.809   1.415  25.650  0.00  0.00    +0.155 HD
ENDROOT
BRANCH   3   5
ATOM      5  C7  UNL     1      20.552   1.487  27.654  0.00  0.00    +0.070 A 
ATOM      6  C8  UNL     1      21.621   0.600  27.872  0.00  0.00    +0.039 A 
ATOM      7  C9  UNL     1      22.597   0.872  28.849  0.00  0.00    +0.038 A 
ATOM      8  C11 UNL     1      22.505   2.066  29.588  0.00  0.00    +0.016 A 
ATOM      9  C12 UNL     1      21.458   2.960  29.357  0.00  0.00    +0.041 A 
ATOM     10  C13 UNL     1      20.488   2.677  28.394  0.00  0.00    +0.145 A 
ATOM     11  F1  UNL     1      19.477   3.560  28.190  0.00  0.00    -0.204 F 
BRANCH   7  12
ATOM     12  C10 UNL     1      23.716  -0.077  29.064  0.00  0.00    +0.242 C 
ATOM     13  N3  UNL     1      25.048   0.380  29.317  0.00  0.00    -0.325 N 
ATOM     14  O2  UNL     1      23.495  -1.318  29.038  0.00  0.00    -0.270 OA
ATOM     15  H10 UNL     1      25.258   1.384  29.506  0.00  0.00    +0.145 HD
ATOM     16  H11 UNL     1      25.827  -0.310  29.406  0.00  0.00    +0.145 HD
ENDBRANCH   7  12
ENDBRANCH   3   5
BRANCH   1  19
ATOM     17  C4  UNL     1      15.736  -0.569  24.832  0.00  0.00    +0.136 A 
ATOM     18  N1  UNL     1      16.182  -0.345  26.086  0.00  0.00    -0.207 NA
ATOM     19  C5  UNL     1      17.334   0.329  25.866  0.00  0.00    +0.237 A 
ATOM     20  N4  UNL     1      17.576   0.535  24.557  0.00  0.00    -0.140 NA
ATOM     21  N5  UNL     1      16.573  -0.038  23.917  0.00  0.00    -0.215 N 
BRANCH  21  22
ATOM     22  C14 UNL     1      16.414  -0.001  22.494  0.00  0.00    +0.086 A 
ATOM     23  C15 UNL     1      16.882  -1.074  21.721  0.00  0.00    +0.029 A 
ATOM     24  C16 UNL     1      16.736  -1.055  20.331  0.00  0.00    +0.002 A 
ATOM     25  C17 UNL     1      16.114   0.028  19.707  0.00  0.00    +0.002 A 
ATOM     26  C18 UNL     1      15.630   1.094  20.471  0.00  0.00    +0.022 A 
ATOM     27  C19 UNL     1      15.772   1.082  21.865  0.00  0.00    +0.066 A 
ATOM     28 CL1  UNL     1      15.106   2.415  22.799  0.00  0.00    -0.081 Cl
ENDBRANCH  21  22
BRANCH  17  30
ATOM     29  C1  UNL     1      13.285  -0.142  24.740  0.00  0.00    +0.015 C 
ATOM     30  C2  UNL     1      14.390  -1.180  24.527  0.00  0.00    +0.051 C 
ATOM     31  C3  UNL     1      14.150  -2.420  25.392  0.00  0.00    +0.015 C 
ENDBRANCH  17  30
ENDBRANCH   1  19
TORSDOF 5
ENDMDL
MODEL 4
REMARK VINA RESULT:    -6.875      9.786     12.694
REMARK INTER + INTRA:          -9.839
REMARK INTER:                  -8.643
REMARK INTRA:                  -1.196
REMARK UNBOUND:                -0.955
REMARK  Name = /home/qwerty/github/datacon2025hack/step_04_hit_selection/docking/ligands/lig_538.pdb
REMARK  7 active torsions:
REMARK  status: ('A' for Active; 'I' for Inactive)
REMARK    1  A    between atoms: C1_1  and  C2_2
REMARK    2  A    between atoms: C2_2  and  C3_3
REMARK    3  A    between atoms: C2_2  and  C4_4
REMARK    4  A    between atoms: C5_6  and  C6_7
REMARK    5  A    between atoms: N2_9  and  C7_10
REMARK    6  A    between atoms: C9_12  and  C10_13
REMARK    7  A    between atoms: N5_21  and  C14_22
REMARK                            x       y       z     vdW  Elec       q    Type
REMARK                         _______ _______ _______ _____ _____    ______ ____
ROOT
ATOM      1  C6  UNL     1      21.398   5.350  24.214  0.00  0.00    +0.287 C 
ATOM      2  O1  UNL     1      20.473   5.650  25.016  0.00  0.00    -0.266 OA
ATOM      3  N2  UNL     1      22.146   4.136  24.388  0.00  0.00    -0.277 N 
ATOM      4  H8  UNL     1      23.071   4.055  23.907  0.00  0.00    +0.155 HD
ENDROOT
BRANCH   3   5
ATOM      5  C7  UNL     1      21.753   3.073  25.275  0.00  0.00    +0.070 A 
ATOM      6  C8  UNL     1      22.331   2.940  26.551  0.00  0.00    +0.039 A 
ATOM      7  C9  UNL     1      21.932   1.908  27.420  0.00  0.00    +0.038 A 
ATOM      8  C11 UNL     1      20.920   1.023  27.006  0.00  0.00    +0.016 A 
ATOM      9  C12 UNL     1      20.328   1.167  25.749  0.00  0.00    +0.041 A 
ATOM     10  C13 UNL     1      20.737   2.187  24.888  0.00  0.00    +0.145 A 
ATOM     11  F1  UNL     1      20.149   2.304  23.671  0.00  0.00    -0.204 F 
BRANCH   7  12
ATOM     12  C10 UNL     1      22.554   1.785  28.761  0.00  0.00    +0.242 C 
ATOM     13  N3  UNL     1      23.718   0.981  28.975  0.00  0.00    -0.325 N 
ATOM     14  O2  UNL     1      22.061   2.411  29.738  0.00  0.00    -0.270 OA
ATOM     15  H10 UNL     1      24.258   0.572  28.182  0.00  0.00    +0.145 HD
ATOM     16  H11 UNL     1      24.101   0.866  29.940  0.00  0.00    +0.145 HD
ENDBRANCH   7  12
ENDBRANCH   3   5
BRANCH   1  19
ATOM     17  C4  UNL     1      22.762   7.303  21.604  0.00  0.00    +0.136 A 
ATOM     18  N1  UNL     1      22.941   6.336  22.528  0.00  0.00    -0.207 NA
ATOM     19  C5  UNL     1      21.727   6.275  23.121  0.00  0.00    +0.237 A 
ATOM     20  N4  UNL     1      20.840   7.134  22.582  0.00  0.00    -0.140 NA
ATOM     21  N5  UNL     1      21.499   7.778  21.638  0.00  0.00    -0.215 N 
BRANCH  21  22
ATOM     22  C14 UNL     1      20.902   8.753  20.775  0.00  0.00    +0.086 A 
ATOM     23  C15 UNL     1      21.035  10.115  21.079  0.00  0.00    +0.029 A 
ATOM     24  C16 UNL     1      20.458  11.081  20.249  0.00  0.00    +0.002 A 
ATOM     25  C17 UNL     1      19.755  10.692  19.106  0.00  0.00    +0.002 A 
ATOM     26  C18 UNL     1      19.633   9.337  18.787  0.00  0.00    +0.022 A 
ATOM     27  C19 UNL     1      20.208   8.363  19.613  0.00  0.00    +0.066 A 
ATOM     28 CL1  UNL     1      20.078   6.671  19.155  0.00  0.00    -0.081 Cl
ENDBRANCH  21  22
BRANCH  17  30
ATOM     29  C1  UNL     1      23.744   6.669  19.407  0.00  0.00    +0.015 C 
ATOM     30  C2  UNL     1      23.799   7.663  20.569  0.00  0.00    +0.051 C 
ATOM     31  C3  UNL     1      25.197   7.701  21.193  0.00  0.00    +0.015 C 
ENDBRANCH  17  30
ENDBRANCH   1  19
TORSDOF 5
ENDMDL
MODEL 5
REMARK VINA RESULT:    -6.852     13.009     16.266
REMARK INTER + INTRA:          -9.811
REMARK INTER:                  -8.691
REMARK INTRA:                  -1.119
REMARK UNBOUND:                -0.955
REMARK  Name = /home/qwerty/github/datacon2025hack/step_04_hit_selection/docking/ligands/lig_538.pdb
REMARK  7 active torsions:
REMARK  status: ('A' for Active; 'I' for Inactive)
REMARK    1  A    between atoms: C1_1  and  C2_2
REMARK    2  A    between atoms: C2_2  and  C3_3
REMARK    3  A    between atoms: C2_2  and  C4_4
REMARK    4  A    between atoms: C5_6  and  C6_7
REMARK    5  A    between atoms: N2_9  and  C7_10
REMARK    6  A    between atoms: C9_12  and  C10_13
REMARK    7  A    between atoms: N5_21  and  C14_22
REMARK                            x       y       z     vdW  Elec       q    Type
REMARK                         _______ _______ _______ _____ _____    ______ ____
ROOT
ATOM      1  C6  UNL     1      20.479   4.523  32.901  0.00  0.00    +0.287 C 
ATOM      2  O1  UNL     1      19.556   4.600  32.046  0.00  0.00    -0.266 OA
ATOM      3  N2  UNL     1      21.306   3.349  32.975  0.00  0.00    -0.277 N 
ATOM      4  H8  UNL     1      21.850   3.186  33.853  0.00  0.00    +0.155 HD
ENDROOT
BRANCH   3   5
ATOM      5  C7  UNL     1      21.341   2.329  31.961  0.00  0.00    +0.070 A 
ATOM      6  C8  UNL     1      22.331   2.332  30.962  0.00  0.00    +0.039 A 
ATOM      7  C9  UNL     1      22.369   1.323  29.981  0.00  0.00    +0.038 A 
ATOM      8  C11 UNL     1      21.417   0.289  30.032  0.00  0.00    +0.016 A 
ATOM      9  C12 UNL     1      20.447   0.271  31.036  0.00  0.00    +0.041 A 
ATOM     10  C13 UNL     1      20.409   1.282  31.999  0.00  0.00    +0.145 A 
ATOM     11  F1  UNL     1      19.455   1.244  32.963  0.00  0.00    -0.204 F 
BRANCH   7  12
ATOM     12  C10 UNL     1      23.421   1.345  28.935  0.00  0.00    +0.242 C 
ATOM     13  N3  UNL     1      24.705   0.753  29.153  0.00  0.00    -0.325 N 
ATOM     14  O2  UNL     1      23.182   1.884  27.821  0.00  0.00    -0.270 OA
ATOM     15  H10 UNL     1      24.903   0.160  29.988  0.00  0.00    +0.145 HD
ATOM     16  H11 UNL     1      25.446   0.835  28.422  0.00  0.00    +0.145 HD
ENDBRANCH   7  12
ENDBRANCH   3   5
BRANCH   1  19
ATOM     17  C4  UNL     1      21.369   6.800  35.452  0.00  0.00    +0.136 A 
ATOM     18  N1  UNL     1      21.527   5.581  34.895  0.00  0.00    -0.207 NA
ATOM     19  C5  UNL     1      20.675   5.631  33.846  0.00  0.00    +0.237 A 
ATOM     20  N4  UNL     1      20.044   6.816  33.742  0.00  0.00    -0.140 NA
ATOM     21  N5  UNL     1      20.480   7.539  34.757  0.00  0.00    -0.215 N 
BRANCH  21  22
ATOM     22  C14 UNL     1      20.097   8.900  34.985  0.00  0.00    +0.086 A 
ATOM     23  C15 UNL     1      19.054   9.181  35.880  0.00  0.00    +0.029 A 
ATOM     24  C16 UNL     1      18.666  10.503  36.115  0.00  0.00    +0.002 A 
ATOM     25  C17 UNL     1      19.322  11.551  35.467  0.00  0.00    +0.002 A 
ATOM     26  C18 UNL     1      20.374  11.281  34.586  0.00  0.00    +0.022 A 
ATOM     27  C19 UNL     1      20.769   9.959  34.345  0.00  0.00    +0.066 A 
ATOM     28 CL1  UNL     1      22.128   9.658  33.271  0.00  0.00    -0.081 Cl
ENDBRANCH  21  22
BRANCH  17  30
ATOM     29  C1  UNL     1      23.591   6.638  36.561  0.00  0.00    +0.015 C 
ATOM     30  C2  UNL     1      22.214   7.305  36.596  0.00  0.00    +0.051 C 
ATOM     31  C3  UNL     1      21.518   7.056  37.936  0.00  0.00    +0.015 C 
ENDBRANCH  17  30
ENDBRANCH   1  19
TORSDOF 5
ENDMDL
MODEL 6
REMARK VINA RESULT:    -6.825      7.377      9.897
REMARK INTER + INTRA:          -9.776
REMARK INTER:                  -8.772
REMARK INTRA:                  -1.003
REMARK UNBOUND:                -0.955
REMARK  Name = /home/qwerty/github/datacon2025hack/step_04_hit_selection/docking/ligands/lig_538.pdb
REMARK  7 active torsions:
REMARK  status: ('A' for Active; 'I' for Inactive)
REMARK    1  A    between atoms: C1_1  and  C2_2
REMARK    2  A    between atoms: C2_2  and  C3_3
REMARK    3  A    between atoms: C2_2  and  C4_4
REMARK    4  A    between atoms: C5_6  and  C6_7
REMARK    5  A    between atoms: N2_9  and  C7_10
REMARK    6  A    between atoms: C9_12  and  C10_13
REMARK    7  A    between atoms: N5_21  and  C14_22
REMARK                            x       y       z     vdW  Elec       q    Type
REMARK                         _______ _______ _______ _____ _____    ______ ____
ROOT
ATOM      1  C6  UNL     1       8.739  10.057  24.550  0.00  0.00    +0.287 C 
ATOM      2  O1  UNL     1       7.521  10.372  24.477  0.00  0.00    -0.266 OA
ATOM      3  N2  UNL     1       9.451  10.187  25.791  0.00  0.00    -0.277 N 
ATOM      4  H8  UNL     1      10.496  10.203  25.759  0.00  0.00    +0.155 HD
ENDROOT
BRANCH   3   5
ATOM      5  C7  UNL     1       8.812  10.409  27.061  0.00  0.00    +0.070 A 
ATOM      6  C8  UNL     1       8.877  11.662  27.697  0.00  0.00    +0.039 A 
ATOM      7  C9  UNL     1       8.238  11.879  28.932  0.00  0.00    +0.038 A 
ATOM      8  C11 UNL     1       7.504  10.828  29.511  0.00  0.00    +0.016 A 
ATOM      9  C12 UNL     1       7.419   9.590  28.871  0.00  0.00    +0.041 A 
ATOM     10  C13 UNL     1       8.065   9.380  27.651  0.00  0.00    +0.145 A 
ATOM     11  F1  UNL     1       7.970   8.167  27.050  0.00  0.00    -0.204 F 
BRANCH   7  12
ATOM     12  C10 UNL     1       8.319  13.208  29.586  0.00  0.00    +0.242 C 
ATOM     13  N3  UNL     1       9.559  13.726  30.076  0.00  0.00    -0.325 N 
ATOM     14  O2  UNL     1       7.278  13.909  29.706  0.00  0.00    -0.270 OA
ATOM     15  H10 UNL     1      10.470  13.265  29.864  0.00  0.00    +0.145 HD
ATOM     16  H11 UNL     1       9.577  14.638  30.584  0.00  0.00    +0.145 HD
ENDBRANCH   7  12
ENDBRANCH   3   5
BRANCH   1  19
ATOM     17  C4  UNL     1      10.428   9.553  21.487  0.00  0.00    +0.136 A 
ATOM     18  N1  UNL     1       9.865  10.415  22.359  0.00  0.00    -0.207 NA
ATOM     19  C5  UNL     1       9.432   9.591  23.340  0.00  0.00    +0.237 A 
ATOM     20  N4  UNL     1       9.730   8.299  23.106  0.00  0.00    -0.140 NA
ATOM     21  N5  UNL     1      10.347   8.284  21.939  0.00  0.00    -0.215 N 
BRANCH  21  22
ATOM     22  C14 UNL     1      10.887   7.100  21.341  0.00  0.00    +0.086 A 
ATOM     23  C15 UNL     1      12.245   6.798  21.516  0.00  0.00    +0.029 A 
ATOM     24  C16 UNL     1      12.790   5.647  20.939  0.00  0.00    +0.002 A 
ATOM     25  C17 UNL     1      11.981   4.788  20.193  0.00  0.00    +0.002 A 
ATOM     26  C18 UNL     1      10.622   5.073  20.027  0.00  0.00    +0.022 A 
ATOM     27  C19 UNL     1      10.069   6.224  20.602  0.00  0.00    +0.066 A 
ATOM     28 CL1  UNL     1       8.346   6.525  20.416  0.00  0.00    -0.081 Cl
ENDBRANCH  21  22
BRANCH  17  30
ATOM     29  C1  UNL     1      12.475  10.716  20.680  0.00  0.00    +0.015 C 
ATOM     30  C2  UNL     1      11.193   9.993  20.263  0.00  0.00    +0.051 C 
ATOM     31  C3  UNL     1      10.324  10.886  19.373  0.00  0.00    +0.015 C 
ENDBRANCH  17  30
ENDBRANCH   1  19
TORSDOF 5
ENDMDL
MODEL 7
REMARK VINA RESULT:    -6.820     11.097     14.413
REMARK INTER + INTRA:          -9.769
REMARK INTER:                  -8.668
REMARK INTRA:                  -1.100
REMARK UNBOUND:                -0.955
REMARK  Name = /home/qwerty/github/datacon2025hack/step_04_hit_selection/docking/ligands/lig_538.pdb
REMARK  7 active torsions:
REMARK  status: ('A' for Active; 'I' for Inactive)
REMARK    1  A    between atoms: C1_1  and  C2_2
REMARK    2  A    between atoms: C2_2  and  C3_3
REMARK    3  A    between atoms: C2_2  and  C4_4
REMARK    4  A    between atoms: C5_6  and  C6_7
REMARK    5  A    between atoms: N2_9  and  C7_10
REMARK    6  A    between atoms: C9_12  and  C10_13
REMARK    7  A    between atoms: N5_21  and  C14_22
REMARK                            x       y       z     vdW  Elec       q    Type
REMARK                         _______ _______ _______ _____ _____    ______ ____
ROOT
ATOM      1  C6  UNL     1      21.626   3.603  32.778  0.00  0.00    +0.287 C 
ATOM      2  O1  UNL     1      21.572   2.858  33.793  0.00  0.00    -0.266 OA
ATOM      3  N2  UNL     1      21.614   5.032  32.923  0.00  0.00    -0.277 N 
ATOM      4  H8  UNL     1      21.367   5.609  32.086  0.00  0.00    +0.155 HD
ENDROOT
BRANCH   3   5
ATOM      5  C7  UNL     1      21.812   5.712  34.176  0.00  0.00    +0.070 A 
ATOM      6  C8  UNL     1      20.720   6.072  34.986  0.00  0.00    +0.039 A 
ATOM      7  C9  UNL     1      20.920   6.723  36.218  0.00  0.00    +0.038 A 
ATOM      8  C11 UNL     1      22.234   6.984  36.644  0.00  0.00    +0.016 A 
ATOM      9  C12 UNL     1      23.321   6.606  35.852  0.00  0.00    +0.041 A 
ATOM     10  C13 UNL     1      23.114   5.971  34.627  0.00  0.00    +0.145 A 
ATOM     11  F1  UNL     1      24.186   5.616  33.873  0.00  0.00    -0.204 F 
BRANCH   7  12
ATOM     12  C10 UNL     1      19.755   7.095  37.058  0.00  0.00    +0.242 C 
ATOM     13  N3  UNL     1      19.913   7.837  38.270  0.00  0.00    -0.325 N 
ATOM     14  O2  UNL     1      18.593   6.766  36.694  0.00  0.00    -0.270 OA
ATOM     15  H10 UNL     1      20.824   8.270  38.536  0.00  0.00    +0.145 HD
ATOM     16  H11 UNL     1      19.082   8.035  38.872  0.00  0.00    +0.145 HD
ENDBRANCH   7  12
ENDBRANCH   3   5
BRANCH   1  19
ATOM     17  C4  UNL     1      22.243   1.854  29.770  0.00  0.00    +0.136 A 
ATOM     18  N1  UNL     1      22.634   2.149  31.027  0.00  0.00    -0.207 NA
ATOM     19  C5  UNL     1      21.661   2.991  31.442  0.00  0.00    +0.237 A 
ATOM     20  N4  UNL     1      20.709   3.188  30.509  0.00  0.00    -0.140 NA
ATOM     21  N5  UNL     1      21.086   2.478  29.463  0.00  0.00    -0.215 N 
BRANCH  21  22
ATOM     22  C14 UNL     1      20.317   2.364  28.260  0.00  0.00    +0.086 A 
ATOM     23  C15 UNL     1      19.271   1.432  28.198  0.00  0.00    +0.029 A 
ATOM     24  C16 UNL     1      18.510   1.307  27.032  0.00  0.00    +0.002 A 
ATOM     25  C17 UNL     1      18.782   2.116  25.928  0.00  0.00    +0.002 A 
ATOM     26  C18 UNL     1      19.812   3.060  25.987  0.00  0.00    +0.022 A 
ATOM     27  C19 UNL     1      20.579   3.192  27.152  0.00  0.00    +0.066 A 
ATOM     28 CL1  UNL     1      21.833   4.423  27.210  0.00  0.00    -0.081 Cl
ENDBRANCH  21  22
BRANCH  17  30
ATOM     29  C1  UNL     1      22.289  -0.548  29.119  0.00  0.00    +0.015 C 
ATOM     30  C2  UNL     1      22.931   0.825  28.907  0.00  0.00    +0.051 C 
ATOM     31  C3  UNL     1      24.432   0.781  29.209  0.00  0.00    +0.015 C 
ENDBRANCH  17  30
ENDBRANCH   1  19
TORSDOF 5
ENDMDL
MODEL 8
REMARK VINA RESULT:    -6.789     14.159     15.780
REMARK INTER + INTRA:          -9.729
REMARK INTER:                  -8.549
REMARK INTRA:                  -1.180
REMARK UNBOUND:                -0.955
REMARK  Name = /home/qwerty/github/datacon2025hack/step_04_hit_selection/docking/ligands/lig_538.pdb
REMARK  7 active torsions:
REMARK  status: ('A' for Active; 'I' for Inactive)
REMARK    1  A    between atoms: C1_1  and  C2_2
REMARK    2  A    between atoms: C2_2  and  C3_3
REMARK    3  A    between atoms: C2_2  and  C4_4
REMARK    4  A    between atoms: C5_6  and  C6_7
REMARK    5  A    between atoms: N2_9  and  C7_10
REMARK    6  A    between atoms: C9_12  and  C10_13
REMARK    7  A    between atoms: N5_21  and  C14_22
REMARK                            x       y       z     vdW  Elec       q    Type
REMARK                         _______ _______ _______ _____ _____    ______ ____
ROOT
ATOM      1  C6  UNL     1      11.552  13.275  32.589  0.00  0.00    +0.287 C 
ATOM      2  O1  UNL     1      11.191  14.483  32.601  0.00  0.00    -0.266 OA
ATOM      3  N2  UNL     1      11.504  12.514  31.371  0.00  0.00    -0.277 N 
ATOM      4  H8  UNL     1      11.522  11.471  31.442  0.00  0.00    +0.155 HD
ENDROOT
BRANCH   3   5
ATOM      5  C7  UNL     1      11.318  13.097  30.069  0.00  0.00    +0.070 A 
ATOM      6  C8  UNL     1      12.405  13.614  29.342  0.00  0.00    +0.039 A 
ATOM      7  C9  UNL     1      12.220  14.170  28.063  0.00  0.00    +0.038 A 
ATOM      8  C11 UNL     1      10.929  14.175  27.504  0.00  0.00    +0.016 A 
ATOM      9  C12 UNL     1       9.851  13.641  28.214  0.00  0.00    +0.041 A 
ATOM     10  C13 UNL     1      10.042  13.101  29.487  0.00  0.00    +0.145 A 
ATOM     11  F1  UNL     1       8.978  12.592  30.158  0.00  0.00    -0.204 F 
BRANCH   7  12
ATOM     12  C10 UNL     1      13.380  14.711  27.313  0.00  0.00    +0.242 C 
ATOM     13  N3  UNL     1      13.343  14.873  25.892  0.00  0.00    -0.325 N 
ATOM     14  O2  UNL     1      14.422  15.049  27.937  0.00  0.00    -0.270 OA
ATOM     15  H10 UNL     1      12.461  14.761  25.348  0.00  0.00    +0.145 HD
ATOM     16  H11 UNL     1      14.195  15.200  25.384  0.00  0.00    +0.145 HD
ENDBRANCH   7  12
ENDBRANCH   3   5
BRANCH   1  19
ATOM     17  C4  UNL     1      11.973  11.724  35.735  0.00  0.00    +0.136 A 
ATOM     18  N1  UNL     1      11.133  12.228  34.807  0.00  0.00    -0.207 NA
ATOM     19  C5  UNL     1      11.985  12.644  33.843  0.00  0.00    +0.237 A 
ATOM     20  N4  UNL     1      13.274  12.392  34.142  0.00  0.00    -0.140 NA
ATOM     21  N5  UNL     1      13.257  11.823  35.332  0.00  0.00    -0.215 N 
BRANCH  21  22
ATOM     22  C14 UNL     1      14.429  11.340  35.999  0.00  0.00    +0.086 A 
ATOM     23  C15 UNL     1      15.103  12.179  36.899  0.00  0.00    +0.029 A 
ATOM     24  C16 UNL     1      16.249  11.726  37.559  0.00  0.00    +0.002 A 
ATOM     25  C17 UNL     1      16.722  10.432  37.332  0.00  0.00    +0.002 A 
ATOM     26  C18 UNL     1      16.047   9.584  36.450  0.00  0.00    +0.022 A 
ATOM     27  C19 UNL     1      14.897  10.030  35.785  0.00  0.00    +0.066 A 
ATOM     28 CL1  UNL     1      14.043   8.920  34.721  0.00  0.00    -0.081 Cl
ENDBRANCH  21  22
BRANCH  17  30
ATOM     29  C1  UNL     1      10.954   9.620  36.590  0.00  0.00    +0.015 C 
ATOM     30  C2  UNL     1      11.504  10.996  36.972  0.00  0.00    +0.051 C 
ATOM     31  C3  UNL     1      10.450  11.819  37.718  0.00  0.00    +0.015 C 
ENDBRANCH  17  30
ENDBRANCH   1  19
TORSDOF 5
ENDMDL
MODEL 9
REMARK VINA RESULT:    -6.751     13.890     15.440
REMARK INTER + INTRA:          -9.679
REMARK INTER:                  -8.529
REMARK INTRA:                  -1.150
REMARK UNBOUND:                -0.955
REMARK  Name = /home/qwerty/github/datacon2025hack/step_04_hit_selection/docking/ligands/lig_538.pdb
REMARK  7 active torsions:
REMARK  status: ('A' for Active; 'I' for Inactive)
REMARK    1  A    between atoms: C1_1  and  C2_2
REMARK    2  A    between atoms: C2_2  and  C3_3
REMARK    3  A    between atoms: C2_2  and  C4_4
REMARK    4  A    between atoms: C5_6  and  C6_7
REMARK    5  A    between atoms: N2_9  and  C7_10
REMARK    6  A    between atoms: C9_12  and  C10_13
REMARK    7  A    between atoms: N5_21  and  C14_22
REMARK                            x       y       z     vdW  Elec       q    Type
REMARK                         _______ _______ _______ _____ _____    ______ ____
ROOT
ATOM      1  C6  UNL     1      11.304  11.418  32.099  0.00  0.00    +0.287 C 
ATOM      2  O1  UNL     1      10.794  10.428  31.510  0.00  0.00    -0.266 OA
ATOM      3  N2  UNL     1      11.485  12.664  31.406  0.00  0.00    -0.277 N 
ATOM      4  H8  UNL     1      12.158  13.356  31.806  0.00  0.00    +0.155 HD
ENDROOT
BRANCH   3   5
ATOM      5  C7  UNL     1      10.881  12.968  30.136  0.00  0.00    +0.070 A 
ATOM      6  C8  UNL     1       9.560  13.444  30.055  0.00  0.00    +0.039 A 
ATOM      7  C9  UNL     1       8.979  13.754  28.811  0.00  0.00    +0.038 A 
ATOM      8  C11 UNL     1       9.752  13.610  27.645  0.00  0.00    +0.016 A 
ATOM      9  C12 UNL     1      11.072  13.160  27.724  0.00  0.00    +0.041 A 
ATOM     10  C13 UNL     1      11.637  12.844  28.961  0.00  0.00    +0.145 A 
ATOM     11  F1  UNL     1      12.920  12.405  29.012  0.00  0.00    -0.204 F 
BRANCH   7  12
ATOM     12  C10 UNL     1       7.583  14.253  28.748  0.00  0.00    +0.242 C 
ATOM     13  N3  UNL     1       7.018  14.742  27.528  0.00  0.00    -0.325 N 
ATOM     14  O2  UNL     1       6.868  14.238  29.786  0.00  0.00    -0.270 OA
ATOM     15  H10 UNL     1       7.505  14.631  26.613  0.00  0.00    +0.145 HD
ATOM     16  H11 UNL     1       6.053  15.142  27.525  0.00  0.00    +0.145 HD
ENDBRANCH   7  12
ENDBRANCH   3   5
BRANCH   1  19
ATOM     17  C4  UNL     1      11.761  10.950  35.572  0.00  0.00    +0.136 A 
ATOM     18  N1  UNL     1      10.917  10.990  34.520  0.00  0.00    -0.207 NA
ATOM     19  C5  UNL     1      11.749  11.272  33.493  0.00  0.00    +0.237 A 
ATOM     20  N4  UNL     1      13.036  11.377  33.877  0.00  0.00    -0.140 NA
ATOM     21  N5  UNL     1      13.032  11.181  35.182  0.00  0.00    -0.215 N 
BRANCH  21  22
ATOM     22  C14 UNL     1      14.219  11.152  35.984  0.00  0.00    +0.086 A 
ATOM     23  C15 UNL     1      14.954   9.962  36.083  0.00  0.00    +0.029 A 
ATOM     24  C16 UNL     1      16.114   9.915  36.862  0.00  0.00    +0.002 A 
ATOM     25  C17 UNL     1      16.551  11.056  37.537  0.00  0.00    +0.002 A 
ATOM     26  C18 UNL     1      15.833  12.251  37.430  0.00  0.00    +0.022 A 
ATOM     27  C19 UNL     1      14.670  12.307  36.652  0.00  0.00    +0.066 A 
ATOM     28 CL1  UNL     1      13.820  13.838  36.498  0.00  0.00    -0.081 Cl
ENDBRANCH  21  22
BRANCH  17  30
ATOM     29  C1  UNL     1      10.474   9.270  36.882  0.00  0.00    +0.015 C 
ATOM     30  C2  UNL     1      11.340  10.529  36.959  0.00  0.00    +0.051 C 
ATOM     31  C3  UNL     1      10.596  11.664  37.667  0.00  0.00    +0.015 C 
ENDBRANCH  17  30
ENDBRANCH   1  19
TORSDOF 5
ENDMDL
