MODEL 1
REMARK VINA RESULT:    -6.274      0.000      0.000
REMARK INTER + INTRA:          -7.911
REMARK INTER:                  -7.375
REMARK INTRA:                  -0.536
REMARK UNBOUND:                -0.536
REMARK  Name = /home/qwerty/github/datacon2025hack/step_04_hit_selection/docking/ligands/lig_213.pdb
REMARK  6 active torsions:
REMARK  status: ('A' for Active; 'I' for Inactive)
REMARK    1  A    between atoms: C1_1  and  C2_2
REMARK    2  A    between atoms: C4_5  and  C5_7
REMARK    3  A    between atoms: N3_10  and  C7_11
REMARK    4  A    between atoms: C10_14  and  N4_15
REMARK    5  A    between atoms: C11_16  and  C12_18
REMARK    6  A    between atoms: N5_26  and  C20_27
REMARK                            x       y       z     vdW  Elec       q    Type
REMARK                         _______ _______ _______ _____ _____    ______ ____
ROOT
ATOM      1  C1  UNL     1      17.252  10.407  32.474  0.00  0.00    +0.011 C 
ATOM      2  C2  UNL     1      17.054  10.335  33.990  0.00  0.00    +0.025 C 
ATOM      3  C3  UNL     1      15.930  11.247  34.480  0.00  0.00    +0.113 C 
ATOM      4  N1  UNL     1      16.351  11.690  35.800  0.00  0.00    -0.295 N 
ATOM      5  C4  UNL     1      15.579  12.573  36.631  0.00  0.00    +0.250 C 
ATOM      6  O1  UNL     1      16.162  13.464  37.307  0.00  0.00    -0.270 OA
ATOM      7  C9  UNL     1      17.745  11.375  36.075  0.00  0.00    +0.130 C 
ATOM      8  C10 UNL     1      18.297  10.788  34.775  0.00  0.00    +0.095 C 
ENDROOT
BRANCH   5   9
ATOM      9  C5  UNL     1      14.115  12.451  36.730  0.00  0.00    +0.074 A 
ATOM     10  C6  UNL     1      13.159  13.346  36.283  0.00  0.00    +0.147 A 
ATOM     11  N2  UNL     1      11.935  12.807  36.453  0.00  0.00    -0.179 NA
ATOM     12  N3  UNL     1      12.097  11.613  37.000  0.00  0.00    -0.274 N 
ATOM     13  C7  UNL     1      11.003  10.688  37.266  0.00  0.00    +0.172 C 
ATOM     14  C8  UNL     1      13.405  11.350  37.163  0.00  0.00    +0.121 A 
ENDBRANCH   5   9
BRANCH   8  15
ATOM     15  N4  UNL     1      19.223   9.681  35.036  0.00  0.00    -0.307 N 
ATOM     16  C11 UNL     1      20.596   9.911  35.390  0.00  0.00    +0.245 C 
ATOM     17  O2  UNL     1      21.027  11.094  35.482  0.00  0.00    -0.270 OA
ATOM     18  H15 UNL     1      18.873   8.699  34.982  0.00  0.00    +0.149 HD
BRANCH  16  19
ATOM     19  C12 UNL     1      21.515   8.776  35.643  0.00  0.00    +0.046 A 
ATOM     20  C13 UNL     1      21.466   8.057  36.860  0.00  0.00    +0.014 A 
ATOM     21  C14 UNL     1      22.340   6.976  37.099  0.00  0.00    +0.003 A 
ATOM     22  C15 UNL     1      23.276   6.589  36.130  0.00  0.00    +0.026 A 
ATOM     23  C16 UNL     1      23.309   7.300  34.929  0.00  0.00    +0.050 A 
ATOM     24  C17 UNL     1      22.459   8.355  34.691  0.00  0.00    +0.012 A 
ATOM     25  C18 UNL     1      22.784   8.856  33.440  0.00  0.00    +0.028 A 
ATOM     26  C19 UNL     1      23.826   8.064  32.973  0.00  0.00    +0.086 A 
ATOM     27  N5  UNL     1      24.136   7.110  33.881  0.00  0.00    -0.350 N 
ATOM     28  C20 UNL     1      25.211   6.132  33.771  0.00  0.00    +0.149 C 
ENDBRANCH  16  19
ENDBRANCH   8  15
TORSDOF 3
ENDMDL
MODEL 2
REMARK VINA RESULT:    -6.273      5.096     10.025
REMARK INTER + INTRA:          -7.910
REMARK INTER:                  -7.427
REMARK INTRA:                  -0.482
REMARK UNBOUND:                -0.536
REMARK  Name = /home/qwerty/github/datacon2025hack/step_04_hit_selection/docking/ligands/lig_213.pdb
REMARK  6 active torsions:
REMARK  status: ('A' for Active; 'I' for Inactive)
REMARK    1  A    between atoms: C1_1  and  C2_2
REMARK    2  A    between atoms: C4_5  and  C5_7
REMARK    3  A    between atoms: N3_10  and  C7_11
REMARK    4  A    between atoms: C10_14  and  N4_15
REMARK    5  A    between atoms: C11_16  and  C12_18
REMARK    6  A    between atoms: N5_26  and  C20_27
REMARK                            x       y       z     vdW  Elec       q    Type
REMARK                         _______ _______ _______ _____ _____    ______ ____
ROOT
ATOM      1  C1  UNL     1      11.383  10.700  35.126  0.00  0.00    +0.011 C 
ATOM      2  C2  UNL     1      12.751  11.206  34.660  0.00  0.00    +0.025 C 
ATOM      3  C3  UNL     1      13.790  11.207  35.780  0.00  0.00    +0.113 C 
ATOM      4  N1  UNL     1      14.651  12.344  35.495  0.00  0.00    -0.295 N 
ATOM      5  C4  UNL     1      15.777  12.718  36.307  0.00  0.00    +0.250 C 
ATOM      6  O1  UNL     1      16.016  13.938  36.519  0.00  0.00    -0.270 OA
ATOM      7  C9  UNL     1      14.098  13.219  34.471  0.00  0.00    +0.130 C 
ATOM      8  C10 UNL     1      12.709  12.661  34.162  0.00  0.00    +0.095 C 
ENDROOT
BRANCH   5   9
ATOM      9  C5  UNL     1      16.677  11.707  36.886  0.00  0.00    +0.074 A 
ATOM     10  C6  UNL     1      16.440  10.888  37.975  0.00  0.00    +0.147 A 
ATOM     11  N2  UNL     1      17.462  10.019  38.106  0.00  0.00    -0.179 NA
ATOM     12  N3  UNL     1      18.331  10.276  37.142  0.00  0.00    -0.274 N 
ATOM     13  C7  UNL     1      19.536   9.493  36.906  0.00  0.00    +0.172 C 
ATOM     14  C8  UNL     1      17.881  11.279  36.367  0.00  0.00    +0.121 A 
ENDBRANCH   5   9
BRANCH   8  15
ATOM     15  N4  UNL     1      12.402  12.749  32.730  0.00  0.00    -0.307 N 
ATOM     16  C11 UNL     1      11.512  13.749  32.208  0.00  0.00    +0.245 C 
ATOM     17  O2  UNL     1      10.977  14.579  32.993  0.00  0.00    -0.270 OA
ATOM     18  H15 UNL     1      12.854  12.080  32.069  0.00  0.00    +0.149 HD
BRANCH  16  19
ATOM     19  C12 UNL     1      11.213  13.815  30.758  0.00  0.00    +0.046 A 
ATOM     20  C13 UNL     1       9.945  13.435  30.259  0.00  0.00    +0.014 A 
ATOM     21  C14 UNL     1       9.661  13.500  28.879  0.00  0.00    +0.003 A 
ATOM     22  C15 UNL     1      10.632  13.947  27.971  0.00  0.00    +0.026 A 
ATOM     23  C16 UNL     1      11.876  14.328  28.476  0.00  0.00    +0.050 A 
ATOM     24  C17 UNL     1      12.158  14.267  29.821  0.00  0.00    +0.012 A 
ATOM     25  C18 UNL     1      13.476  14.669  29.973  0.00  0.00    +0.028 A 
ATOM     26  C19 UNL     1      13.931  14.965  28.693  0.00  0.00    +0.086 A 
ATOM     27  N5  UNL     1      12.948  14.763  27.785  0.00  0.00    -0.350 N 
ATOM     28  C20 UNL     1      13.066  14.912  26.340  0.00  0.00    +0.149 C 
ENDBRANCH  16  19
ENDBRANCH   8  15
TORSDOF 3
ENDMDL
MODEL 3
REMARK VINA RESULT:    -6.261     13.650     16.998
REMARK INTER + INTRA:          -7.896
REMARK INTER:                  -7.524
REMARK INTRA:                  -0.372
REMARK UNBOUND:                -0.536
REMARK  Name = /home/qwerty/github/datacon2025hack/step_04_hit_selection/docking/ligands/lig_213.pdb
REMARK  6 active torsions:
REMARK  status: ('A' for Active; 'I' for Inactive)
REMARK    1  A    between atoms: C1_1  and  C2_2
REMARK    2  A    between atoms: C4_5  and  C5_7
REMARK    3  A    between atoms: N3_10  and  C7_11
REMARK    4  A    between atoms: C10_14  and  N4_15
REMARK    5  A    between atoms: C11_16  and  C12_18
REMARK    6  A    between atoms: N5_26  and  C20_27
REMARK                            x       y       z     vdW  Elec       q    Type
REMARK                         _______ _______ _______ _____ _____    ______ ____
ROOT
ATOM      1  C1  UNL     1      10.860  10.061  22.017  0.00  0.00    +0.011 C 
ATOM      2  C2  UNL     1      10.681   8.659  22.607  0.00  0.00    +0.025 C 
ATOM      3  C3  UNL     1      10.868   7.555  21.568  0.00  0.00    +0.113 C 
ATOM      4  N1  UNL     1       9.956   6.496  21.974  0.00  0.00    -0.295 N 
ATOM      5  C4  UNL     1       9.809   5.254  21.267  0.00  0.00    +0.250 C 
ATOM      6  O1  UNL     1       8.663   4.741  21.136  0.00  0.00    -0.270 OA
ATOM      7  C9  UNL     1       9.018   6.932  22.998  0.00  0.00    +0.130 C 
ATOM      8  C10 UNL     1       9.270   8.429  23.175  0.00  0.00    +0.095 C 
ENDROOT
BRANCH   5   9
ATOM      9  C5  UNL     1      10.971   4.547  20.703  0.00  0.00    +0.074 A 
ATOM     10  C6  UNL     1      11.842   4.995  19.726  0.00  0.00    +0.147 A 
ATOM     11  N2  UNL     1      12.841   4.102  19.581  0.00  0.00    -0.179 NA
ATOM     12  N3  UNL     1      12.617   3.110  20.428  0.00  0.00    -0.274 N 
ATOM     13  C7  UNL     1      13.525   1.988  20.621  0.00  0.00    +0.172 C 
ATOM     14  C8  UNL     1      11.504   3.353  21.143  0.00  0.00    +0.121 A 
ENDBRANCH   5   9
BRANCH   8  15
ATOM     15  N4  UNL     1       9.167   8.828  24.584  0.00  0.00    -0.307 N 
ATOM     16  C11 UNL     1       8.078   9.632  25.064  0.00  0.00    +0.245 C 
ATOM     17  O2  UNL     1       7.181  10.010  24.261  0.00  0.00    -0.270 OA
ATOM     18  H15 UNL     1       9.893   8.504  25.260  0.00  0.00    +0.149 HD
BRANCH  16  19
ATOM     19  C12 UNL     1       7.998  10.027  26.490  0.00  0.00    +0.046 A 
ATOM     20  C13 UNL     1       8.297  11.348  26.897  0.00  0.00    +0.014 A 
ATOM     21  C14 UNL     1       8.218  11.723  28.255  0.00  0.00    +0.003 A 
ATOM     22  C15 UNL     1       7.838  10.791  29.231  0.00  0.00    +0.026 A 
ATOM     23  C16 UNL     1       7.536   9.493  28.816  0.00  0.00    +0.050 A 
ATOM     24  C17 UNL     1       7.611   9.122  27.493  0.00  0.00    +0.012 A 
ATOM     25  C18 UNL     1       7.294   7.774  27.437  0.00  0.00    +0.028 A 
ATOM     26  C19 UNL     1       7.033   7.391  28.747  0.00  0.00    +0.086 A 
ATOM     27  N5  UNL     1       7.173   8.445  29.583  0.00  0.00    -0.350 N 
ATOM     28  C20 UNL     1       7.038   8.419  31.034  0.00  0.00    +0.149 C 
ENDBRANCH  16  19
ENDBRANCH   8  15
TORSDOF 3
ENDMDL
MODEL 4
REMARK VINA RESULT:    -6.232     11.526     14.682
REMARK INTER + INTRA:          -7.861
REMARK INTER:                  -7.773
REMARK INTRA:                  -0.088
REMARK UNBOUND:                -0.536
REMARK  Name = /home/qwerty/github/datacon2025hack/step_04_hit_selection/docking/ligands/lig_213.pdb
REMARK  6 active torsions:
REMARK  status: ('A' for Active; 'I' for Inactive)
REMARK    1  A    between atoms: C1_1  and  C2_2
REMARK    2  A    between atoms: C4_5  and  C5_7
REMARK    3  A    between atoms: N3_10  and  C7_11
REMARK    4  A    between atoms: C10_14  and  N4_15
REMARK    5  A    between atoms: C11_16  and  C12_18
REMARK    6  A    between atoms: N5_26  and  C20_27
REMARK                            x       y       z     vdW  Elec       q    Type
REMARK                         _______ _______ _______ _____ _____    ______ ____
ROOT
ATOM      1  C1  UNL     1      20.070   4.196  26.032  0.00  0.00    +0.011 C 
ATOM      2  C2  UNL     1      19.916   2.806  26.656  0.00  0.00    +0.025 C 
ATOM      3  C3  UNL     1      20.516   2.721  28.058  0.00  0.00    +0.113 C 
ATOM      4  N1  UNL     1      21.016   1.359  28.172  0.00  0.00    -0.295 N 
ATOM      5  C4  UNL     1      21.665   0.842  29.345  0.00  0.00    +0.250 C 
ATOM      6  O1  UNL     1      22.654   0.068  29.222  0.00  0.00    -0.270 OA
ATOM      7  C9  UNL     1      21.039   0.665  26.893  0.00  0.00    +0.130 C 
ATOM      8  C10 UNL     1      20.636   1.710  25.852  0.00  0.00    +0.095 C 
ENDROOT
BRANCH   5   9
ATOM      9  C5  UNL     1      21.191   1.178  30.698  0.00  0.00    +0.074 A 
ATOM     10  C6  UNL     1      20.289   0.477  31.478  0.00  0.00    +0.147 A 
ATOM     11  N2  UNL     1      20.219   1.049  32.696  0.00  0.00    -0.179 NA
ATOM     12  N3  UNL     1      21.039   2.087  32.698  0.00  0.00    -0.274 N 
ATOM     13  C7  UNL     1      21.297   2.915  33.869  0.00  0.00    +0.172 C 
ATOM     14  C8  UNL     1      21.665   2.186  31.512  0.00  0.00    +0.121 A 
ENDBRANCH   5   9
BRANCH   8  15
ATOM     15  N4  UNL     1      19.779   1.129  24.813  0.00  0.00    -0.307 N 
ATOM     16  C11 UNL     1      18.468   0.623  25.109  0.00  0.00    +0.245 C 
ATOM     17  O2  UNL     1      18.031   0.677  26.292  0.00  0.00    -0.270 OA
ATOM     18  H15 UNL     1      20.121   1.098  23.827  0.00  0.00    +0.149 HD
BRANCH  16  19
ATOM     19  C12 UNL     1      17.622   0.036  24.044  0.00  0.00    +0.046 A 
ATOM     20  C13 UNL     1      17.353  -1.352  24.009  0.00  0.00    +0.014 A 
ATOM     21  C14 UNL     1      16.547  -1.910  22.995  0.00  0.00    +0.003 A 
ATOM     22  C15 UNL     1      15.991  -1.096  21.998  0.00  0.00    +0.026 A 
ATOM     23  C16 UNL     1      16.255   0.274  22.048  0.00  0.00    +0.050 A 
ATOM     24  C17 UNL     1      17.041   0.823  23.034  0.00  0.00    +0.012 A 
ATOM     25  C18 UNL     1      17.133   2.179  22.765  0.00  0.00    +0.028 A 
ATOM     26  C19 UNL     1      16.382   2.389  21.614  0.00  0.00    +0.086 A 
ATOM     27  N5  UNL     1      15.841   1.225  21.186  0.00  0.00    -0.350 N 
ATOM     28  C20 UNL     1      15.041   1.037  19.982  0.00  0.00    +0.149 C 
ENDBRANCH  16  19
ENDBRANCH   8  15
TORSDOF 3
ENDMDL
MODEL 5
REMARK VINA RESULT:    -6.195      2.309      2.950
REMARK INTER + INTRA:          -7.818
REMARK INTER:                  -7.137
REMARK INTRA:                  -0.681
REMARK UNBOUND:                -0.536
REMARK  Name = /home/qwerty/github/datacon2025hack/step_04_hit_selection/docking/ligands/lig_213.pdb
REMARK  6 active torsions:
REMARK  status: ('A' for Active; 'I' for Inactive)
REMARK    1  A    between atoms: C1_1  and  C2_2
REMARK    2  A    between atoms: C4_5  and  C5_7
REMARK    3  A    between atoms: N3_10  and  C7_11
REMARK    4  A    between atoms: C10_14  and  N4_15
REMARK    5  A    between atoms: C11_16  and  C12_18
REMARK    6  A    between atoms: N5_26  and  C20_27
REMARK                            x       y       z     vdW  Elec       q    Type
REMARK                         _______ _______ _______ _____ _____    ______ ____
ROOT
ATOM      1  C1  UNL     1      16.531   8.743  37.746  0.00  0.00    +0.011 C 
ATOM      2  C2  UNL     1      17.131   9.868  36.900  0.00  0.00    +0.025 C 
ATOM      3  C3  UNL     1      16.098  10.919  36.500  0.00  0.00    +0.113 C 
ATOM      4  N1  UNL     1      16.519  11.383  35.186  0.00  0.00    -0.295 N 
ATOM      5  C4  UNL     1      15.821  12.388  34.432  0.00  0.00    +0.250 C 
ATOM      6  O1  UNL     1      15.705  12.262  33.182  0.00  0.00    -0.270 OA
ATOM      7  C9  UNL     1      17.550  10.538  34.602  0.00  0.00    +0.130 C 
ATOM      8  C10 UNL     1      17.715   9.365  35.568  0.00  0.00    +0.095 C 
ENDROOT
BRANCH   5   9
ATOM      9  C5  UNL     1      15.251  13.580  35.081  0.00  0.00    +0.074 A 
ATOM     10  C6  UNL     1      13.915  13.902  35.235  0.00  0.00    +0.147 A 
ATOM     11  N2  UNL     1      13.811  15.013  35.991  0.00  0.00    -0.179 NA
ATOM     12  N3  UNL     1      15.038  15.398  36.305  0.00  0.00    -0.274 N 
ATOM     13  C7  UNL     1      15.336  16.522  37.182  0.00  0.00    +0.172 C 
ATOM     14  C8  UNL     1      15.939  14.542  35.791  0.00  0.00    +0.121 A 
ENDBRANCH   5   9
BRANCH   8  15
ATOM     15  N4  UNL     1      19.122   8.967  35.693  0.00  0.00    -0.307 N 
ATOM     16  C11 UNL     1      19.518   7.586  35.716  0.00  0.00    +0.245 C 
ATOM     17  O2  UNL     1      18.640   6.684  35.625  0.00  0.00    -0.270 OA
ATOM     18  H15 UNL     1      19.858   9.705  35.749  0.00  0.00    +0.149 HD
BRANCH  16  19
ATOM     19  C12 UNL     1      20.944   7.209  35.849  0.00  0.00    +0.046 A 
ATOM     20  C13 UNL     1      21.556   7.109  37.120  0.00  0.00    +0.014 A 
ATOM     21  C14 UNL     1      22.914   6.748  37.245  0.00  0.00    +0.003 A 
ATOM     22  C15 UNL     1      23.687   6.475  36.107  0.00  0.00    +0.026 A 
ATOM     23  C16 UNL     1      23.070   6.567  34.858  0.00  0.00    +0.050 A 
ATOM     24  C17 UNL     1      21.746   6.919  34.731  0.00  0.00    +0.012 A 
ATOM     25  C18 UNL     1      21.471   6.957  33.373  0.00  0.00    +0.028 A 
ATOM     26  C19 UNL     1      22.658   6.615  32.736  0.00  0.00    +0.086 A 
ATOM     27  N5  UNL     1      23.628   6.369  33.647  0.00  0.00    -0.350 N 
ATOM     28  C20 UNL     1      25.018   6.039  33.358  0.00  0.00    +0.149 C 
ENDBRANCH  16  19
ENDBRANCH   8  15
TORSDOF 3
ENDMDL
MODEL 6
REMARK VINA RESULT:    -6.059      6.645     10.946
REMARK INTER + INTRA:          -7.657
REMARK INTER:                  -7.591
REMARK INTRA:                  -0.066
REMARK UNBOUND:                -0.536
REMARK  Name = /home/qwerty/github/datacon2025hack/step_04_hit_selection/docking/ligands/lig_213.pdb
REMARK  6 active torsions:
REMARK  status: ('A' for Active; 'I' for Inactive)
REMARK    1  A    between atoms: C1_1  and  C2_2
REMARK    2  A    between atoms: C4_5  and  C5_7
REMARK    3  A    between atoms: N3_10  and  C7_11
REMARK    4  A    between atoms: C10_14  and  N4_15
REMARK    5  A    between atoms: C11_16  and  C12_18
REMARK    6  A    between atoms: N5_26  and  C20_27
REMARK                            x       y       z     vdW  Elec       q    Type
REMARK                         _______ _______ _______ _____ _____    ______ ____
ROOT
ATOM      1  C1  UNL     1      18.504   1.934  31.911  0.00  0.00    +0.011 C 
ATOM      2  C2  UNL     1      19.805   2.536  31.374  0.00  0.00    +0.025 C 
ATOM      3  C3  UNL     1      20.131   2.066  29.958  0.00  0.00    +0.113 C 
ATOM      4  N1  UNL     1      21.584   2.010  29.904  0.00  0.00    -0.295 N 
ATOM      5  C4  UNL     1      22.325   1.612  28.738  0.00  0.00    +0.250 C 
ATOM      6  O1  UNL     1      23.359   0.901  28.869  0.00  0.00    -0.270 OA
ATOM      7  C9  UNL     1      22.195   2.131  31.219  0.00  0.00    +0.130 C 
ATOM      8  C10 UNL     1      21.033   2.142  32.212  0.00  0.00    +0.095 C 
ENDROOT
BRANCH   5   9
ATOM      9  C5  UNL     1      21.919   2.032  27.387  0.00  0.00    +0.074 A 
ATOM     10  C6  UNL     1      22.487   3.018  26.601  0.00  0.00    +0.147 A 
ATOM     11  N2  UNL     1      21.903   3.008  25.386  0.00  0.00    -0.179 NA
ATOM     12  N3  UNL     1      20.984   2.056  25.394  0.00  0.00    -0.274 N 
ATOM     13  C7  UNL     1      20.190   1.686  24.230  0.00  0.00    +0.172 C 
ATOM     14  C8  UNL     1      20.978   1.426  26.582  0.00  0.00    +0.121 A 
ENDBRANCH   5   9
BRANCH   8  15
ATOM     15  N4  UNL     1      21.278   3.079  33.314  0.00  0.00    -0.307 N 
ATOM     16  C11 UNL     1      21.570   4.465  33.078  0.00  0.00    +0.245 C 
ATOM     17  O2  UNL     1      21.618   4.899  31.894  0.00  0.00    -0.270 OA
ATOM     18  H15 UNL     1      21.220   2.735  34.298  0.00  0.00    +0.149 HD
BRANCH  16  19
ATOM     19  C12 UNL     1      21.820   5.391  34.208  0.00  0.00    +0.046 A 
ATOM     20  C13 UNL     1      23.130   5.616  34.689  0.00  0.00    +0.014 A 
ATOM     21  C14 UNL     1      23.366   6.499  35.763  0.00  0.00    +0.003 A 
ATOM     22  C15 UNL     1      22.302   7.177  36.376  0.00  0.00    +0.026 A 
ATOM     23  C16 UNL     1      21.014   6.955  35.886  0.00  0.00    +0.050 A 
ATOM     24  C17 UNL     1      20.779   6.094  34.839  0.00  0.00    +0.012 A 
ATOM     25  C18 UNL     1      19.407   6.073  34.638  0.00  0.00    +0.028 A 
ATOM     26  C19 UNL     1      18.873   6.940  35.584  0.00  0.00    +0.086 A 
ATOM     27  N5  UNL     1      19.858   7.482  36.337  0.00  0.00    -0.350 N 
ATOM     28  C20 UNL     1      19.682   8.390  37.464  0.00  0.00    +0.149 C 
ENDBRANCH  16  19
ENDBRANCH   8  15
TORSDOF 3
ENDMDL
MODEL 7
REMARK VINA RESULT:    -5.941     15.348     16.746
REMARK INTER + INTRA:          -7.520
REMARK INTER:                  -6.995
REMARK INTRA:                  -0.524
REMARK UNBOUND:                -0.536
REMARK  Name = /home/qwerty/github/datacon2025hack/step_04_hit_selection/docking/ligands/lig_213.pdb
REMARK  6 active torsions:
REMARK  status: ('A' for Active; 'I' for Inactive)
REMARK    1  A    between atoms: C1_1  and  C2_2
REMARK    2  A    between atoms: C4_5  and  C5_7
REMARK    3  A    between atoms: N3_10  and  C7_11
REMARK    4  A    between atoms: C10_14  and  N4_15
REMARK    5  A    between atoms: C11_16  and  C12_18
REMARK    6  A    between atoms: N5_26  and  C20_27
REMARK                            x       y       z     vdW  Elec       q    Type
REMARK                         _______ _______ _______ _____ _____    ______ ____
ROOT
ATOM      1  C1  UNL     1       7.104   5.258  28.521  0.00  0.00    +0.011 C 
ATOM      2  C2  UNL     1       7.966   4.651  27.411  0.00  0.00    +0.025 C 
ATOM      3  C3  UNL     1       7.910   5.458  26.115  0.00  0.00    +0.113 C 
ATOM      4  N1  UNL     1       8.035   4.472  25.051  0.00  0.00    -0.295 N 
ATOM      5  C4  UNL     1       8.032   4.802  23.653  0.00  0.00    +0.250 C 
ATOM      6  O1  UNL     1       7.432   4.051  22.835  0.00  0.00    -0.270 OA
ATOM      7  C9  UNL     1       7.887   3.108  25.536  0.00  0.00    +0.130 C 
ATOM      8  C10 UNL     1       7.514   3.236  27.013  0.00  0.00    +0.095 C 
ENDROOT
BRANCH   5   9
ATOM      9  C5  UNL     1       8.732   5.992  23.141  0.00  0.00    +0.074 A 
ATOM     10  C6  UNL     1      10.085   6.272  23.209  0.00  0.00    +0.147 A 
ATOM     11  N2  UNL     1      10.339   7.399  22.515  0.00  0.00    -0.179 NA
ATOM     12  N3  UNL     1       9.189   7.835  22.027  0.00  0.00    -0.274 N 
ATOM     13  C7  UNL     1       9.067   8.994  21.152  0.00  0.00    +0.172 C 
ATOM     14  C8  UNL     1       8.194   6.997  22.365  0.00  0.00    +0.121 A 
ENDBRANCH   5   9
BRANCH   8  15
ATOM     15  N4  UNL     1       8.162   2.197  27.822  0.00  0.00    -0.307 N 
ATOM     16  C11 UNL     1       7.553   0.913  28.033  0.00  0.00    +0.245 C 
ATOM     17  O2  UNL     1       6.432   0.662  27.511  0.00  0.00    -0.270 OA
ATOM     18  H15 UNL     1       9.098   2.387  28.242  0.00  0.00    +0.149 HD
BRANCH  16  19
ATOM     19  C12 UNL     1       8.224  -0.118  28.858  0.00  0.00    +0.046 A 
ATOM     20  C13 UNL     1       9.435  -0.714  28.437  0.00  0.00    +0.014 A 
ATOM     21  C14 UNL     1      10.073  -1.694  29.225  0.00  0.00    +0.003 A 
ATOM     22  C15 UNL     1       9.520  -2.097  30.449  0.00  0.00    +0.026 A 
ATOM     23  C16 UNL     1       8.330  -1.495  30.859  0.00  0.00    +0.050 A 
ATOM     24  C17 UNL     1       7.703  -0.539  30.095  0.00  0.00    +0.012 A 
ATOM     25  C18 UNL     1       6.540  -0.188  30.764  0.00  0.00    +0.028 A 
ATOM     26  C19 UNL     1       6.524  -0.957  31.922  0.00  0.00    +0.086 A 
ATOM     27  N5  UNL     1       7.622  -1.746  31.979  0.00  0.00    -0.350 N 
ATOM     28  C20 UNL     1       7.925  -2.729  33.013  0.00  0.00    +0.149 C 
ENDBRANCH  16  19
ENDBRANCH   8  15
TORSDOF 3
ENDMDL
MODEL 8
REMARK VINA RESULT:    -5.927      5.468     10.461
REMARK INTER + INTRA:          -7.503
REMARK INTER:                  -6.816
REMARK INTRA:                  -0.686
REMARK UNBOUND:                -0.536
REMARK  Name = /home/qwerty/github/datacon2025hack/step_04_hit_selection/docking/ligands/lig_213.pdb
REMARK  6 active torsions:
REMARK  status: ('A' for Active; 'I' for Inactive)
REMARK    1  A    between atoms: C1_1  and  C2_2
REMARK    2  A    between atoms: C4_5  and  C5_7
REMARK    3  A    between atoms: N3_10  and  C7_11
REMARK    4  A    between atoms: C10_14  and  N4_15
REMARK    5  A    between atoms: C11_16  and  C12_18
REMARK    6  A    between atoms: N5_26  and  C20_27
REMARK                            x       y       z     vdW  Elec       q    Type
REMARK                         _______ _______ _______ _____ _____    ______ ____
ROOT
ATOM      1  C1  UNL     1      11.400  11.530  34.964  0.00  0.00    +0.011 C 
ATOM      2  C2  UNL     1      12.821  11.539  34.394  0.00  0.00    +0.025 C 
ATOM      3  C3  UNL     1      13.889  11.363  35.472  0.00  0.00    +0.113 C 
ATOM      4  N1  UNL     1      15.026  12.144  35.008  0.00  0.00    -0.295 N 
ATOM      5  C4  UNL     1      16.264  12.257  35.728  0.00  0.00    +0.250 C 
ATOM      6  O1  UNL     1      16.868  13.365  35.762  0.00  0.00    -0.270 OA
ATOM      7  C9  UNL     1      14.686  13.012  33.890  0.00  0.00    +0.130 C 
ATOM      8  C10 UNL     1      13.176  12.865  33.701  0.00  0.00    +0.095 C 
ENDROOT
BRANCH   5   9
ATOM      9  C5  UNL     1      16.864  11.101  36.415  0.00  0.00    +0.074 A 
ATOM     10  C6  UNL     1      16.656  10.691  37.719  0.00  0.00    +0.147 A 
ATOM     11  N2  UNL     1      17.293   9.520  37.922  0.00  0.00    -0.179 NA
ATOM     12  N3  UNL     1      17.897   9.193  36.791  0.00  0.00    -0.274 N 
ATOM     13  C7  UNL     1      18.628   7.949  36.592  0.00  0.00    +0.172 C 
ATOM     14  C8  UNL     1      17.643  10.115  35.845  0.00  0.00    +0.121 A 
ENDBRANCH   5   9
BRANCH   8  15
ATOM     15  N4  UNL     1      12.810  12.865  32.280  0.00  0.00    -0.307 N 
ATOM     16  C11 UNL     1      11.674  13.596  31.792  0.00  0.00    +0.245 C 
ATOM     17  O2  UNL     1      10.966  14.259  32.598  0.00  0.00    -0.270 OA
ATOM     18  H15 UNL     1      13.401  12.336  31.601  0.00  0.00    +0.149 HD
BRANCH  16  19
ATOM     19  C12 UNL     1      11.321  13.576  30.353  0.00  0.00    +0.046 A 
ATOM     20  C13 UNL     1      11.831  14.550  29.464  0.00  0.00    +0.014 A 
ATOM     21  C14 UNL     1      11.496  14.529  28.094  0.00  0.00    +0.003 A 
ATOM     22  C15 UNL     1      10.648  13.536  27.583  0.00  0.00    +0.026 A 
ATOM     23  C16 UNL     1      10.159  12.573  28.467  0.00  0.00    +0.050 A 
ATOM     24  C17 UNL     1      10.483  12.589  29.804  0.00  0.00    +0.012 A 
ATOM     25  C18 UNL     1       9.802  11.536  30.394  0.00  0.00    +0.028 A 
ATOM     26  C19 UNL     1       9.094  10.921  29.369  0.00  0.00    +0.086 A 
ATOM     27  N5  UNL     1       9.322  11.552  28.194  0.00  0.00    -0.350 N 
ATOM     28  C20 UNL     1       8.710  11.232  26.910  0.00  0.00    +0.149 C 
ENDBRANCH  16  19
ENDBRANCH   8  15
TORSDOF 3
ENDMDL
MODEL 9
REMARK VINA RESULT:    -5.761      4.940      6.972
REMARK INTER + INTRA:          -7.307
REMARK INTER:                  -6.707
REMARK INTRA:                  -0.600
REMARK UNBOUND:                -0.536
REMARK  Name = /home/qwerty/github/datacon2025hack/step_04_hit_selection/docking/ligands/lig_213.pdb
REMARK  6 active torsions:
REMARK  status: ('A' for Active; 'I' for Inactive)
REMARK    1  A    between atoms: C1_1  and  C2_2
REMARK    2  A    between atoms: C4_5  and  C5_7
REMARK    3  A    between atoms: N3_10  and  C7_11
REMARK    4  A    between atoms: C10_14  and  N4_15
REMARK    5  A    between atoms: C11_16  and  C12_18
REMARK    6  A    between atoms: N5_26  and  C20_27
REMARK                            x       y       z     vdW  Elec       q    Type
REMARK                         _______ _______ _______ _____ _____    ______ ____
ROOT
ATOM      1  C1  UNL     1      22.816   8.067  31.544  0.00  0.00    +0.011 C 
ATOM      2  C2  UNL     1      21.651   7.854  32.514  0.00  0.00    +0.025 C 
ATOM      3  C3  UNL     1      21.505   8.997  33.517  0.00  0.00    +0.113 C 
ATOM      4  N1  UNL     1      21.014   8.369  34.735  0.00  0.00    -0.295 N 
ATOM      5  C4  UNL     1      20.733   9.088  35.947  0.00  0.00    +0.250 C 
ATOM      6  O1  UNL     1      21.028   8.574  37.061  0.00  0.00    -0.270 OA
ATOM      7  C9  UNL     1      21.099   6.917  34.686  0.00  0.00    +0.130 C 
ATOM      8  C10 UNL     1      21.818   6.592  33.377  0.00  0.00    +0.095 C 
ENDROOT
BRANCH   5   9
ATOM      9  C5  UNL     1      20.087  10.411  35.925  0.00  0.00    +0.074 A 
ATOM     10  C6  UNL     1      20.678  11.638  35.680  0.00  0.00    +0.147 A 
ATOM     11  N2  UNL     1      19.723  12.587  35.628  0.00  0.00    -0.179 NA
ATOM     12  N3  UNL     1      18.559  11.995  35.842  0.00  0.00    -0.274 N 
ATOM     13  C7  UNL     1      17.276  12.683  35.786  0.00  0.00    +0.172 C 
ATOM     14  C8  UNL     1      18.735  10.671  36.004  0.00  0.00    +0.121 A 
ENDBRANCH   5   9
BRANCH   8  15
ATOM     15  N4  UNL     1      21.251   5.401  32.735  0.00  0.00    -0.307 N 
ATOM     16  C11 UNL     1      22.065   4.269  32.387  0.00  0.00    +0.245 C 
ATOM     17  O2  UNL     1      23.301   4.290  32.638  0.00  0.00    -0.270 OA
ATOM     18  H15 UNL     1      20.226   5.365  32.541  0.00  0.00    +0.149 HD
BRANCH  16  19
ATOM     19  C12 UNL     1      21.470   3.079  31.734  0.00  0.00    +0.046 A 
ATOM     20  C13 UNL     1      21.025   1.976  32.497  0.00  0.00    +0.014 A 
ATOM     21  C14 UNL     1      20.458   0.845  31.874  0.00  0.00    +0.003 A 
ATOM     22  C15 UNL     1      20.321   0.793  30.479  0.00  0.00    +0.026 A 
ATOM     23  C16 UNL     1      20.754   1.892  29.737  0.00  0.00    +0.050 A 
ATOM     24  C17 UNL     1      21.308   2.998  30.340  0.00  0.00    +0.012 A 
ATOM     25  C18 UNL     1      21.665   3.871  29.324  0.00  0.00    +0.028 A 
ATOM     26  C19 UNL     1      21.298   3.244  28.139  0.00  0.00    +0.086 A 
ATOM     27  N5  UNL     1      20.736   2.041  28.397  0.00  0.00    -0.350 N 
ATOM     28  C20 UNL     1      20.280   1.073  27.407  0.00  0.00    +0.149 C 
ENDBRANCH  16  19
ENDBRANCH   8  15
TORSDOF 3
ENDMDL
