MODEL 1
REMARK VINA RESULT:    -7.299      0.000      0.000
REMARK INTER + INTRA:         -10.233
REMARK INTER:                  -9.432
REMARK INTRA:                  -0.800
REMARK UNBOUND:                -0.800
REMARK  Name = /home/qwerty/github/datacon2025hack/step_04_hit_selection/docking/ligands/lig_68.pdb
REMARK  7 active torsions:
REMARK  status: ('A' for Active; 'I' for Inactive)
REMARK    1  A    between atoms: C1_1  and  C2_2
REMARK    2  A    between atoms: C2_2  and  C3_3
REMARK    3  A    between atoms: C2_2  and  C4_4
REMARK    4  A    between atoms: C5_7  and  C6_8
REMARK    5  A    between atoms: C6_8  and  N3_9
REMARK    6  A    between atoms: N4_12  and  C8_13
REMARK    7  A    between atoms: C12_17  and  N5_18
REMARK                            x       y       z     vdW  Elec       q    Type
REMARK                         _______ _______ _______ _____ _____    ______ ____
ROOT
ATOM      1  N3  UNL     1      18.370  10.611  37.589  0.00  0.00    -0.292 N 
ATOM      2  C7  UNL     1      19.134   9.522  37.052  0.00  0.00    +0.304 C 
ATOM      3  O1  UNL     1      18.562   8.440  36.751  0.00  0.00    -0.252 OA
ATOM      4  N4  UNL     1      20.541   9.689  36.823  0.00  0.00    -0.269 N 
ATOM      5  H11 UNL     1      18.851  11.518  37.784  0.00  0.00    +0.151 HD
ATOM      6  H12 UNL     1      20.916  10.664  36.800  0.00  0.00    +0.156 HD
ENDROOT
BRANCH   4   7
ATOM      7  C8  UNL     1      21.442   8.609  36.523  0.00  0.00    +0.037 A 
ATOM      8  C9  UNL     1      21.851   7.700  37.515  0.00  0.00    +0.023 A 
ATOM      9  C10 UNL     1      22.745   6.675  37.202  0.00  0.00    +0.004 A 
ATOM     10  C11 UNL     1      23.251   6.551  35.907  0.00  0.00    +0.023 A 
ATOM     11  C12 UNL     1      22.871   7.462  34.904  0.00  0.00    +0.031 A 
ATOM     12  C19 UNL     1      21.973   8.495  35.229  0.00  0.00    +0.046 A 
BRANCH  11  13
ATOM     13  N5  UNL     1      23.409   7.349  33.568  0.00  0.00    -0.330 N 
ATOM     14  C13 UNL     1      22.491   7.068  32.446  0.00  0.00    +0.105 C 
ATOM     15  C14 UNL     1      23.049   7.481  31.072  0.00  0.00    +0.019 C 
ATOM     16  C15 UNL     1      23.299   8.994  30.930  0.00  0.00    +0.002 C 
ATOM     17  C16 UNL     1      23.966   9.669  32.142  0.00  0.00    +0.002 C 
ATOM     18  C17 UNL     1      25.181   8.904  32.695  0.00  0.00    +0.019 C 
ATOM     19  C18 UNL     1      24.853   7.538  33.339  0.00  0.00    +0.105 C 
ENDBRANCH  11  13
ENDBRANCH   4   7
BRANCH   1  20
ATOM     20  C6  UNL     1      16.944  10.499  37.882  0.00  0.00    +0.181 C 
BRANCH  20  24
ATOM     21  C4  UNL     1      14.807  13.123  36.805  0.00  0.00    +0.154 A 
ATOM     22  N1  UNL     1      15.924  13.841  37.044  0.00  0.00    -0.157 NA
ATOM     23  N2  UNL     1      16.818  12.974  37.481  0.00  0.00    -0.261 N 
ATOM     24  C5  UNL     1      16.239  11.762  37.502  0.00  0.00    +0.142 A 
ATOM     25  N6  UNL     1      14.963  11.807  37.072  0.00  0.00    -0.214 NA
ATOM     26  H8  UNL     1      17.800  13.213  37.745  0.00  0.00    +0.190 HD
BRANCH  21  28
ATOM     27  C1  UNL     1      13.697  14.083  34.789  0.00  0.00    +0.015 C 
ATOM     28  C2  UNL     1      13.533  13.711  36.265  0.00  0.00    +0.053 C 
ATOM     29  C3  UNL     1      12.374  12.731  36.458  0.00  0.00    +0.015 C 
ENDBRANCH  21  28
ENDBRANCH  20  24
ENDBRANCH   1  20
TORSDOF 5
ENDMDL
MODEL 2
REMARK VINA RESULT:    -7.139      2.129      4.034
REMARK INTER + INTRA:         -10.026
REMARK INTER:                  -9.147
REMARK INTRA:                  -0.880
REMARK UNBOUND:                -0.800
REMARK  Name = /home/qwerty/github/datacon2025hack/step_04_hit_selection/docking/ligands/lig_68.pdb
REMARK  7 active torsions:
REMARK  status: ('A' for Active; 'I' for Inactive)
REMARK    1  A    between atoms: C1_1  and  C2_2
REMARK    2  A    between atoms: C2_2  and  C3_3
REMARK    3  A    between atoms: C2_2  and  C4_4
REMARK    4  A    between atoms: C5_7  and  C6_8
REMARK    5  A    between atoms: C6_8  and  N3_9
REMARK    6  A    between atoms: N4_12  and  C8_13
REMARK    7  A    between atoms: C12_17  and  N5_18
REMARK                            x       y       z     vdW  Elec       q    Type
REMARK                         _______ _______ _______ _____ _____    ______ ____
ROOT
ATOM      1  N3  UNL     1      16.164  13.083  37.531  0.00  0.00    -0.292 N 
ATOM      2  C7  UNL     1      16.886  11.921  37.102  0.00  0.00    +0.304 C 
ATOM      3  O1  UNL     1      17.146  11.756  35.879  0.00  0.00    -0.252 OA
ATOM      4  N4  UNL     1      17.345  10.971  38.076  0.00  0.00    -0.269 N 
ATOM      5  H11 UNL     1      16.003  13.229  38.553  0.00  0.00    +0.151 HD
ATOM      6  H12 UNL     1      17.376  11.278  39.074  0.00  0.00    +0.156 HD
ENDROOT
BRANCH   4   7
ATOM      7  C8  UNL     1      17.857   9.667  37.752  0.00  0.00    +0.037 A 
ATOM      8  C9  UNL     1      17.028   8.532  37.764  0.00  0.00    +0.023 A 
ATOM      9  C10 UNL     1      17.556   7.273  37.469  0.00  0.00    +0.004 A 
ATOM     10  C11 UNL     1      18.912   7.131  37.170  0.00  0.00    +0.023 A 
ATOM     11  C12 UNL     1      19.763   8.251  37.171  0.00  0.00    +0.031 A 
ATOM     12  C19 UNL     1      19.224   9.514  37.475  0.00  0.00    +0.046 A 
BRANCH  11  13
ATOM     13  N5  UNL     1      21.172   8.103  36.884  0.00  0.00    -0.330 N 
ATOM     14  C13 UNL     1      21.945   7.068  37.598  0.00  0.00    +0.105 C 
ATOM     15  C14 UNL     1      23.237   6.651  36.874  0.00  0.00    +0.019 C 
ATOM     16  C15 UNL     1      22.998   6.002  35.497  0.00  0.00    +0.002 C 
ATOM     17  C16 UNL     1      21.942   6.693  34.616  0.00  0.00    +0.002 C 
ATOM     18  C17 UNL     1      22.089   8.223  34.546  0.00  0.00    +0.019 C 
ATOM     19  C18 UNL     1      21.810   8.965  35.873  0.00  0.00    +0.105 C 
ENDBRANCH  11  13
ENDBRANCH   4   7
BRANCH   1  20
ATOM     20  C6  UNL     1      15.636  14.069  36.592  0.00  0.00    +0.181 C 
BRANCH  20  24
ATOM     21  C4  UNL     1      12.278  12.957  36.267  0.00  0.00    +0.154 A 
ATOM     22  N1  UNL     1      12.150  14.188  35.729  0.00  0.00    -0.157 NA
ATOM     23  N2  UNL     1      13.347  14.737  35.805  0.00  0.00    -0.261 N 
ATOM     24  C5  UNL     1      14.171  13.846  36.381  0.00  0.00    +0.142 A 
ATOM     25  N6  UNL     1      13.538  12.697  36.683  0.00  0.00    -0.214 NA
ATOM     26  H8  UNL     1      13.587  15.693  35.460  0.00  0.00    +0.190 HD
BRANCH  21  28
ATOM     27  C1  UNL     1      11.179  11.008  35.167  0.00  0.00    +0.015 C 
ATOM     28  C2  UNL     1      11.154  11.964  36.363  0.00  0.00    +0.053 C 
ATOM     29  C3  UNL     1      11.240  11.192  37.683  0.00  0.00    +0.015 C 
ENDBRANCH  21  28
ENDBRANCH  20  24
ENDBRANCH   1  20
TORSDOF 5
ENDMDL
MODEL 3
REMARK VINA RESULT:    -7.118      2.357     10.149
REMARK INTER + INTRA:          -9.999
REMARK INTER:                  -9.152
REMARK INTRA:                  -0.847
REMARK UNBOUND:                -0.800
REMARK  Name = /home/qwerty/github/datacon2025hack/step_04_hit_selection/docking/ligands/lig_68.pdb
REMARK  7 active torsions:
REMARK  status: ('A' for Active; 'I' for Inactive)
REMARK    1  A    between atoms: C1_1  and  C2_2
REMARK    2  A    between atoms: C2_2  and  C3_3
REMARK    3  A    between atoms: C2_2  and  C4_4
REMARK    4  A    between atoms: C5_7  and  C6_8
REMARK    5  A    between atoms: C6_8  and  N3_9
REMARK    6  A    between atoms: N4_12  and  C8_13
REMARK    7  A    between atoms: C12_17  and  N5_18
REMARK                            x       y       z     vdW  Elec       q    Type
REMARK                         _______ _______ _______ _____ _____    ______ ____
ROOT
ATOM      1  N3  UNL     1      19.111  12.128  36.815  0.00  0.00    -0.292 N 
ATOM      2  C7  UNL     1      17.834  12.498  36.278  0.00  0.00    +0.304 C 
ATOM      3  O1  UNL     1      17.577  12.290  35.061  0.00  0.00    -0.252 OA
ATOM      4  N4  UNL     1      16.839  13.065  37.143  0.00  0.00    -0.269 N 
ATOM      5  H11 UNL     1      19.288  12.259  37.836  0.00  0.00    +0.151 HD
ATOM      6  H12 UNL     1      16.970  12.950  38.173  0.00  0.00    +0.156 HD
ENDROOT
BRANCH   4   7
ATOM      7  C8  UNL     1      15.630  13.690  36.680  0.00  0.00    +0.037 A 
ATOM      8  C9  UNL     1      15.548  15.082  36.499  0.00  0.00    +0.023 A 
ATOM      9  C10 UNL     1      14.355  15.666  36.070  0.00  0.00    +0.004 A 
ATOM     10  C11 UNL     1      13.230  14.875  35.831  0.00  0.00    +0.023 A 
ATOM     11  C12 UNL     1      13.283  13.483  36.026  0.00  0.00    +0.031 A 
ATOM     12  C19 UNL     1      14.488  12.904  36.462  0.00  0.00    +0.046 A 
BRANCH  11  13
ATOM     13  N5  UNL     1      12.114  12.664  35.801  0.00  0.00    -0.330 N 
ATOM     14  C13 UNL     1      12.201  11.535  34.854  0.00  0.00    +0.105 C 
ATOM     15  C14 UNL     1      11.125  10.457  35.078  0.00  0.00    +0.019 C 
ATOM     16  C15 UNL     1      11.220   9.756  36.446  0.00  0.00    +0.002 C 
ATOM     17  C16 UNL     1      11.481  10.684  37.646  0.00  0.00    +0.002 C 
ATOM     18  C17 UNL     1      10.595  11.942  37.669  0.00  0.00    +0.019 C 
ATOM     19  C18 UNL     1      10.865  12.950  36.529  0.00  0.00    +0.105 C 
ENDBRANCH  11  13
ENDBRANCH   4   7
BRANCH   1  20
ATOM     20  C6  UNL     1      20.182  11.581  35.985  0.00  0.00    +0.181 C 
BRANCH  20  24
ATOM     21  C4  UNL     1      21.375   8.286  36.563  0.00  0.00    +0.154 A 
ATOM     22  N1  UNL     1      20.435   8.346  37.528  0.00  0.00    -0.157 NA
ATOM     23  N2  UNL     1      19.910   9.554  37.441  0.00  0.00    -0.261 N 
ATOM     24  C5  UNL     1      20.532  10.200  36.440  0.00  0.00    +0.142 A 
ATOM     25  N6  UNL     1      21.464   9.430  35.847  0.00  0.00    -0.214 NA
ATOM     26  H8  UNL     1      19.141   9.915  38.047  0.00  0.00    +0.190 HD
BRANCH  21  28
ATOM     27  C1  UNL     1      23.161   7.329  35.109  0.00  0.00    +0.015 C 
ATOM     28  C2  UNL     1      22.212   7.069  36.282  0.00  0.00    +0.053 C 
ATOM     29  C3  UNL     1      22.989   6.660  37.536  0.00  0.00    +0.015 C 
ENDBRANCH  21  28
ENDBRANCH  20  24
ENDBRANCH   1  20
TORSDOF 5
ENDMDL
MODEL 4
REMARK VINA RESULT:    -6.912      1.741      8.735
REMARK INTER + INTRA:          -9.733
REMARK INTER:                  -9.187
REMARK INTRA:                  -0.546
REMARK UNBOUND:                -0.800
REMARK  Name = /home/qwerty/github/datacon2025hack/step_04_hit_selection/docking/ligands/lig_68.pdb
REMARK  7 active torsions:
REMARK  status: ('A' for Active; 'I' for Inactive)
REMARK    1  A    between atoms: C1_1  and  C2_2
REMARK    2  A    between atoms: C2_2  and  C3_3
REMARK    3  A    between atoms: C2_2  and  C4_4
REMARK    4  A    between atoms: C5_7  and  C6_8
REMARK    5  A    between atoms: C6_8  and  N3_9
REMARK    6  A    between atoms: N4_12  and  C8_13
REMARK    7  A    between atoms: C12_17  and  N5_18
REMARK                            x       y       z     vdW  Elec       q    Type
REMARK                         _______ _______ _______ _____ _____    ______ ____
ROOT
ATOM      1  N3  UNL     1      22.718   7.473  36.891  0.00  0.00    -0.292 N 
ATOM      2  C7  UNL     1      21.300   7.661  36.994  0.00  0.00    +0.304 C 
ATOM      3  O1  UNL     1      20.514   6.757  36.600  0.00  0.00    -0.252 OA
ATOM      4  N4  UNL     1      20.786   8.864  37.585  0.00  0.00    -0.269 N 
ATOM      5  H11 UNL     1      23.355   8.210  37.269  0.00  0.00    +0.151 HD
ATOM      6  H12 UNL     1      21.442   9.442  38.157  0.00  0.00    +0.156 HD
ENDROOT
BRANCH   4   7
ATOM      7  C8  UNL     1      19.407   9.267  37.523  0.00  0.00    +0.037 A 
ATOM      8  C9  UNL     1      18.372   8.400  37.916  0.00  0.00    +0.023 A 
ATOM      9  C10 UNL     1      17.040   8.808  37.823  0.00  0.00    +0.004 A 
ATOM     10  C11 UNL     1      16.724  10.074  37.329  0.00  0.00    +0.023 A 
ATOM     11  C12 UNL     1      17.742  10.950  36.911  0.00  0.00    +0.031 A 
ATOM     12  C19 UNL     1      19.081  10.529  37.003  0.00  0.00    +0.046 A 
BRANCH  11  13
ATOM     13  N5  UNL     1      17.417  12.253  36.378  0.00  0.00    -0.330 N 
ATOM     14  C13 UNL     1      18.118  12.730  35.169  0.00  0.00    +0.105 C 
ATOM     15  C14 UNL     1      17.361  13.833  34.409  0.00  0.00    +0.019 C 
ATOM     16  C15 UNL     1      15.998  13.383  33.851  0.00  0.00    +0.002 C 
ATOM     17  C16 UNL     1      15.141  12.535  34.808  0.00  0.00    +0.002 C 
ATOM     18  C17 UNL     1      15.054  13.099  36.237  0.00  0.00    +0.019 C 
ATOM     19  C18 UNL     1      16.381  13.076  37.028  0.00  0.00    +0.105 C 
ENDBRANCH  11  13
ENDBRANCH   4   7
BRANCH   1  20
ATOM     20  C6  UNL     1      23.309   6.292  36.267  0.00  0.00    +0.181 C 
BRANCH  20  24
ATOM     21  C4  UNL     1      24.287   7.635  33.127  0.00  0.00    +0.154 A 
ATOM     22  N1  UNL     1      24.886   6.429  33.041  0.00  0.00    -0.157 NA
ATOM     23  N2  UNL     1      24.616   5.815  34.177  0.00  0.00    -0.261 N 
ATOM     24  C5  UNL     1      23.870   6.644  34.925  0.00  0.00    +0.142 A 
ATOM     25  N6  UNL     1      23.628   7.809  34.295  0.00  0.00    -0.214 NA
ATOM     26  H8  UNL     1      24.930   4.849  34.422  0.00  0.00    +0.190 HD
BRANCH  21  28
ATOM     27  C1  UNL     1      22.995   9.443  31.996  0.00  0.00    +0.015 C 
ATOM     28  C2  UNL     1      24.313   8.664  32.032  0.00  0.00    +0.053 C 
ATOM     29  C3  UNL     1      25.503   9.608  32.220  0.00  0.00    +0.015 C 
ENDBRANCH  21  28
ENDBRANCH  20  24
ENDBRANCH   1  20
TORSDOF 5
ENDMDL
MODEL 5
REMARK VINA RESULT:    -6.778      6.402     10.842
REMARK INTER + INTRA:          -9.560
REMARK INTER:                  -8.701
REMARK INTRA:                  -0.859
REMARK UNBOUND:                -0.800
REMARK  Name = /home/qwerty/github/datacon2025hack/step_04_hit_selection/docking/ligands/lig_68.pdb
REMARK  7 active torsions:
REMARK  status: ('A' for Active; 'I' for Inactive)
REMARK    1  A    between atoms: C1_1  and  C2_2
REMARK    2  A    between atoms: C2_2  and  C3_3
REMARK    3  A    between atoms: C2_2  and  C4_4
REMARK    4  A    between atoms: C5_7  and  C6_8
REMARK    5  A    between atoms: C6_8  and  N3_9
REMARK    6  A    between atoms: N4_12  and  C8_13
REMARK    7  A    between atoms: C12_17  and  N5_18
REMARK                            x       y       z     vdW  Elec       q    Type
REMARK                         _______ _______ _______ _____ _____    ______ ____
ROOT
ATOM      1  N3  UNL     1      12.575  15.325  29.682  0.00  0.00    -0.292 N 
ATOM      2  C7  UNL     1      12.728  14.627  30.926  0.00  0.00    +0.304 C 
ATOM      3  O1  UNL     1      13.191  13.454  30.938  0.00  0.00    -0.252 OA
ATOM      4  N4  UNL     1      12.390  15.287  32.155  0.00  0.00    -0.269 N 
ATOM      5  H11 UNL     1      12.239  16.314  29.695  0.00  0.00    +0.151 HD
ATOM      6  H12 UNL     1      12.298  16.327  32.137  0.00  0.00    +0.156 HD
ENDROOT
BRANCH   4   7
ATOM      7  C8  UNL     1      12.271  14.618  33.422  0.00  0.00    +0.037 A 
ATOM      8  C9  UNL     1      11.019  14.229  33.930  0.00  0.00    +0.023 A 
ATOM      9  C10 UNL     1      10.929  13.603  35.174  0.00  0.00    +0.004 A 
ATOM     10  C11 UNL     1      12.080  13.368  35.930  0.00  0.00    +0.023 A 
ATOM     11  C12 UNL     1      13.340  13.768  35.450  0.00  0.00    +0.031 A 
ATOM     12  C19 UNL     1      13.421  14.402  34.197  0.00  0.00    +0.046 A 
BRANCH  11  13
ATOM     13  N5  UNL     1      14.530  13.546  36.239  0.00  0.00    -0.330 N 
ATOM     14  C13 UNL     1      14.572  12.401  37.170  0.00  0.00    +0.105 C 
ATOM     15  C14 UNL     1      15.998  11.958  37.543  0.00  0.00    +0.019 C 
ATOM     16  C15 UNL     1      16.826  11.450  36.347  0.00  0.00    +0.002 C 
ATOM     17  C16 UNL     1      16.711  12.289  35.062  0.00  0.00    +0.002 C 
ATOM     18  C17 UNL     1      16.843  13.805  35.289  0.00  0.00    +0.019 C 
ATOM     19  C18 UNL     1      15.688  14.446  36.091  0.00  0.00    +0.105 C 
ENDBRANCH  11  13
ENDBRANCH   4   7
BRANCH   1  20
ATOM     20  C6  UNL     1      12.864  14.702  28.393  0.00  0.00    +0.181 C 
BRANCH  20  24
ATOM     21  C4  UNL     1       9.776  13.084  27.710  0.00  0.00    +0.154 A 
ATOM     22  N1  UNL     1      10.613  12.209  27.116  0.00  0.00    -0.157 NA
ATOM     23  N2  UNL     1      11.824  12.707  27.278  0.00  0.00    -0.261 N 
ATOM     24  C5  UNL     1      11.706  13.860  27.957  0.00  0.00    +0.142 A 
ATOM     25  N6  UNL     1      10.423  14.135  28.261  0.00  0.00    -0.214 NA
ATOM     26  H8  UNL     1      12.703  12.258  26.938  0.00  0.00    +0.190 HD
BRANCH  21  28
ATOM     27  C1  UNL     1       7.873  12.466  29.198  0.00  0.00    +0.015 C 
ATOM     28  C2  UNL     1       8.286  12.898  27.788  0.00  0.00    +0.053 C 
ATOM     29  C3  UNL     1       7.569  14.186  27.377  0.00  0.00    +0.015 C 
ENDBRANCH  21  28
ENDBRANCH  20  24
ENDBRANCH   1  20
TORSDOF 5
ENDMDL
MODEL 6
REMARK VINA RESULT:    -6.719      2.047      9.466
REMARK INTER + INTRA:          -9.484
REMARK INTER:                  -8.653
REMARK INTRA:                  -0.831
REMARK UNBOUND:                -0.800
REMARK  Name = /home/qwerty/github/datacon2025hack/step_04_hit_selection/docking/ligands/lig_68.pdb
REMARK  7 active torsions:
REMARK  status: ('A' for Active; 'I' for Inactive)
REMARK    1  A    between atoms: C1_1  and  C2_2
REMARK    2  A    between atoms: C2_2  and  C3_3
REMARK    3  A    between atoms: C2_2  and  C4_4
REMARK    4  A    between atoms: C5_7  and  C6_8
REMARK    5  A    between atoms: C6_8  and  N3_9
REMARK    6  A    between atoms: N4_12  and  C8_13
REMARK    7  A    between atoms: C12_17  and  N5_18
REMARK                            x       y       z     vdW  Elec       q    Type
REMARK                         _______ _______ _______ _____ _____    ______ ____
ROOT
ATOM      1  N3  UNL     1      20.122   8.986  37.740  0.00  0.00    -0.292 N 
ATOM      2  C7  UNL     1      19.157   9.761  37.015  0.00  0.00    +0.304 C 
ATOM      3  O1  UNL     1      18.334   9.188  36.251  0.00  0.00    -0.252 OA
ATOM      4  N4  UNL     1      19.110  11.184  37.197  0.00  0.00    -0.269 N 
ATOM      5  H11 UNL     1      20.763   9.472  38.407  0.00  0.00    +0.151 HD
ATOM      6  H12 UNL     1      19.589  11.582  38.035  0.00  0.00    +0.156 HD
ENDROOT
BRANCH   4   7
ATOM      7  C8  UNL     1      18.362  12.080  36.356  0.00  0.00    +0.037 A 
ATOM      8  C9  UNL     1      18.979  12.790  35.312  0.00  0.00    +0.023 A 
ATOM      9  C10 UNL     1      18.235  13.671  34.525  0.00  0.00    +0.004 A 
ATOM     10  C11 UNL     1      16.875  13.863  34.777  0.00  0.00    +0.023 A 
ATOM     11  C12 UNL     1      16.243  13.178  35.829  0.00  0.00    +0.031 A 
ATOM     12  C19 UNL     1      17.001  12.296  36.619  0.00  0.00    +0.046 A 
BRANCH  11  13
ATOM     13  N5  UNL     1      14.840  13.391  36.106  0.00  0.00    -0.330 N 
ATOM     14  C13 UNL     1      14.096  14.391  35.314  0.00  0.00    +0.105 C 
ATOM     15  C14 UNL     1      12.573  14.171  35.315  0.00  0.00    +0.019 C 
ATOM     16  C15 UNL     1      12.134  12.840  34.676  0.00  0.00    +0.002 C 
ATOM     17  C16 UNL     1      12.977  11.612  35.064  0.00  0.00    +0.002 C 
ATOM     18  C17 UNL     1      13.256  11.496  36.573  0.00  0.00    +0.019 C 
ATOM     19  C18 UNL     1      14.169  12.599  37.153  0.00  0.00    +0.105 C 
ENDBRANCH  11  13
ENDBRANCH   4   7
BRANCH   1  20
ATOM     20  C6  UNL     1      20.251   7.541  37.574  0.00  0.00    +0.181 C 
BRANCH  20  24
ATOM     21  C4  UNL     1      23.130   6.667  35.687  0.00  0.00    +0.154 A 
ATOM     22  N1  UNL     1      23.679   6.687  36.919  0.00  0.00    -0.157 NA
ATOM     23  N2  UNL     1      22.703   7.026  37.739  0.00  0.00    -0.261 N 
ATOM     24  C5  UNL     1      21.593   7.205  37.004  0.00  0.00    +0.142 A 
ATOM     25  N6  UNL     1      21.815   6.979  35.695  0.00  0.00    -0.214 NA
ATOM     26  H8  UNL     1      22.800   7.120  38.775  0.00  0.00    +0.190 HD
BRANCH  21  28
ATOM     27  C1  UNL     1      23.019   5.430  33.524  0.00  0.00    +0.015 C 
ATOM     28  C2  UNL     1      23.885   6.301  34.439  0.00  0.00    +0.053 C 
ATOM     29  C3  UNL     1      24.351   7.565  33.712  0.00  0.00    +0.015 C 
ENDBRANCH  21  28
ENDBRANCH  20  24
ENDBRANCH   1  20
TORSDOF 5
ENDMDL
MODEL 7
REMARK VINA RESULT:    -6.655     15.672     18.970
REMARK INTER + INTRA:          -9.400
REMARK INTER:                  -8.509
REMARK INTRA:                  -0.891
REMARK UNBOUND:                -0.800
REMARK  Name = /home/qwerty/github/datacon2025hack/step_04_hit_selection/docking/ligands/lig_68.pdb
REMARK  7 active torsions:
REMARK  status: ('A' for Active; 'I' for Inactive)
REMARK    1  A    between atoms: C1_1  and  C2_2
REMARK    2  A    between atoms: C2_2  and  C3_3
REMARK    3  A    between atoms: C2_2  and  C4_4
REMARK    4  A    between atoms: C5_7  and  C6_8
REMARK    5  A    between atoms: C6_8  and  N3_9
REMARK    6  A    between atoms: N4_12  and  C8_13
REMARK    7  A    between atoms: C12_17  and  N5_18
REMARK                            x       y       z     vdW  Elec       q    Type
REMARK                         _______ _______ _______ _____ _____    ______ ____
ROOT
ATOM      1  N3  UNL     1      13.397   1.104  20.741  0.00  0.00    -0.292 N 
ATOM      2  C7  UNL     1      12.601   2.179  21.258  0.00  0.00    +0.304 C 
ATOM      3  O1  UNL     1      13.124   3.049  22.006  0.00  0.00    -0.252 OA
ATOM      4  N4  UNL     1      11.217   2.277  20.887  0.00  0.00    -0.269 N 
ATOM      5  H11 UNL     1      12.960   0.422  20.082  0.00  0.00    +0.151 HD
ATOM      6  H12 UNL     1      10.899   1.732  20.055  0.00  0.00    +0.156 HD
ENDROOT
BRANCH   4   7
ATOM      7  C8  UNL     1      10.273   3.154  21.524  0.00  0.00    +0.037 A 
ATOM      8  C9  UNL     1       9.441   2.703  22.564  0.00  0.00    +0.023 A 
ATOM      9  C10 UNL     1       8.515   3.569  23.149  0.00  0.00    +0.004 A 
ATOM     10  C11 UNL     1       8.400   4.886  22.700  0.00  0.00    +0.023 A 
ATOM     11  C12 UNL     1       9.208   5.352  21.647  0.00  0.00    +0.031 A 
ATOM     12  C19 UNL     1      10.135   4.472  21.060  0.00  0.00    +0.046 A 
BRANCH  11  13
ATOM     13  N5  UNL     1       9.076   6.708  21.165  0.00  0.00    -0.330 N 
ATOM     14  C13 UNL     1       7.997   7.559  21.705  0.00  0.00    +0.105 C 
ATOM     15  C14 UNL     1       8.258   9.067  21.539  0.00  0.00    +0.019 C 
ATOM     16  C15 UNL     1       9.498   9.573  22.300  0.00  0.00    +0.002 C 
ATOM     17  C16 UNL     1      10.744   8.674  22.203  0.00  0.00    +0.002 C 
ATOM     18  C17 UNL     1      11.062   8.198  20.775  0.00  0.00    +0.019 C 
ATOM     19  C18 UNL     1      10.026   7.228  20.165  0.00  0.00    +0.105 C 
ENDBRANCH  11  13
ENDBRANCH   4   7
BRANCH   1  20
ATOM     20  C6  UNL     1      14.799   0.921  21.107  0.00  0.00    +0.181 C 
BRANCH  20  24
ATOM     21  C4  UNL     1      14.810  -1.123  24.013  0.00  0.00    +0.154 A 
ATOM     22  N1  UNL     1      15.559  -1.898  23.202  0.00  0.00    -0.157 NA
ATOM     23  N2  UNL     1      15.623  -1.255  22.052  0.00  0.00    -0.261 N 
ATOM     24  C5  UNL     1      14.920  -0.117  22.179  0.00  0.00    +0.142 A 
ATOM     25  N6  UNL     1      14.393   0.014  23.411  0.00  0.00    -0.214 NA
ATOM     26  H8  UNL     1      16.144  -1.589  21.210  0.00  0.00    +0.190 HD
BRANCH  21  28
ATOM     27  C1  UNL     1      14.269  -2.967  25.601  0.00  0.00    +0.015 C 
ATOM     28  C2  UNL     1      14.499  -1.461  25.444  0.00  0.00    +0.053 C 
ATOM     29  C3  UNL     1      15.626  -0.980  26.360  0.00  0.00    +0.015 C 
ENDBRANCH  21  28
ENDBRANCH  20  24
ENDBRANCH   1  20
TORSDOF 5
ENDMDL
MODEL 8
REMARK VINA RESULT:    -6.635     15.393     17.129
REMARK INTER + INTRA:          -9.375
REMARK INTER:                  -8.492
REMARK INTRA:                  -0.883
REMARK UNBOUND:                -0.800
REMARK  Name = /home/qwerty/github/datacon2025hack/step_04_hit_selection/docking/ligands/lig_68.pdb
REMARK  7 active torsions:
REMARK  status: ('A' for Active; 'I' for Inactive)
REMARK    1  A    between atoms: C1_1  and  C2_2
REMARK    2  A    between atoms: C2_2  and  C3_3
REMARK    3  A    between atoms: C2_2  and  C4_4
REMARK    4  A    between atoms: C5_7  and  C6_8
REMARK    5  A    between atoms: C6_8  and  N3_9
REMARK    6  A    between atoms: N4_12  and  C8_13
REMARK    7  A    between atoms: C12_17  and  N5_18
REMARK                            x       y       z     vdW  Elec       q    Type
REMARK                         _______ _______ _______ _____ _____    ______ ____
ROOT
ATOM      1  N3  UNL     1      10.043   3.873  20.654  0.00  0.00    -0.292 N 
ATOM      2  C7  UNL     1      11.314   3.393  21.112  0.00  0.00    +0.304 C 
ATOM      3  O1  UNL     1      11.720   3.687  22.269  0.00  0.00    -0.252 OA
ATOM      4  N4  UNL     1      12.100   2.546  20.260  0.00  0.00    -0.269 N 
ATOM      5  H11 UNL     1       9.699   3.578  19.713  0.00  0.00    +0.151 HD
ATOM      6  H12 UNL     1      11.618   2.089  19.453  0.00  0.00    +0.156 HD
ENDROOT
BRANCH   4   7
ATOM      7  C8  UNL     1      13.475   2.207  20.507  0.00  0.00    +0.037 A 
ATOM      8  C9  UNL     1      14.525   2.942  19.928  0.00  0.00    +0.023 A 
ATOM      9  C10 UNL     1      15.852   2.578  20.165  0.00  0.00    +0.004 A 
ATOM     10  C11 UNL     1      16.147   1.475  20.969  0.00  0.00    +0.023 A 
ATOM     11  C12 UNL     1      15.112   0.715  21.542  0.00  0.00    +0.031 A 
ATOM     12  C19 UNL     1      13.778   1.086  21.294  0.00  0.00    +0.046 A 
BRANCH  11  13
ATOM     13  N5  UNL     1      15.413  -0.441  22.356  0.00  0.00    -0.330 N 
ATOM     14  C13 UNL     1      16.615  -1.242  22.048  0.00  0.00    +0.105 C 
ATOM     15  C14 UNL     1      17.118  -2.083  23.235  0.00  0.00    +0.019 C 
ATOM     16  C15 UNL     1      17.574  -1.244  24.444  0.00  0.00    +0.002 C 
ATOM     17  C16 UNL     1      16.655  -0.066  24.815  0.00  0.00    +0.002 C 
ATOM     18  C17 UNL     1      15.160  -0.428  24.858  0.00  0.00    +0.019 C 
ATOM     19  C18 UNL     1      14.538  -0.790  23.490  0.00  0.00    +0.105 C 
ENDBRANCH  11  13
ENDBRANCH   4   7
BRANCH   1  20
ATOM     20  C6  UNL     1       9.210   4.769  21.452  0.00  0.00    +0.181 C 
BRANCH  20  24
ATOM     21  C4  UNL     1      10.096   8.208  21.510  0.00  0.00    +0.154 A 
ATOM     22  N1  UNL     1      10.050   8.021  20.175  0.00  0.00    -0.157 NA
ATOM     23  N2  UNL     1       9.743   6.750  20.003  0.00  0.00    -0.261 N 
ATOM     24  C5  UNL     1       9.612   6.191  21.218  0.00  0.00    +0.142 A 
ATOM     25  N6  UNL     1       9.819   7.083  22.206  0.00  0.00    -0.214 NA
ATOM     26  H8  UNL     1       9.619   6.286  19.076  0.00  0.00    +0.190 HD
BRANCH  21  28
ATOM     27  C1  UNL     1      11.559  10.228  21.461  0.00  0.00    +0.015 C 
ATOM     28  C2  UNL     1      10.388   9.531  22.162  0.00  0.00    +0.053 C 
ATOM     29  C3  UNL     1       9.139  10.415  22.151  0.00  0.00    +0.015 C 
ENDBRANCH  21  28
ENDBRANCH  20  24
ENDBRANCH   1  20
TORSDOF 5
ENDMDL
MODEL 9
REMARK VINA RESULT:    -6.606     15.633     19.036
REMARK INTER + INTRA:          -9.337
REMARK INTER:                  -8.344
REMARK INTRA:                  -0.993
REMARK UNBOUND:                -0.800
REMARK  Name = /home/qwerty/github/datacon2025hack/step_04_hit_selection/docking/ligands/lig_68.pdb
REMARK  7 active torsions:
REMARK  status: ('A' for Active; 'I' for Inactive)
REMARK    1  A    between atoms: C1_1  and  C2_2
REMARK    2  A    between atoms: C2_2  and  C3_3
REMARK    3  A    between atoms: C2_2  and  C4_4
REMARK    4  A    between atoms: C5_7  and  C6_8
REMARK    5  A    between atoms: C6_8  and  N3_9
REMARK    6  A    between atoms: N4_12  and  C8_13
REMARK    7  A    between atoms: C12_17  and  N5_18
REMARK                            x       y       z     vdW  Elec       q    Type
REMARK                         _______ _______ _______ _____ _____    ______ ____
ROOT
ATOM      1  N3  UNL     1      12.896   0.652  21.408  0.00  0.00    -0.292 N 
ATOM      2  C7  UNL     1      12.042   1.619  22.033  0.00  0.00    +0.304 C 
ATOM      3  O1  UNL     1      12.544   2.592  22.658  0.00  0.00    -0.252 OA
ATOM      4  N4  UNL     1      10.618   1.493  21.908  0.00  0.00    -0.269 N 
ATOM      5  H11 UNL     1      12.464  -0.119  20.850  0.00  0.00    +0.151 HD
ATOM      6  H12 UNL     1      10.251   0.868  21.156  0.00  0.00    +0.156 HD
ENDROOT
BRANCH   4   7
ATOM      7  C8  UNL     1       9.671   2.249  22.681  0.00  0.00    +0.037 A 
ATOM      8  C9  UNL     1       9.065   3.409  22.167  0.00  0.00    +0.023 A 
ATOM      9  C10 UNL     1       8.166   4.138  22.948  0.00  0.00    +0.004 A 
ATOM     10  C11 UNL     1       7.871   3.729  24.249  0.00  0.00    +0.023 A 
ATOM     11  C12 UNL     1       8.481   2.583  24.791  0.00  0.00    +0.031 A 
ATOM     12  C19 UNL     1       9.389   1.857  23.999  0.00  0.00    +0.046 A 
BRANCH  11  13
ATOM     13  N5  UNL     1       8.195   2.170  26.146  0.00  0.00    -0.330 N 
ATOM     14  C13 UNL     1       7.602   3.144  27.084  0.00  0.00    +0.105 C 
ATOM     15  C14 UNL     1       6.874   2.493  28.274  0.00  0.00    +0.019 C 
ATOM     16  C15 UNL     1       5.661   1.635  27.869  0.00  0.00    +0.002 C 
ATOM     17  C16 UNL     1       5.876   0.721  26.649  0.00  0.00    +0.002 C 
ATOM     18  C17 UNL     1       7.194  -0.073  26.686  0.00  0.00    +0.019 C 
ATOM     19  C18 UNL     1       8.474   0.785  26.566  0.00  0.00    +0.105 C 
ENDBRANCH  11  13
ENDBRANCH   4   7
BRANCH   1  20
ATOM     20  C6  UNL     1      14.351   0.697  21.527  0.00  0.00    +0.181 C 
BRANCH  20  24
ATOM     21  C4  UNL     1      15.208  -1.397  24.265  0.00  0.00    +0.154 A 
ATOM     22  N1  UNL     1      15.888  -2.032  23.288  0.00  0.00    -0.157 NA
ATOM     23  N2  UNL     1      15.638  -1.357  22.183  0.00  0.00    -0.261 N 
ATOM     24  C5  UNL     1      14.821  -0.339  22.499  0.00  0.00    +0.142 A 
ATOM     25  N6  UNL     1      14.528  -0.319  23.814  0.00  0.00    -0.214 NA
ATOM     26  H8  UNL     1      16.028  -1.588  21.242  0.00  0.00    +0.190 HD
BRANCH  21  28
ATOM     27  C1  UNL     1      15.636  -0.639  26.602  0.00  0.00    +0.015 C 
ATOM     28  C2  UNL     1      15.229  -1.815  25.709  0.00  0.00    +0.053 C 
ATOM     29  C3  UNL     1      13.863  -2.369  26.120  0.00  0.00    +0.015 C 
ENDBRANCH  21  28
ENDBRANCH  20  24
ENDBRANCH   1  20
TORSDOF 5
ENDMDL
