REMARK  Name = /home/qwerty/github/datacon2025hack/step_04_hit_selection/docking/ligands/lig_658.pdb
REMARK  7 active torsions:
REMARK  status: ('A' for Active; 'I' for Inactive)
REMARK    1  A    between atoms: C1_1  and  C2_2
REMARK    2  A    between atoms: C2_2  and  N1_3
REMARK    3  A    between atoms: N2_6  and  C5_7
REMARK    4  A    between atoms: C8_10  and  N3_11
REMARK    5  A    between atoms: C9_12  and  C10_14
REMARK    6  A    between atoms: C13_17  and  N4_18
REMARK    7  A    between atoms: C14_19  and  C15_21
REMARK                            x       y       z     vdW  Elec       q    Type
REMARK                         _______ _______ _______ _____ _____    ______ ____
ROOT
ATOM      1  N3  UNL     1      -0.586   1.118   1.172  0.00  0.00    -0.281 N 
ATOM      2  C9  UNL     1       0.368   0.059   0.983  0.00  0.00    +0.248 C 
ATOM      3  O1  UNL     1       0.016  -1.138   1.169  0.00  0.00    -0.270 OA
ATOM      4  H12 UNL     1      -0.227   2.048   1.485  0.00  0.00    +0.155 HD
ENDROOT
BRANCH   1   8
ATOM      5  C5  UNL     1      -4.813   0.655   0.988  0.00  0.00    +0.048 A 
ATOM      6  C6  UNL     1      -3.982  -0.201   0.253  0.00  0.00    +0.026 A 
ATOM      7  C7  UNL     1      -2.594  -0.057   0.304  0.00  0.00    +0.025 A 
ATOM      8  C8  UNL     1      -2.012   0.934   1.115  0.00  0.00    +0.035 A 
ATOM      9  C23 UNL     1      -2.846   1.796   1.842  0.00  0.00    +0.045 A 
ATOM     10  C24 UNL     1      -4.238   1.659   1.788  0.00  0.00    +0.064 A 
ATOM     11 CL1  UNL     1      -5.234   2.731   2.765  0.00  0.00    -0.082 Cl
BRANCH   5  15
ATOM     12  N1  UNL     1      -8.734  -0.232  -0.184  0.00  0.00    -0.300 NA
ATOM     13  C3  UNL     1      -7.975   0.894  -0.771  0.00  0.00    +0.103 C 
ATOM     14  C4  UNL     1      -7.069   1.535   0.283  0.00  0.00    +0.120 C 
ATOM     15  N2  UNL     1      -6.238   0.502   0.901  0.00  0.00    -0.326 N 
ATOM     16  C25 UNL     1      -6.893  -0.710   1.394  0.00  0.00    +0.120 C 
ATOM     17  C26 UNL     1      -7.801  -1.275   0.301  0.00  0.00    +0.103 C 
BRANCH  12  19
ATOM     18  C1  UNL     1     -10.866  -1.446  -0.479  0.00  0.00    +0.020 C 
ATOM     19  C2  UNL     1      -9.677  -0.790  -1.177  0.00  0.00    +0.081 C 
ENDBRANCH  12  19
ENDBRANCH   5  15
ENDBRANCH   1   8
BRANCH   2  20
ATOM     20  C10 UNL     1       1.777   0.357   0.626  0.00  0.00    +0.037 A 
ATOM     21  C11 UNL     1       2.140   1.602   0.080  0.00  0.00    +0.015 A 
ATOM     22  C12 UNL     1       3.472   1.872  -0.249  0.00  0.00    +0.024 A 
ATOM     23  C13 UNL     1       4.463   0.900  -0.060  0.00  0.00    +0.033 A 
ATOM     24  C21 UNL     1       4.106  -0.342   0.491  0.00  0.00    +0.024 A 
ATOM     25  C22 UNL     1       2.776  -0.613   0.822  0.00  0.00    +0.015 A 
BRANCH  23  26
ATOM     26  N4  UNL     1       5.830   1.213  -0.375  0.00  0.00    -0.285 N 
ATOM     27  C14 UNL     1       6.783   0.247  -0.843  0.00  0.00    +0.220 C 
ATOM     28  O2  UNL     1       6.386  -0.849  -1.322  0.00  0.00    -0.275 OA
ATOM     29  H15 UNL     1       6.135   2.210  -0.300  0.00  0.00    +0.155 HD
BRANCH  27  30
ATOM     30  C15 UNL     1       8.262   0.549  -0.736  0.00  0.00    +0.075 C 
ATOM     31  C16 UNL     1       9.121  -0.169  -1.804  0.00  0.00    +0.013 C 
ATOM     32  C17 UNL     1       9.348  -1.661  -1.504  0.00  0.00    +0.001 C 
ATOM     33  C18 UNL     1       9.869  -1.879  -0.080  0.00  0.00    +0.000 C 
ATOM     34  C19 UNL     1       8.933  -1.241   0.950  0.00  0.00    +0.001 C 
ATOM     35  C20 UNL     1       8.781   0.262   0.687  0.00  0.00    +0.013 C 
ENDBRANCH  27  30
ENDBRANCH  23  26
ENDBRANCH   2  20
TORSDOF 6
