REMARK  Name = /home/qwerty/github/datacon2025hack/step_04_hit_selection/docking/ligands/lig_536.pdb
REMARK  9 active torsions:
REMARK  status: ('A' for Active; 'I' for Inactive)
REMARK    1  A    between atoms: C1_1  and  O1_2
REMARK    2  A    between atoms: O1_2  and  C2_3
REMARK    3  A    between atoms: C4_5  and  C5_6
REMARK    4  A    between atoms: C6_9  and  C7_10
REMARK    5  A    between atoms: C10_13  and  C11_14
REMARK    6  A    between atoms: C11_14  and  C12_15
REMARK    7  A    between atoms: C11_14  and  C13_16
REMARK    8  A    between atoms: C11_14  and  C14_17
REMARK    9  A    between atoms: C17_22  and  O3_23
REMARK                            x       y       z     vdW  Elec       q    Type
REMARK                         _______ _______ _______ _____ _____    ______ ____
ROOT
ATOM      1  C5  UNL     1       2.104   0.054  -0.021  0.00  0.00    +0.203 A 
ATOM      2  N1  UNL     1       1.866   1.267   0.520  0.00  0.00    -0.056 NA
ATOM      3  O2  UNL     1       0.573   1.373   0.549  0.00  0.00    -0.332 OA
ATOM      4  C6  UNL     1       0.031   0.288   0.055  0.00  0.00    +0.265 A 
ATOM      5  N2  UNL     1       0.965  -0.603  -0.331  0.00  0.00    -0.187 NA
ENDROOT
BRANCH   1   8
ATOM      6  C2  UNL     1       5.891  -0.271  -0.114  0.00  0.00    +0.162 A 
ATOM      7  C3  UNL     1       4.599   0.249   0.102  0.00  0.00    +0.061 A 
ATOM      8  C4  UNL     1       3.459  -0.496  -0.248  0.00  0.00    +0.026 A 
ATOM      9  C15 UNL     1       3.621  -1.769  -0.817  0.00  0.00    +0.015 A 
ATOM     10  C16 UNL     1       4.899  -2.289  -1.032  0.00  0.00    +0.050 A 
ATOM     11  C17 UNL     1       6.033  -1.545  -0.683  0.00  0.00    +0.158 A 
BRANCH   6  13
ATOM     12  C1  UNL     1       7.059   1.742   0.805  0.00  0.00    +0.277 C 
ATOM     13  O1  UNL     1       7.052   0.443   0.222  0.00  0.00    -0.491 OA
ENDBRANCH   6  13
BRANCH  11  14
ATOM     14  O3  UNL     1       7.308  -2.065  -0.898  0.00  0.00    -0.503 OA
ATOM     15  H18 UNL     1       7.445  -2.982  -1.307  0.00  0.00    +0.292 HD
ENDBRANCH  11  14
ENDBRANCH   1   8
BRANCH   4  16
ATOM     16  C7  UNL     1      -1.413   0.069  -0.063  0.00  0.00    +0.077 A 
ATOM     17  C8  UNL     1      -2.029  -1.064  -0.579  0.00  0.00    +0.021 A 
ATOM     18  C9  UNL     1      -3.427  -0.988  -0.564  0.00  0.00    +0.012 A 
ATOM     19  C10 UNL     1      -3.923   0.206  -0.036  0.00  0.00    -0.004 A 
ATOM     20  S1  UNL     1      -2.600   1.159   0.410  0.00  0.00    -0.088 S 
BRANCH  19  21
ATOM     21  C11 UNL     1      -5.395   0.567   0.106  0.00  0.00    -0.006 C 
ATOM     22  C12 UNL     1      -6.057   0.561  -1.285  0.00  0.00    +0.016 C 
ATOM     23  C13 UNL     1      -6.088  -0.469   1.012  0.00  0.00    +0.016 C 
ATOM     24  C14 UNL     1      -5.568   1.967   0.732  0.00  0.00    +0.016 C 
ENDBRANCH  19  21
ENDBRANCH   4  16
TORSDOF 5
