MODEL 1
REMARK VINA RESULT:    -6.717      0.000      0.000
REMARK INTER + INTRA:          -8.832
REMARK INTER:                  -8.288
REMARK INTRA:                  -0.544
REMARK UNBOUND:                -0.544
REMARK  Name = /home/qwerty/github/datacon2025hack/step_04_hit_selection/docking/ligands/lig_416.pdb
REMARK  5 active torsions:
REMARK  status: ('A' for Active; 'I' for Inactive)
REMARK    1  A    between atoms: C1_1  and  O1_2
REMARK    2  A    between atoms: O1_2  and  C2_3
REMARK    3  A    between atoms: C9_10  and  C10_11
REMARK    4  A    between atoms: N1_13  and  C11_14
REMARK    5  A    between atoms: C13_16  and  C14_17
REMARK                            x       y       z     vdW  Elec       q    Type
REMARK                         _______ _______ _______ _____ _____    ______ ____
ROOT
ATOM      1  C10 UNL     1      17.840  11.326  36.409  0.00  0.00    +0.260 C 
ATOM      2  O2  UNL     1      17.443  10.539  35.506  0.00  0.00    -0.271 OA
ATOM      3  N1  UNL     1      19.055  11.060  37.125  0.00  0.00    -0.251 N 
ATOM      4  H10 UNL     1      19.333  11.707  37.897  0.00  0.00    +0.158 HD
ENDROOT
BRANCH   1  12
ATOM      5  C2  UNL     1      12.436  13.211  35.804  0.00  0.00    +0.121 A 
ATOM      6  C3  UNL     1      13.041  13.863  34.698  0.00  0.00    +0.049 A 
ATOM      7  C4  UNL     1      14.439  13.902  34.572  0.00  0.00    +0.049 A 
ATOM      8  C5  UNL     1      15.207  13.288  35.557  0.00  0.00    +0.125 A 
ATOM      9  C6  UNL     1      14.636  12.659  36.624  0.00  0.00    +0.002 A 
ATOM     10  C7  UNL     1      13.251  12.603  36.777  0.00  0.00    +0.053 A 
ATOM     11  C8  UNL     1      15.692  12.092  37.506  0.00  0.00    +0.093 C 
ATOM     12  C9  UNL     1      17.000  12.516  36.779  0.00  0.00    +0.263 C 
ATOM     13  O4  UNL     1      16.583  13.219  35.607  0.00  0.00    -0.479 OA
BRANCH   5  15
ATOM     14  C1  UNL     1      10.163  14.250  35.778  0.00  0.00    +0.277 C 
ATOM     15  O1  UNL     1      11.044  13.148  35.969  0.00  0.00    -0.495 OA
ENDBRANCH   5  15
ENDBRANCH   1  12
BRANCH   3  16
ATOM     16  C11 UNL     1      19.908   9.946  36.834  0.00  0.00    +0.225 A 
ATOM     17  C12 UNL     1      20.863   9.910  35.844  0.00  0.00    +0.097 A 
ATOM     18  C13 UNL     1      21.403   8.640  35.970  0.00  0.00    +0.115 A 
ATOM     19  N2  UNL     1      20.785   7.990  36.981  0.00  0.00    -0.076 NA
ATOM     20  O3  UNL     1      19.897   8.803  37.474  0.00  0.00    -0.339 OA
BRANCH  18  21
ATOM     21  C14 UNL     1      22.487   8.044  35.151  0.00  0.00    +0.004 A 
ATOM     22  C15 UNL     1      22.874   8.617  33.923  0.00  0.00    +0.013 A 
ATOM     23  C16 UNL     1      23.898   8.040  33.164  0.00  0.00    +0.039 A 
ATOM     24  C17 UNL     1      24.546   6.890  33.619  0.00  0.00    +0.123 A 
ATOM     25  F1  UNL     1      25.539   6.333  32.882  0.00  0.00    -0.205 F 
ATOM     26  C18 UNL     1      24.172   6.313  34.835  0.00  0.00    +0.039 A 
ATOM     27  C19 UNL     1      23.148   6.885  35.598  0.00  0.00    +0.013 A 
ENDBRANCH  18  21
ENDBRANCH   3  16
TORSDOF 4
ENDMDL
MODEL 2
REMARK VINA RESULT:    -6.552     16.596     18.244
REMARK INTER + INTRA:          -8.629
REMARK INTER:                  -8.078
REMARK INTRA:                  -0.551
REMARK UNBOUND:                -0.544
REMARK  Name = /home/qwerty/github/datacon2025hack/step_04_hit_selection/docking/ligands/lig_416.pdb
REMARK  5 active torsions:
REMARK  status: ('A' for Active; 'I' for Inactive)
REMARK    1  A    between atoms: C1_1  and  O1_2
REMARK    2  A    between atoms: O1_2  and  C2_3
REMARK    3  A    between atoms: C9_10  and  C10_11
REMARK    4  A    between atoms: N1_13  and  C11_14
REMARK    5  A    between atoms: C13_16  and  C14_17
REMARK                            x       y       z     vdW  Elec       q    Type
REMARK                         _______ _______ _______ _____ _____    ______ ____
ROOT
ATOM      1  C10 UNL     1      16.911   4.413  20.488  0.00  0.00    +0.260 C 
ATOM      2  O2  UNL     1      18.012   4.421  21.105  0.00  0.00    -0.271 OA
ATOM      3  N1  UNL     1      16.588   5.457  19.558  0.00  0.00    -0.251 N 
ATOM      4  H10 UNL     1      15.650   5.446  19.098  0.00  0.00    +0.158 HD
ENDROOT
BRANCH   1  12
ATOM      5  C2  UNL     1      16.769  -1.066  22.245  0.00  0.00    +0.121 A 
ATOM      6  C3  UNL     1      16.716  -1.264  20.841  0.00  0.00    +0.049 A 
ATOM      7  C4  UNL     1      16.476  -0.182  19.978  0.00  0.00    +0.049 A 
ATOM      8  C5  UNL     1      16.291   1.079  20.536  0.00  0.00    +0.125 A 
ATOM      9  C6  UNL     1      16.340   1.281  21.885  0.00  0.00    +0.002 A 
ATOM     10  C7  UNL     1      16.577   0.228  22.768  0.00  0.00    +0.053 A 
ATOM     11  C8  UNL     1      16.116   2.719  22.192  0.00  0.00    +0.093 C 
ATOM     12  C9  UNL     1      15.904   3.336  20.780  0.00  0.00    +0.263 C 
ATOM     13  O4  UNL     1      16.048   2.254  19.858  0.00  0.00    -0.479 OA
BRANCH   5  15
ATOM     14  C1  UNL     1      17.491  -1.943  24.471  0.00  0.00    +0.277 C 
ATOM     15  O1  UNL     1      17.006  -2.116  23.144  0.00  0.00    -0.495 OA
ENDBRANCH   5  15
ENDBRANCH   1  12
BRANCH   3  16
ATOM     16  C11 UNL     1      17.491   6.520  19.229  0.00  0.00    +0.225 A 
ATOM     17  C12 UNL     1      17.330   7.841  19.581  0.00  0.00    +0.097 A 
ATOM     18  C13 UNL     1      18.448   8.453  19.037  0.00  0.00    +0.115 A 
ATOM     19  N2  UNL     1      19.204   7.525  18.409  0.00  0.00    -0.076 NA
ATOM     20  O3  UNL     1      18.600   6.381  18.545  0.00  0.00    -0.339 OA
BRANCH  18  21
ATOM     21  C14 UNL     1      18.801   9.892  19.105  0.00  0.00    +0.004 A 
ATOM     22  C15 UNL     1      17.859  10.858  19.514  0.00  0.00    +0.013 A 
ATOM     23  C16 UNL     1      18.212  12.210  19.572  0.00  0.00    +0.039 A 
ATOM     24  C17 UNL     1      19.503  12.615  19.225  0.00  0.00    +0.123 A 
ATOM     25  F1  UNL     1      19.841  13.926  19.283  0.00  0.00    -0.205 F 
ATOM     26  C18 UNL     1      20.445  11.668  18.820  0.00  0.00    +0.039 A 
ATOM     27  C19 UNL     1      20.098  10.314  18.759  0.00  0.00    +0.013 A 
ENDBRANCH  18  21
ENDBRANCH   3  16
TORSDOF 4
ENDMDL
MODEL 3
REMARK VINA RESULT:    -6.480      4.836      7.615
REMARK INTER + INTRA:          -8.539
REMARK INTER:                  -7.948
REMARK INTRA:                  -0.591
REMARK UNBOUND:                -0.544
REMARK  Name = /home/qwerty/github/datacon2025hack/step_04_hit_selection/docking/ligands/lig_416.pdb
REMARK  5 active torsions:
REMARK  status: ('A' for Active; 'I' for Inactive)
REMARK    1  A    between atoms: C1_1  and  O1_2
REMARK    2  A    between atoms: O1_2  and  C2_3
REMARK    3  A    between atoms: C9_10  and  C10_11
REMARK    4  A    between atoms: N1_13  and  C11_14
REMARK    5  A    between atoms: C13_16  and  C14_17
REMARK                            x       y       z     vdW  Elec       q    Type
REMARK                         _______ _______ _______ _____ _____    ______ ____
ROOT
ATOM      1  C10 UNL     1      23.019   6.221  34.947  0.00  0.00    +0.260 C 
ATOM      2  O2  UNL     1      24.126   5.914  34.426  0.00  0.00    -0.271 OA
ATOM      3  N1  UNL     1      21.812   5.568  34.529  0.00  0.00    -0.251 N 
ATOM      4  H10 UNL     1      20.905   5.876  34.947  0.00  0.00    +0.158 HD
ENDROOT
BRANCH   1  12
ATOM      5  C2  UNL     1      19.118   9.620  37.467  0.00  0.00    +0.121 A 
ATOM      6  C3  UNL     1      19.544  10.481  36.422  0.00  0.00    +0.049 A 
ATOM      7  C4  UNL     1      20.691  10.174  35.671  0.00  0.00    +0.049 A 
ATOM      8  C5  UNL     1      21.390   9.011  35.980  0.00  0.00    +0.125 A 
ATOM      9  C6  UNL     1      20.989   8.177  36.982  0.00  0.00    +0.002 A 
ATOM     10  C7  UNL     1      19.854   8.453  37.745  0.00  0.00    +0.053 A 
ATOM     11  C8  UNL     1      21.915   7.017  37.081  0.00  0.00    +0.093 C 
ATOM     12  C9  UNL     1      22.957   7.323  35.966  0.00  0.00    +0.263 C 
ATOM     13  O4  UNL     1      22.528   8.544  35.359  0.00  0.00    -0.479 OA
BRANCH   5  15
ATOM     14  C1  UNL     1      16.664   9.453  37.912  0.00  0.00    +0.277 C 
ATOM     15  O1  UNL     1      17.979   9.887  38.242  0.00  0.00    -0.495 OA
ENDBRANCH   5  15
ENDBRANCH   1  12
BRANCH   3  16
ATOM     16  C11 UNL     1      21.786   4.512  33.561  0.00  0.00    +0.225 A 
ATOM     17  C12 UNL     1      21.822   4.679  32.195  0.00  0.00    +0.097 A 
ATOM     18  C13 UNL     1      21.776   3.381  31.714  0.00  0.00    +0.115 A 
ATOM     19  N2  UNL     1      21.718   2.521  32.755  0.00  0.00    -0.076 NA
ATOM     20  O3  UNL     1      21.725   3.233  33.843  0.00  0.00    -0.339 OA
BRANCH  18  21
ATOM     21  C14 UNL     1      21.786   2.953  30.294  0.00  0.00    +0.004 A 
ATOM     22  C15 UNL     1      22.199   1.658  29.923  0.00  0.00    +0.013 A 
ATOM     23  C16 UNL     1      22.201   1.274  28.578  0.00  0.00    +0.039 A 
ATOM     24  C17 UNL     1      21.794   2.173  27.590  0.00  0.00    +0.123 A 
ATOM     25  F1  UNL     1      21.798   1.797  26.288  0.00  0.00    -0.205 F 
ATOM     26  C18 UNL     1      21.383   3.459  27.945  0.00  0.00    +0.039 A 
ATOM     27  C19 UNL     1      21.378   3.849  29.288  0.00  0.00    +0.013 A 
ENDBRANCH  18  21
ENDBRANCH   3  16
TORSDOF 4
ENDMDL
MODEL 4
REMARK VINA RESULT:    -6.430     15.960     16.736
REMARK INTER + INTRA:          -8.478
REMARK INTER:                  -7.924
REMARK INTRA:                  -0.554
REMARK UNBOUND:                -0.544
REMARK  Name = /home/qwerty/github/datacon2025hack/step_04_hit_selection/docking/ligands/lig_416.pdb
REMARK  5 active torsions:
REMARK  status: ('A' for Active; 'I' for Inactive)
REMARK    1  A    between atoms: C1_1  and  O1_2
REMARK    2  A    between atoms: O1_2  and  C2_3
REMARK    3  A    between atoms: C9_10  and  C10_11
REMARK    4  A    between atoms: N1_13  and  C11_14
REMARK    5  A    between atoms: C13_16  and  C14_17
REMARK                            x       y       z     vdW  Elec       q    Type
REMARK                         _______ _______ _______ _____ _____    ______ ____
ROOT
ATOM      1  C10 UNL     1      11.572   3.253  21.693  0.00  0.00    +0.260 C 
ATOM      2  O2  UNL     1      12.188   3.912  22.574  0.00  0.00    -0.271 OA
ATOM      3  N1  UNL     1      11.682   1.823  21.642  0.00  0.00    -0.251 N 
ATOM      4  H10 UNL     1      11.195   1.310  20.872  0.00  0.00    +0.158 HD
ENDROOT
BRANCH   1  12
ATOM      5  C2  UNL     1       9.191   8.421  20.830  0.00  0.00    +0.121 A 
ATOM      6  C3  UNL     1       8.067   7.725  21.347  0.00  0.00    +0.049 A 
ATOM      7  C4  UNL     1       8.097   6.327  21.481  0.00  0.00    +0.049 A 
ATOM      8  C5  UNL     1       9.249   5.651  21.092  0.00  0.00    +0.125 A 
ATOM      9  C6  UNL     1      10.334   6.310  20.593  0.00  0.00    +0.002 A 
ATOM     10  C7  UNL     1      10.337   7.698  20.449  0.00  0.00    +0.053 A 
ATOM     11  C8  UNL     1      11.415   5.340  20.270  0.00  0.00    +0.093 C 
ATOM     12  C9  UNL     1      10.768   3.977  20.650  0.00  0.00    +0.263 C 
ATOM     13  O4  UNL     1       9.466   4.291  21.148  0.00  0.00    -0.479 OA
BRANCH   5  15
ATOM     14  C1  UNL     1       8.290  10.701  21.316  0.00  0.00    +0.277 C 
ATOM     15  O1  UNL     1       9.206   9.816  20.680  0.00  0.00    -0.495 OA
ENDBRANCH   5  15
ENDBRANCH   1  12
BRANCH   3  16
ATOM     16  C11 UNL     1      12.430   1.060  22.596  0.00  0.00    +0.225 A 
ATOM     17  C12 UNL     1      13.725   0.623  22.429  0.00  0.00    +0.097 A 
ATOM     18  C13 UNL     1      13.986  -0.055  23.609  0.00  0.00    +0.115 A 
ATOM     19  N2  UNL     1      12.895  -0.003  24.404  0.00  0.00    -0.076 NA
ATOM     20  O3  UNL     1      11.984   0.671  23.765  0.00  0.00    -0.339 OA
BRANCH  18  21
ATOM     21  C14 UNL     1      15.245  -0.743  23.984  0.00  0.00    +0.004 A 
ATOM     22  C15 UNL     1      15.949  -1.537  23.057  0.00  0.00    +0.013 A 
ATOM     23  C16 UNL     1      17.136  -2.177  23.431  0.00  0.00    +0.039 A 
ATOM     24  C17 UNL     1      17.632  -2.034  24.728  0.00  0.00    +0.123 A 
ATOM     25  F1  UNL     1      18.782  -2.656  25.087  0.00  0.00    -0.205 F 
ATOM     26  C18 UNL     1      16.944  -1.250  25.656  0.00  0.00    +0.039 A 
ATOM     27  C19 UNL     1      15.758  -0.607  25.288  0.00  0.00    +0.013 A 
ENDBRANCH  18  21
ENDBRANCH   3  16
TORSDOF 4
ENDMDL
MODEL 5
REMARK VINA RESULT:    -6.399      9.139     11.358
REMARK INTER + INTRA:          -8.440
REMARK INTER:                  -7.921
REMARK INTRA:                  -0.518
REMARK UNBOUND:                -0.544
REMARK  Name = /home/qwerty/github/datacon2025hack/step_04_hit_selection/docking/ligands/lig_416.pdb
REMARK  5 active torsions:
REMARK  status: ('A' for Active; 'I' for Inactive)
REMARK    1  A    between atoms: C1_1  and  O1_2
REMARK    2  A    between atoms: O1_2  and  C2_3
REMARK    3  A    between atoms: C9_10  and  C10_11
REMARK    4  A    between atoms: N1_13  and  C11_14
REMARK    5  A    between atoms: C13_16  and  C14_17
REMARK                            x       y       z     vdW  Elec       q    Type
REMARK                         _______ _______ _______ _____ _____    ______ ____
ROOT
ATOM      1  C10 UNL     1      10.408  13.023  27.751  0.00  0.00    +0.260 C 
ATOM      2  O2  UNL     1      11.146  12.277  27.051  0.00  0.00    -0.271 OA
ATOM      3  N1  UNL     1      10.953  14.175  28.410  0.00  0.00    -0.251 N 
ATOM      4  H10 UNL     1      10.325  14.747  29.019  0.00  0.00    +0.158 HD
ENDROOT
BRANCH   1  12
ATOM      5  C2  UNL     1       7.214   8.541  29.436  0.00  0.00    +0.121 A 
ATOM      6  C3  UNL     1       7.169   8.351  28.030  0.00  0.00    +0.049 A 
ATOM      7  C4  UNL     1       7.613   9.361  27.161  0.00  0.00    +0.049 A 
ATOM      8  C5  UNL     1       8.093  10.544  27.715  0.00  0.00    +0.125 A 
ATOM      9  C6  UNL     1       8.142  10.737  29.064  0.00  0.00    +0.002 A 
ATOM     10  C7  UNL     1       7.709   9.753  29.953  0.00  0.00    +0.053 A 
ATOM     11  C8  UNL     1       8.703  12.081  29.367  0.00  0.00    +0.093 C 
ATOM     12  C9  UNL     1       8.962  12.664  27.948  0.00  0.00    +0.263 C 
ATOM     13  O4  UNL     1       8.570  11.641  27.030  0.00  0.00    -0.479 OA
BRANCH   5  15
ATOM     14  C1  UNL     1       6.811   6.161  30.081  0.00  0.00    +0.277 C 
ATOM     15  O1  UNL     1       6.782   7.560  30.341  0.00  0.00    -0.495 OA
ENDBRANCH   5  15
ENDBRANCH   1  12
BRANCH   3  16
ATOM     16  C11 UNL     1      12.320  14.581  28.276  0.00  0.00    +0.225 A 
ATOM     17  C12 UNL     1      13.244  14.622  29.295  0.00  0.00    +0.097 A 
ATOM     18  C13 UNL     1      14.393  15.073  28.665  0.00  0.00    +0.115 A 
ATOM     19  N2  UNL     1      14.133  15.277  27.355  0.00  0.00    -0.076 NA
ATOM     20  O3  UNL     1      12.883  14.973  27.159  0.00  0.00    -0.339 OA
BRANCH  18  21
ATOM     21  C14 UNL     1      15.719  15.310  29.287  0.00  0.00    +0.004 A 
ATOM     22  C15 UNL     1      16.348  14.319  30.067  0.00  0.00    +0.013 A 
ATOM     23  C16 UNL     1      17.599  14.562  30.644  0.00  0.00    +0.039 A 
ATOM     24  C17 UNL     1      18.235  15.790  30.452  0.00  0.00    +0.123 A 
ATOM     25  F1  UNL     1      19.447  16.022  31.013  0.00  0.00    -0.205 F 
ATOM     26  C18 UNL     1      17.622  16.780  29.681  0.00  0.00    +0.039 A 
ATOM     27  C19 UNL     1      16.371  16.543  29.101  0.00  0.00    +0.013 A 
ENDBRANCH  18  21
ENDBRANCH   3  16
TORSDOF 4
ENDMDL
MODEL 6
REMARK VINA RESULT:    -6.326     16.644     19.510
REMARK INTER + INTRA:          -8.349
REMARK INTER:                  -7.845
REMARK INTRA:                  -0.504
REMARK UNBOUND:                -0.544
REMARK  Name = /home/qwerty/github/datacon2025hack/step_04_hit_selection/docking/ligands/lig_416.pdb
REMARK  5 active torsions:
REMARK  status: ('A' for Active; 'I' for Inactive)
REMARK    1  A    between atoms: C1_1  and  O1_2
REMARK    2  A    between atoms: O1_2  and  C2_3
REMARK    3  A    between atoms: C9_10  and  C10_11
REMARK    4  A    between atoms: N1_13  and  C11_14
REMARK    5  A    between atoms: C13_16  and  C14_17
REMARK                            x       y       z     vdW  Elec       q    Type
REMARK                         _______ _______ _______ _____ _____    ______ ____
ROOT
ATOM      1  C10 UNL     1      12.807   2.908  21.239  0.00  0.00    +0.260 C 
ATOM      2  O2  UNL     1      13.339   3.442  22.250  0.00  0.00    -0.271 OA
ATOM      3  N1  UNL     1      11.990   3.682  20.350  0.00  0.00    -0.251 N 
ATOM      4  H10 UNL     1      11.526   3.200  19.547  0.00  0.00    +0.158 HD
ENDROOT
BRANCH   1  12
ATOM      5  C2  UNL     1      16.484  -1.323  22.544  0.00  0.00    +0.121 A 
ATOM      6  C3  UNL     1      16.980  -0.963  21.264  0.00  0.00    +0.049 A 
ATOM      7  C4  UNL     1      16.237  -0.117  20.425  0.00  0.00    +0.049 A 
ATOM      8  C5  UNL     1      15.008   0.352  20.882  0.00  0.00    +0.125 A 
ATOM      9  C6  UNL     1      14.522   0.012  22.110  0.00  0.00    +0.002 A 
ATOM     10  C7  UNL     1      15.237  -0.826  22.967  0.00  0.00    +0.053 A 
ATOM     11  C8  UNL     1      13.201   0.659  22.332  0.00  0.00    +0.093 C 
ATOM     12  C9  UNL     1      12.979   1.434  21.001  0.00  0.00    +0.263 C 
ATOM     13  O4  UNL     1      14.142   1.186  20.209  0.00  0.00    -0.479 OA
BRANCH   5  15
ATOM     14  C1  UNL     1      16.802  -2.445  24.755  0.00  0.00    +0.277 C 
ATOM     15  O1  UNL     1      17.192  -2.165  23.415  0.00  0.00    -0.495 OA
ENDBRANCH   5  15
ENDBRANCH   1  12
BRANCH   3  16
ATOM     16  C11 UNL     1      11.774   5.090  20.510  0.00  0.00    +0.225 A 
ATOM     17  C12 UNL     1      10.555   5.691  20.727  0.00  0.00    +0.097 A 
ATOM     18  C13 UNL     1      10.874   7.036  20.810  0.00  0.00    +0.115 A 
ATOM     19  N2  UNL     1      12.207   7.190  20.649  0.00  0.00    -0.076 NA
ATOM     20  O3  UNL     1      12.712   6.004  20.472  0.00  0.00    -0.339 OA
BRANCH  18  21
ATOM     21  C14 UNL     1       9.938   8.165  21.037  0.00  0.00    +0.004 A 
ATOM     22  C15 UNL     1       8.827   8.031  21.893  0.00  0.00    +0.013 A 
ATOM     23  C16 UNL     1       7.956   9.107  22.095  0.00  0.00    +0.039 A 
ATOM     24  C17 UNL     1       8.181  10.324  21.448  0.00  0.00    +0.123 A 
ATOM     25  F1  UNL     1       7.336  11.365  21.647  0.00  0.00    -0.205 F 
ATOM     26  C18 UNL     1       9.279  10.469  20.598  0.00  0.00    +0.039 A 
ATOM     27  C19 UNL     1      10.154   9.397  20.393  0.00  0.00    +0.013 A 
ENDBRANCH  18  21
ENDBRANCH   3  16
TORSDOF 4
ENDMDL
MODEL 7
REMARK VINA RESULT:    -6.318     16.251     17.081
REMARK INTER + INTRA:          -8.339
REMARK INTER:                  -7.836
REMARK INTRA:                  -0.503
REMARK UNBOUND:                -0.544
REMARK  Name = /home/qwerty/github/datacon2025hack/step_04_hit_selection/docking/ligands/lig_416.pdb
REMARK  5 active torsions:
REMARK  status: ('A' for Active; 'I' for Inactive)
REMARK    1  A    between atoms: C1_1  and  O1_2
REMARK    2  A    between atoms: O1_2  and  C2_3
REMARK    3  A    between atoms: C9_10  and  C10_11
REMARK    4  A    between atoms: N1_13  and  C11_14
REMARK    5  A    between atoms: C13_16  and  C14_17
REMARK                            x       y       z     vdW  Elec       q    Type
REMARK                         _______ _______ _______ _____ _____    ______ ____
ROOT
ATOM      1  C10 UNL     1      10.348   2.833  21.840  0.00  0.00    +0.260 C 
ATOM      2  O2  UNL     1      10.039   1.629  22.055  0.00  0.00    -0.271 OA
ATOM      3  N1  UNL     1      11.703   3.195  21.536  0.00  0.00    -0.251 N 
ATOM      4  H10 UNL     1      11.935   4.206  21.408  0.00  0.00    +0.158 HD
ENDROOT
BRANCH   1  12
ATOM      5  C2  UNL     1       9.793   8.511  21.078  0.00  0.00    +0.121 A 
ATOM      6  C3  UNL     1      10.067   8.483  22.470  0.00  0.00    +0.049 A 
ATOM      7  C4  UNL     1      10.036   7.270  23.177  0.00  0.00    +0.049 A 
ATOM      8  C5  UNL     1       9.728   6.106  22.478  0.00  0.00    +0.125 A 
ATOM      9  C6  UNL     1       9.463   6.122  21.140  0.00  0.00    +0.002 A 
ATOM     10  C7  UNL     1       9.487   7.310  20.410  0.00  0.00    +0.053 A 
ATOM     11  C8  UNL     1       9.177   4.743  20.662  0.00  0.00    +0.093 C 
ATOM     12  C9  UNL     1       9.300   3.903  21.966  0.00  0.00    +0.263 C 
ATOM     13  O4  UNL     1       9.651   4.831  22.994  0.00  0.00    -0.479 OA
BRANCH   5  15
ATOM     14  C1  UNL     1      10.907  10.120  19.524  0.00  0.00    +0.277 C 
ATOM     15  O1  UNL     1       9.813   9.699  20.332  0.00  0.00    -0.495 OA
ENDBRANCH   5  15
ENDBRANCH   1  12
BRANCH   3  16
ATOM     16  C11 UNL     1      12.759   2.237  21.403  0.00  0.00    +0.225 A 
ATOM     17  C12 UNL     1      13.289   1.485  22.427  0.00  0.00    +0.097 A 
ATOM     18  C13 UNL     1      14.263   0.728  21.795  0.00  0.00    +0.115 A 
ATOM     19  N2  UNL     1      14.283   1.035  20.479  0.00  0.00    -0.076 NA
ATOM     20  O3  UNL     1      13.370   1.941  20.282  0.00  0.00    -0.339 OA
BRANCH  18  21
ATOM     21  C14 UNL     1      15.163  -0.271  22.420  0.00  0.00    +0.004 A 
ATOM     22  C15 UNL     1      16.389  -0.626  21.822  0.00  0.00    +0.013 A 
ATOM     23  C16 UNL     1      17.225  -1.570  22.427  0.00  0.00    +0.039 A 
ATOM     24  C17 UNL     1      16.850  -2.170  23.631  0.00  0.00    +0.123 A 
ATOM     25  F1  UNL     1      17.662  -3.085  24.215  0.00  0.00    -0.205 F 
ATOM     26  C18 UNL     1      15.638  -1.827  24.234  0.00  0.00    +0.039 A 
ATOM     27  C19 UNL     1      14.798  -0.883  23.634  0.00  0.00    +0.013 A 
ENDBRANCH  18  21
ENDBRANCH   3  16
TORSDOF 4
ENDMDL
MODEL 8
REMARK VINA RESULT:    -6.302     11.738     14.128
REMARK INTER + INTRA:          -8.320
REMARK INTER:                  -7.796
REMARK INTRA:                  -0.524
REMARK UNBOUND:                -0.544
REMARK  Name = /home/qwerty/github/datacon2025hack/step_04_hit_selection/docking/ligands/lig_416.pdb
REMARK  5 active torsions:
REMARK  status: ('A' for Active; 'I' for Inactive)
REMARK    1  A    between atoms: C1_1  and  O1_2
REMARK    2  A    between atoms: O1_2  and  C2_3
REMARK    3  A    between atoms: C9_10  and  C10_11
REMARK    4  A    between atoms: N1_13  and  C11_14
REMARK    5  A    between atoms: C13_16  and  C14_17
REMARK                            x       y       z     vdW  Elec       q    Type
REMARK                         _______ _______ _______ _____ _____    ______ ____
ROOT
ATOM      1  C10 UNL     1       7.973   9.645  28.682  0.00  0.00    +0.260 C 
ATOM      2  O2  UNL     1       8.697   8.951  29.447  0.00  0.00    -0.271 OA
ATOM      3  N1  UNL     1       7.314   9.045  27.559  0.00  0.00    -0.251 N 
ATOM      4  H10 UNL     1       6.757   9.655  26.919  0.00  0.00    +0.158 HD
ENDROOT
BRANCH   1  12
ATOM      5  C2  UNL     1      11.231  14.382  28.424  0.00  0.00    +0.121 A 
ATOM      6  C3  UNL     1      11.360  14.080  29.805  0.00  0.00    +0.049 A 
ATOM      7  C4  UNL     1      10.524  13.123  30.404  0.00  0.00    +0.049 A 
ATOM      8  C5  UNL     1       9.573  12.488  29.611  0.00  0.00    +0.125 A 
ATOM      9  C6  UNL     1       9.441  12.771  28.283  0.00  0.00    +0.002 A 
ATOM     10  C7  UNL     1      10.257  13.715  27.659  0.00  0.00    +0.053 A 
ATOM     11  C8  UNL     1       8.358  11.942  27.691  0.00  0.00    +0.093 C 
ATOM     12  C9  UNL     1       7.852  11.125  28.915  0.00  0.00    +0.263 C 
ATOM     13  O4  UNL     1       8.671  11.528  30.015  0.00  0.00    -0.479 OA
BRANCH   5  15
ATOM     14  C1  UNL     1      12.860  15.052  26.651  0.00  0.00    +0.277 C 
ATOM     15  O1  UNL     1      12.044  15.330  27.784  0.00  0.00    -0.495 OA
ENDBRANCH   5  15
ENDBRANCH   1  12
BRANCH   3  16
ATOM     16  C11 UNL     1       7.382   7.644  27.267  0.00  0.00    +0.225 A 
ATOM     17  C12 UNL     1       7.951   7.089  26.143  0.00  0.00    +0.097 A 
ATOM     18  C13 UNL     1       7.764   5.729  26.330  0.00  0.00    +0.115 A 
ATOM     19  N2  UNL     1       7.122   5.523  27.501  0.00  0.00    -0.076 NA
ATOM     20  O3  UNL     1       6.910   6.691  28.034  0.00  0.00    -0.339 OA
BRANCH  18  21
ATOM     21  C14 UNL     1       8.183   4.636  25.419  0.00  0.00    +0.004 A 
ATOM     22  C15 UNL     1       7.862   4.664  24.047  0.00  0.00    +0.013 A 
ATOM     23  C16 UNL     1       8.267   3.623  23.204  0.00  0.00    +0.039 A 
ATOM     24  C17 UNL     1       8.993   2.546  23.717  0.00  0.00    +0.123 A 
ATOM     25  F1  UNL     1       9.384   1.540  22.897  0.00  0.00    -0.205 F 
ATOM     26  C18 UNL     1       9.317   2.507  25.074  0.00  0.00    +0.039 A 
ATOM     27  C19 UNL     1       8.915   3.545  25.922  0.00  0.00    +0.013 A 
ENDBRANCH  18  21
ENDBRANCH   3  16
TORSDOF 4
ENDMDL
MODEL 9
REMARK VINA RESULT:    -6.198     12.068     15.297
REMARK INTER + INTRA:          -8.191
REMARK INTER:                  -7.732
REMARK INTRA:                  -0.459
REMARK UNBOUND:                -0.544
REMARK  Name = /home/qwerty/github/datacon2025hack/step_04_hit_selection/docking/ligands/lig_416.pdb
REMARK  5 active torsions:
REMARK  status: ('A' for Active; 'I' for Inactive)
REMARK    1  A    between atoms: C1_1  and  O1_2
REMARK    2  A    between atoms: O1_2  and  C2_3
REMARK    3  A    between atoms: C9_10  and  C10_11
REMARK    4  A    between atoms: N1_13  and  C11_14
REMARK    5  A    between atoms: C13_16  and  C14_17
REMARK                            x       y       z     vdW  Elec       q    Type
REMARK                         _______ _______ _______ _____ _____    ______ ____
ROOT
ATOM      1  C10 UNL     1      21.113   3.019  25.858  0.00  0.00    +0.260 C 
ATOM      2  O2  UNL     1      20.094   3.659  26.237  0.00  0.00    -0.271 OA
ATOM      3  N1  UNL     1      21.421   2.900  24.462  0.00  0.00    -0.251 N 
ATOM      4  H10 UNL     1      22.247   2.326  24.178  0.00  0.00    +0.158 HD
ENDROOT
BRANCH   1  12
ATOM      5  C2  UNL     1      20.728   0.936  31.210  0.00  0.00    +0.121 A 
ATOM      6  C3  UNL     1      21.267   2.218  31.491  0.00  0.00    +0.049 A 
ATOM      7  C4  UNL     1      21.773   3.020  30.455  0.00  0.00    +0.049 A 
ATOM      8  C5  UNL     1      21.732   2.524  29.156  0.00  0.00    +0.125 A 
ATOM      9  C6  UNL     1      21.217   1.293  28.874  0.00  0.00    +0.002 A 
ATOM     10  C7  UNL     1      20.706   0.473  29.880  0.00  0.00    +0.053 A 
ATOM     11  C8  UNL     1      21.297   1.030  27.412  0.00  0.00    +0.093 C 
ATOM     12  C9  UNL     1      21.974   2.323  26.875  0.00  0.00    +0.263 C 
ATOM     13  O4  UNL     1      22.176   3.159  28.016  0.00  0.00    -0.479 OA
BRANCH   5  15
ATOM     14  C1  UNL     1      18.824  -0.069  32.478  0.00  0.00    +0.277 C 
ATOM     15  O1  UNL     1      20.212   0.102  32.212  0.00  0.00    -0.495 OA
ENDBRANCH   5  15
ENDBRANCH   1  12
BRANCH   3  16
ATOM     16  C11 UNL     1      20.649   3.529  23.433  0.00  0.00    +0.225 A 
ATOM     17  C12 UNL     1      19.359   3.196  23.085  0.00  0.00    +0.097 A 
ATOM     18  C13 UNL     1      19.068   4.078  22.058  0.00  0.00    +0.115 A 
ATOM     19  N2  UNL     1      20.139   4.872  21.834  0.00  0.00    -0.076 NA
ATOM     20  O3  UNL     1      21.065   4.515  22.675  0.00  0.00    -0.339 OA
BRANCH  18  21
ATOM     21  C14 UNL     1      17.800   4.174  21.294  0.00  0.00    +0.004 A 
ATOM     22  C15 UNL     1      17.410   5.377  20.672  0.00  0.00    +0.013 A 
ATOM     23  C16 UNL     1      16.210   5.447  19.956  0.00  0.00    +0.039 A 
ATOM     24  C17 UNL     1      15.388   4.324  19.853  0.00  0.00    +0.123 A 
ATOM     25  F1  UNL     1      14.225   4.395  19.158  0.00  0.00    -0.205 F 
ATOM     26  C18 UNL     1      15.762   3.126  20.465  0.00  0.00    +0.039 A 
ATOM     27  C19 UNL     1      16.961   3.050  21.182  0.00  0.00    +0.013 A 
ENDBRANCH  18  21
ENDBRANCH   3  16
TORSDOF 4
ENDMDL
