REMARK  Name = /home/qwerty/github/datacon2025hack/step_04_hit_selection/docking/ligands/lig_368.pdb
REMARK  6 active torsions:
REMARK  status: ('A' for Active; 'I' for Inactive)
REMARK    1  A    between atoms: C1_1  and  C2_2
REMARK    2  A    between atoms: C2_2  and  C3_3
REMARK    3  A    between atoms: C2_2  and  C4_4
REMARK    4  A    between atoms: C6_6  and  C7_7
REMARK    5  A    between atoms: N1_9  and  C8_10
REMARK    6  A    between atoms: C16_20  and  C17_21
REMARK                            x       y       z     vdW  Elec       q    Type
REMARK                         _______ _______ _______ _____ _____    ______ ____
ROOT
ATOM      1  C8  UNL     1      -0.208   0.396   0.866  0.00  0.00    +0.055 A 
ATOM      2  C9  UNL     1      -0.460   1.704   1.307  0.00  0.00    +0.025 A 
ATOM      3  C10 UNL     1      -1.760   2.124   1.571  0.00  0.00    +0.002 A 
ATOM      4  C11 UNL     1      -2.830   1.251   1.388  0.00  0.00    +0.006 A 
ATOM      5  C12 UNL     1      -2.619  -0.052   0.895  0.00  0.00    -0.017 A 
ATOM      6  C13 UNL     1      -1.290  -0.495   0.671  0.00  0.00    +0.059 A 
ATOM      7  N2  UNL     1      -1.057  -1.849   0.239  0.00  0.00    -0.284 N 
ATOM      8  C14 UNL     1      -2.143  -2.696  -0.139  0.00  0.00    +0.218 C 
ATOM      9  O2  UNL     1      -1.933  -3.909  -0.409  0.00  0.00    -0.275 OA
ATOM     10  C15 UNL     1      -3.510  -2.118  -0.300  0.00  0.00    +0.109 C 
ATOM     11  C16 UNL     1      -3.780  -1.037   0.765  0.00  0.00    +0.060 C 
ATOM     12  H13 UNL     1      -0.091  -2.239   0.176  0.00  0.00    +0.155 HD
ENDROOT
BRANCH  11  13
ATOM     13  C17 UNL     1      -5.107  -0.362   0.458  0.00  0.00    -0.039 A 
ATOM     14  C18 UNL     1      -6.222  -0.583   1.287  0.00  0.00    +0.007 A 
ATOM     15  C19 UNL     1      -7.447   0.027   1.002  0.00  0.00    +0.038 A 
ATOM     16  C20 UNL     1      -7.575   0.859  -0.113  0.00  0.00    +0.123 A 
ATOM     17  F1  UNL     1      -8.764   1.449  -0.387  0.00  0.00    -0.205 F 
ATOM     18  C21 UNL     1      -6.477   1.081  -0.948  0.00  0.00    +0.038 A 
ATOM     19  C22 UNL     1      -5.249   0.473  -0.668  0.00  0.00    +0.007 A 
ENDBRANCH  11  13
BRANCH   1  22
ATOM     20  C7  UNL     1       2.104   0.723  -0.086  0.00  0.00    +0.270 C 
ATOM     21  O1  UNL     1       1.734   1.733  -0.746  0.00  0.00    -0.268 OA
ATOM     22  N1  UNL     1       1.149  -0.035   0.672  0.00  0.00    -0.279 N 
ATOM     23  H9  UNL     1       1.452  -0.935   1.106  0.00  0.00    +0.155 HD
BRANCH  20  26
ATOM     24  C4  UNL     1       5.642   0.191  -0.526  0.00  0.00    +0.141 A 
ATOM     25  C5  UNL     1       4.528   0.947  -0.821  0.00  0.00    +0.081 A 
ATOM     26  C6  UNL     1       3.518   0.317  -0.121  0.00  0.00    +0.168 A 
ATOM     27  N3  UNL     1       4.019  -0.743   0.543  0.00  0.00    -0.073 NA
ATOM     28  O3  UNL     1       5.292  -0.788   0.277  0.00  0.00    -0.359 OA
BRANCH  24  30
ATOM     29  C1  UNL     1       7.516  -0.772  -1.848  0.00  0.00    +0.015 C 
ATOM     30  C2  UNL     1       7.038   0.428  -1.028  0.00  0.00    +0.052 C 
ATOM     31  C3  UNL     1       7.983   0.700   0.146  0.00  0.00    +0.015 C 
ENDBRANCH  24  30
ENDBRANCH  20  26
ENDBRANCH   1  22
TORSDOF 4
