MODEL 1
REMARK VINA RESULT:    -6.353      0.000      0.000
REMARK INTER + INTRA:          -8.036
REMARK INTER:                  -7.282
REMARK INTRA:                  -0.755
REMARK UNBOUND:                -0.755
REMARK  Name = /home/qwerty/github/datacon2025hack/step_04_hit_selection/docking/ligands/lig_602.pdb
REMARK  5 active torsions:
REMARK  status: ('A' for Active; 'I' for Inactive)
REMARK    1  A    between atoms: C1_1  and  C2_2
REMARK    2  A    between atoms: C4_4  and  N1_5
REMARK    3  A    between atoms: C7_8  and  N2_9
REMARK    4  A    between atoms: C11_15  and  O2_16
REMARK    5  A    between atoms: N4_24  and  C18_25
REMARK                            x       y       z     vdW  Elec       q    Type
REMARK                         _______ _______ _______ _____ _____    ______ ____
ROOT
ATOM      1  N2  UNL     1      16.956  12.118  34.897  0.00  0.00    -0.288 N 
ATOM      2  C8  UNL     1      15.896  12.619  34.069  0.00  0.00    +0.303 C 
ATOM      3  O1  UNL     1      16.030  12.629  32.815  0.00  0.00    -0.253 OA
ATOM      4  N3  UNL     1      14.661  13.079  34.650  0.00  0.00    -0.280 N 
ATOM      5  C9  UNL     1      13.417  12.439  34.206  0.00  0.00    +0.112 C 
ATOM      6  C10 UNL     1      12.948  11.447  35.278  0.00  0.00    +0.050 C 
ATOM      7  C11 UNL     1      12.793  12.143  36.647  0.00  0.00    +0.118 C 
ATOM      8  C12 UNL     1      14.096  12.851  37.063  0.00  0.00    +0.057 C 
ATOM      9  C13 UNL     1      14.597  13.792  35.944  0.00  0.00    +0.041 C 
ATOM     10  C14 UNL     1      15.842  14.617  36.316  0.00  0.00    +0.026 C 
ATOM     11  C15 UNL     1      15.020  15.896  36.251  0.00  0.00    +0.004 C 
ATOM     12  C16 UNL     1      13.791  15.099  35.843  0.00  0.00    +0.026 C 
ATOM     13  H10 UNL     1      16.772  11.975  35.915  0.00  0.00    +0.151 HD
ENDROOT
BRANCH   1  17
ATOM     14  N1  UNL     1      19.741  10.473  35.759  0.00  0.00    -0.255 N 
ATOM     15  C5  UNL     1      20.101  11.860  36.007  0.00  0.00    +0.117 C 
ATOM     16  C6  UNL     1      19.367  12.686  34.936  0.00  0.00    +0.051 C 
ATOM     17  C7  UNL     1      18.273  11.777  34.349  0.00  0.00    +0.162 C 
ATOM     18  C17 UNL     1      18.693  10.433  34.806  0.00  0.00    +0.241 C 
ATOM     19  O3  UNL     1      18.145   9.364  34.422  0.00  0.00    -0.273 OA
BRANCH  14  23
ATOM     20  C1  UNL     1      23.215   6.946  36.372  0.00  0.00    +0.067 C 
ATOM     21  C2  UNL     1      22.007   7.809  36.522  0.00  0.00    +0.062 A 
ATOM     22  C3  UNL     1      21.708   8.918  35.753  0.00  0.00    +0.068 A 
ATOM     23  C4  UNL     1      20.479   9.329  36.229  0.00  0.00    +0.126 A 
ATOM     24  N4  UNL     1      20.081   8.487  37.210  0.00  0.00    -0.253 N 
ATOM     25  C18 UNL     1      18.826   8.512  37.952  0.00  0.00    +0.174 C 
ATOM     26  N5  UNL     1      21.004   7.555  37.386  0.00  0.00    -0.175 NA
ENDBRANCH  14  23
ENDBRANCH   1  17
BRANCH   7  27
ATOM     27  O2  UNL     1      12.455  11.196  37.626  0.00  0.00    -0.392 OA
ATOM     28  H16 UNL     1      12.681  11.600  38.504  0.00  0.00    +0.210 HD
ENDBRANCH   7  27
TORSDOF 3
ENDMDL
MODEL 2
REMARK VINA RESULT:    -6.252     10.364     13.689
REMARK INTER + INTRA:          -7.921
REMARK INTER:                  -7.276
REMARK INTRA:                  -0.645
REMARK UNBOUND:                -0.755
REMARK  Name = /home/qwerty/github/datacon2025hack/step_04_hit_selection/docking/ligands/lig_602.pdb
REMARK  5 active torsions:
REMARK  status: ('A' for Active; 'I' for Inactive)
REMARK    1  A    between atoms: C1_1  and  C2_2
REMARK    2  A    between atoms: C4_4  and  N1_5
REMARK    3  A    between atoms: C7_8  and  N2_9
REMARK    4  A    between atoms: C11_15  and  O2_16
REMARK    5  A    between atoms: N4_24  and  C18_25
REMARK                            x       y       z     vdW  Elec       q    Type
REMARK                         _______ _______ _______ _____ _____    ______ ____
ROOT
ATOM      1  N2  UNL     1       9.773  10.697  26.900  0.00  0.00    -0.288 N 
ATOM      2  C8  UNL     1      10.244  10.732  28.256  0.00  0.00    +0.303 C 
ATOM      3  O1  UNL     1      10.537   9.657  28.846  0.00  0.00    -0.253 OA
ATOM      4  N3  UNL     1      10.424  11.986  28.943  0.00  0.00    -0.280 N 
ATOM      5  C9  UNL     1      11.757  12.286  29.479  0.00  0.00    +0.112 C 
ATOM      6  C10 UNL     1      12.459  13.288  28.554  0.00  0.00    +0.050 C 
ATOM      7  C11 UNL     1      11.605  14.558  28.362  0.00  0.00    +0.118 C 
ATOM      8  C12 UNL     1      10.196  14.209  27.848  0.00  0.00    +0.057 C 
ATOM      9  C13 UNL     1       9.527  13.145  28.748  0.00  0.00    +0.041 C 
ATOM     10  C14 UNL     1       8.074  12.810  28.365  0.00  0.00    +0.026 C 
ATOM     11  C15 UNL     1       7.585  13.412  29.675  0.00  0.00    +0.004 C 
ATOM     12  C16 UNL     1       9.019  13.712  30.085  0.00  0.00    +0.026 C 
ATOM     13  H10 UNL     1       9.682  11.597  26.379  0.00  0.00    +0.151 HD
ENDROOT
BRANCH   1  17
ATOM     14  N1  UNL     1       9.262   9.503  23.815  0.00  0.00    -0.255 N 
ATOM     15  C5  UNL     1       7.908   9.695  24.311  0.00  0.00    +0.117 C 
ATOM     16  C6  UNL     1       7.963   9.397  25.820  0.00  0.00    +0.051 C 
ATOM     17  C7  UNL     1       9.447   9.438  26.225  0.00  0.00    +0.162 C 
ATOM     18  C17 UNL     1      10.139   9.354  24.919  0.00  0.00    +0.241 C 
ATOM     19  O3  UNL     1      11.386   9.212  24.799  0.00  0.00    -0.273 OA
BRANCH  14  23
ATOM     20  C1  UNL     1      10.944  10.064  19.153  0.00  0.00    +0.067 C 
ATOM     21  C2  UNL     1      10.377   9.503  20.414  0.00  0.00    +0.062 A 
ATOM     22  C3  UNL     1      10.231  10.187  21.606  0.00  0.00    +0.068 A 
ATOM     23  C4  UNL     1       9.614   9.273  22.438  0.00  0.00    +0.126 A 
ATOM     24  N4  UNL     1       9.399   8.128  21.753  0.00  0.00    -0.253 N 
ATOM     25  C18 UNL     1       8.728   6.921  22.222  0.00  0.00    +0.174 C 
ATOM     26  N5  UNL     1       9.853   8.266  20.518  0.00  0.00    -0.175 NA
ENDBRANCH  14  23
ENDBRANCH   1  17
BRANCH   7  27
ATOM     27  O2  UNL     1      12.228  15.413  27.439  0.00  0.00    -0.392 OA
ATOM     28  H16 UNL     1      11.785  15.261  26.563  0.00  0.00    +0.210 HD
ENDBRANCH   7  27
TORSDOF 3
ENDMDL
MODEL 3
REMARK VINA RESULT:    -6.126     12.559     14.690
REMARK INTER + INTRA:          -7.776
REMARK INTER:                  -7.053
REMARK INTRA:                  -0.723
REMARK UNBOUND:                -0.755
REMARK  Name = /home/qwerty/github/datacon2025hack/step_04_hit_selection/docking/ligands/lig_602.pdb
REMARK  5 active torsions:
REMARK  status: ('A' for Active; 'I' for Inactive)
REMARK    1  A    between atoms: C1_1  and  C2_2
REMARK    2  A    between atoms: C4_4  and  N1_5
REMARK    3  A    between atoms: C7_8  and  N2_9
REMARK    4  A    between atoms: C11_15  and  O2_16
REMARK    5  A    between atoms: N4_24  and  C18_25
REMARK                            x       y       z     vdW  Elec       q    Type
REMARK                         _______ _______ _______ _____ _____    ______ ____
ROOT
ATOM      1  N2  UNL     1      22.519  13.728  22.693  0.00  0.00    -0.288 N 
ATOM      2  C8  UNL     1      23.095  13.132  21.521  0.00  0.00    +0.303 C 
ATOM      3  O1  UNL     1      24.167  12.475  21.613  0.00  0.00    -0.253 OA
ATOM      4  N3  UNL     1      22.442  13.243  20.241  0.00  0.00    -0.280 N 
ATOM      5  C9  UNL     1      22.099  12.000  19.539  0.00  0.00    +0.112 C 
ATOM      6  C10 UNL     1      20.598  11.728  19.698  0.00  0.00    +0.050 C 
ATOM      7  C11 UNL     1      19.763  12.928  19.206  0.00  0.00    +0.118 C 
ATOM      8  C12 UNL     1      20.179  14.227  19.921  0.00  0.00    +0.057 C 
ATOM      9  C13 UNL     1      21.706  14.452  19.815  0.00  0.00    +0.041 C 
ATOM     10  C14 UNL     1      22.196  15.781  20.417  0.00  0.00    +0.026 C 
ATOM     11  C15 UNL     1      22.596  16.266  19.031  0.00  0.00    +0.004 C 
ATOM     12  C16 UNL     1      22.153  14.942  18.428  0.00  0.00    +0.026 C 
ATOM     13  H10 UNL     1      21.560  14.135  22.629  0.00  0.00    +0.151 HD
ENDROOT
BRANCH   1  17
ATOM     14  N1  UNL     1      22.310  15.174  25.705  0.00  0.00    -0.255 N 
ATOM     15  C5  UNL     1      23.310  15.986  25.031  0.00  0.00    +0.117 C 
ATOM     16  C6  UNL     1      24.083  15.026  24.109  0.00  0.00    +0.051 C 
ATOM     17  C7  UNL     1      23.227  13.754  23.976  0.00  0.00    +0.162 C 
ATOM     18  C17 UNL     1      22.269  13.894  25.096  0.00  0.00    +0.241 C 
ATOM     19  O3  UNL     1      21.466  12.987  25.443  0.00  0.00    -0.273 OA
BRANCH  14  23
ATOM     20  C1  UNL     1      21.111  15.730  30.515  0.00  0.00    +0.067 C 
ATOM     21  C2  UNL     1      21.130  15.806  29.025  0.00  0.00    +0.062 A 
ATOM     22  C3  UNL     1      22.089  15.246  28.202  0.00  0.00    +0.068 A 
ATOM     23  C4  UNL     1      21.639  15.532  26.928  0.00  0.00    +0.126 A 
ATOM     24  N4  UNL     1      20.470  16.206  27.013  0.00  0.00    -0.253 N 
ATOM     25  C18 UNL     1      19.619  16.659  25.919  0.00  0.00    +0.174 C 
ATOM     26  N5  UNL     1      20.151  16.367  28.288  0.00  0.00    -0.175 NA
ENDBRANCH  14  23
ENDBRANCH   1  17
BRANCH   7  27
ATOM     27  O2  UNL     1      18.401  12.690  19.450  0.00  0.00    -0.392 OA
ATOM     28  H16 UNL     1      18.348  12.168  20.293  0.00  0.00    +0.210 HD
ENDBRANCH   7  27
TORSDOF 3
ENDMDL
MODEL 4
REMARK VINA RESULT:    -6.031     12.684     16.094
REMARK INTER + INTRA:          -7.667
REMARK INTER:                  -7.118
REMARK INTRA:                  -0.550
REMARK UNBOUND:                -0.755
REMARK  Name = /home/qwerty/github/datacon2025hack/step_04_hit_selection/docking/ligands/lig_602.pdb
REMARK  5 active torsions:
REMARK  status: ('A' for Active; 'I' for Inactive)
REMARK    1  A    between atoms: C1_1  and  C2_2
REMARK    2  A    between atoms: C4_4  and  N1_5
REMARK    3  A    between atoms: C7_8  and  N2_9
REMARK    4  A    between atoms: C11_15  and  O2_16
REMARK    5  A    between atoms: N4_24  and  C18_25
REMARK                            x       y       z     vdW  Elec       q    Type
REMARK                         _______ _______ _______ _____ _____    ______ ____
ROOT
ATOM      1  N2  UNL     1       9.829   8.407  22.748  0.00  0.00    -0.288 N 
ATOM      2  C8  UNL     1       9.834   7.941  21.390  0.00  0.00    +0.303 C 
ATOM      3  O1  UNL     1       9.692   8.763  20.444  0.00  0.00    -0.253 OA
ATOM      4  N3  UNL     1      10.035   6.547  21.089  0.00  0.00    -0.280 N 
ATOM      5  C9  UNL     1      11.155   6.192  20.209  0.00  0.00    +0.112 C 
ATOM      6  C10 UNL     1      12.309   5.642  21.056  0.00  0.00    +0.050 C 
ATOM      7  C11 UNL     1      11.844   4.451  21.919  0.00  0.00    +0.118 C 
ATOM      8  C12 UNL     1      10.636   4.836  22.794  0.00  0.00    +0.057 C 
ATOM      9  C13 UNL     1       9.508   5.457  21.937  0.00  0.00    +0.041 C 
ATOM     10  C14 UNL     1       8.221   5.779  22.718  0.00  0.00    +0.026 C 
ATOM     11  C15 UNL     1       7.470   4.718  21.927  0.00  0.00    +0.004 C 
ATOM     12  C16 UNL     1       8.724   4.417  21.119  0.00  0.00    +0.026 C 
ATOM     13  H10 UNL     1      10.098   7.743  23.506  0.00  0.00    +0.151 HD
ENDROOT
BRANCH   1  17
ATOM     14  N1  UNL     1       8.397  10.154  25.218  0.00  0.00    -0.255 N 
ATOM     15  C5  UNL     1       7.320  10.030  24.250  0.00  0.00    +0.117 C 
ATOM     16  C6  UNL     1       7.989  10.061  22.865  0.00  0.00    +0.051 C 
ATOM     17  C7  UNL     1       9.487   9.791  23.091  0.00  0.00    +0.162 C 
ATOM     18  C17 UNL     1       9.638  10.018  24.546  0.00  0.00    +0.241 C 
ATOM     19  O3  UNL     1      10.752  10.041  25.136  0.00  0.00    -0.273 OA
BRANCH  14  23
ATOM     20  C1  UNL     1       8.325  12.844  29.418  0.00  0.00    +0.067 C 
ATOM     21  C2  UNL     1       8.172  11.752  28.414  0.00  0.00    +0.062 A 
ATOM     22  C3  UNL     1       8.495  11.839  27.073  0.00  0.00    +0.068 A 
ATOM     23  C4  UNL     1       8.237  10.573  26.587  0.00  0.00    +0.126 A 
ATOM     24  N4  UNL     1       7.806   9.790  27.602  0.00  0.00    -0.253 N 
ATOM     25  C18 UNL     1       7.471   8.371  27.554  0.00  0.00    +0.174 C 
ATOM     26  N5  UNL     1       7.773  10.501  28.718  0.00  0.00    -0.175 NA
ENDBRANCH  14  23
ENDBRANCH   1  17
BRANCH   7  27
ATOM     27  O2  UNL     1      12.892   4.029  22.751  0.00  0.00    -0.392 OA
ATOM     28  H16 UNL     1      12.891   4.630  23.541  0.00  0.00    +0.210 HD
ENDBRANCH   7  27
TORSDOF 3
ENDMDL
MODEL 5
REMARK VINA RESULT:    -6.006     13.348     15.366
REMARK INTER + INTRA:          -7.639
REMARK INTER:                  -6.937
REMARK INTRA:                  -0.702
REMARK UNBOUND:                -0.755
REMARK  Name = /home/qwerty/github/datacon2025hack/step_04_hit_selection/docking/ligands/lig_602.pdb
REMARK  5 active torsions:
REMARK  status: ('A' for Active; 'I' for Inactive)
REMARK    1  A    between atoms: C1_1  and  C2_2
REMARK    2  A    between atoms: C4_4  and  N1_5
REMARK    3  A    between atoms: C7_8  and  N2_9
REMARK    4  A    between atoms: C11_15  and  O2_16
REMARK    5  A    between atoms: N4_24  and  C18_25
REMARK                            x       y       z     vdW  Elec       q    Type
REMARK                         _______ _______ _______ _____ _____    ______ ____
ROOT
ATOM      1  N2  UNL     1      20.896  14.072  22.460  0.00  0.00    -0.288 N 
ATOM      2  C8  UNL     1      21.067  15.394  22.995  0.00  0.00    +0.303 C 
ATOM      3  O1  UNL     1      20.245  16.303  22.695  0.00  0.00    -0.253 OA
ATOM      4  N3  UNL     1      22.146  15.689  23.903  0.00  0.00    -0.280 N 
ATOM      5  C9  UNL     1      21.799  16.234  25.221  0.00  0.00    +0.112 C 
ATOM      6  C10 UNL     1      21.911  15.122  26.272  0.00  0.00    +0.050 C 
ATOM      7  C11 UNL     1      23.314  14.480  26.253  0.00  0.00    +0.118 C 
ATOM      8  C12 UNL     1      23.671  13.965  24.846  0.00  0.00    +0.057 C 
ATOM      9  C13 UNL     1      23.485  15.075  23.786  0.00  0.00    +0.041 C 
ATOM     10  C14 UNL     1      23.917  14.674  22.364  0.00  0.00    +0.026 C 
ATOM     11  C15 UNL     1      25.047  15.693  22.415  0.00  0.00    +0.004 C 
ATOM     12  C16 UNL     1      24.606  16.128  23.806  0.00  0.00    +0.026 C 
ATOM     13  H10 UNL     1      21.490  13.300  22.836  0.00  0.00    +0.151 HD
ENDROOT
BRANCH   1  17
ATOM     14  N1  UNL     1      20.148  11.693  20.227  0.00  0.00    -0.255 N 
ATOM     15  C5  UNL     1      20.827  12.690  19.415  0.00  0.00    +0.117 C 
ATOM     16  C6  UNL     1      20.457  14.055  20.023  0.00  0.00    +0.051 C 
ATOM     17  C7  UNL     1      19.897  13.776  21.429  0.00  0.00    +0.162 C 
ATOM     18  C17 UNL     1      19.616  12.323  21.380  0.00  0.00    +0.241 C 
ATOM     19  O3  UNL     1      19.006  11.701  22.291  0.00  0.00    -0.273 OA
BRANCH  14  23
ATOM     20  C1  UNL     1      17.933   7.611  18.409  0.00  0.00    +0.067 C 
ATOM     21  C2  UNL     1      18.918   8.566  18.994  0.00  0.00    +0.062 A 
ATOM     22  C3  UNL     1      18.703   9.914  19.212  0.00  0.00    +0.068 A 
ATOM     23  C4  UNL     1      19.868  10.342  19.816  0.00  0.00    +0.126 A 
ATOM     24  N4  UNL     1      20.705   9.289  19.957  0.00  0.00    -0.253 N 
ATOM     25  C18 UNL     1      22.019   9.272  20.590  0.00  0.00    +0.174 C 
ATOM     26  N5  UNL     1      20.128   8.204  19.466  0.00  0.00    -0.175 NA
ENDBRANCH  14  23
ENDBRANCH   1  17
BRANCH   7  27
ATOM     27  O2  UNL     1      23.357  13.407  27.157  0.00  0.00    -0.392 OA
ATOM     28  H16 UNL     1      22.693  13.605  27.868  0.00  0.00    +0.210 HD
ENDBRANCH   7  27
TORSDOF 3
ENDMDL
MODEL 6
REMARK VINA RESULT:    -5.985     15.910     18.346
REMARK INTER + INTRA:          -7.615
REMARK INTER:                  -6.887
REMARK INTRA:                  -0.728
REMARK UNBOUND:                -0.755
REMARK  Name = /home/qwerty/github/datacon2025hack/step_04_hit_selection/docking/ligands/lig_602.pdb
REMARK  5 active torsions:
REMARK  status: ('A' for Active; 'I' for Inactive)
REMARK    1  A    between atoms: C1_1  and  C2_2
REMARK    2  A    between atoms: C4_4  and  N1_5
REMARK    3  A    between atoms: C7_8  and  N2_9
REMARK    4  A    between atoms: C11_15  and  O2_16
REMARK    5  A    between atoms: N4_24  and  C18_25
REMARK                            x       y       z     vdW  Elec       q    Type
REMARK                         _______ _______ _______ _____ _____    ______ ____
ROOT
ATOM      1  N2  UNL     1      15.309   3.059  21.628  0.00  0.00    -0.288 N 
ATOM      2  C8  UNL     1      16.573   2.550  22.079  0.00  0.00    +0.303 C 
ATOM      3  O1  UNL     1      17.555   3.332  22.205  0.00  0.00    -0.253 OA
ATOM      4  N3  UNL     1      16.729   1.160  22.425  0.00  0.00    -0.280 N 
ATOM      5  C9  UNL     1      17.199   0.842  23.779  0.00  0.00    +0.112 C 
ATOM      6  C10 UNL     1      16.009   0.385  24.632  0.00  0.00    +0.050 C 
ATOM      7  C11 UNL     1      15.278  -0.802  23.972  0.00  0.00    +0.118 C 
ATOM      8  C12 UNL     1      14.842  -0.458  22.535  0.00  0.00    +0.057 C 
ATOM      9  C13 UNL     1      16.036   0.070  21.706  0.00  0.00    +0.041 C 
ATOM     10  C14 UNL     1      15.712   0.344  20.227  0.00  0.00    +0.026 C 
ATOM     11  C15 UNL     1      16.646  -0.783  19.809  0.00  0.00    +0.004 C 
ATOM     12  C16 UNL     1      17.007  -1.038  21.264  0.00  0.00    +0.026 C 
ATOM     13  H10 UNL     1      14.473   2.435  21.675  0.00  0.00    +0.151 HD
ENDROOT
BRANCH   1  17
ATOM     14  N1  UNL     1      12.924   5.133  20.525  0.00  0.00    -0.255 N 
ATOM     15  C5  UNL     1      13.530   4.659  19.291  0.00  0.00    +0.117 C 
ATOM     16  C6  UNL     1      15.023   4.455  19.603  0.00  0.00    +0.051 C 
ATOM     17  C7  UNL     1      15.156   4.431  21.136  0.00  0.00    +0.162 C 
ATOM     18  C17 UNL     1      13.863   5.001  21.579  0.00  0.00    +0.241 C 
ATOM     19  O3  UNL     1      13.606   5.296  22.777  0.00  0.00    -0.273 OA
BRANCH  14  23
ATOM     20  C1  UNL     1       9.421   8.683  20.614  0.00  0.00    +0.067 C 
ATOM     21  C2  UNL     1      10.133   7.372  20.622  0.00  0.00    +0.062 A 
ATOM     22  C3  UNL     1      11.496   7.193  20.480  0.00  0.00    +0.068 A 
ATOM     23  C4  UNL     1      11.668   5.830  20.616  0.00  0.00    +0.126 A 
ATOM     24  N4  UNL     1      10.465   5.254  20.845  0.00  0.00    -0.253 N 
ATOM     25  C18 UNL     1      10.185   3.846  21.101  0.00  0.00    +0.174 C 
ATOM     26  N5  UNL     1       9.529   6.190  20.859  0.00  0.00    -0.175 NA
ENDBRANCH  14  23
ENDBRANCH   1  17
BRANCH   7  27
ATOM     27  O2  UNL     1      14.141  -1.138  24.724  0.00  0.00    -0.392 OA
ATOM     28  H16 UNL     1      13.384  -0.620  24.345  0.00  0.00    +0.210 HD
ENDBRANCH   7  27
TORSDOF 3
ENDMDL
MODEL 7
REMARK VINA RESULT:    -5.856     10.877     13.876
REMARK INTER + INTRA:          -7.466
REMARK INTER:                  -6.676
REMARK INTRA:                  -0.790
REMARK UNBOUND:                -0.755
REMARK  Name = /home/qwerty/github/datacon2025hack/step_04_hit_selection/docking/ligands/lig_602.pdb
REMARK  5 active torsions:
REMARK  status: ('A' for Active; 'I' for Inactive)
REMARK    1  A    between atoms: C1_1  and  C2_2
REMARK    2  A    between atoms: C4_4  and  N1_5
REMARK    3  A    between atoms: C7_8  and  N2_9
REMARK    4  A    between atoms: C11_15  and  O2_16
REMARK    5  A    between atoms: N4_24  and  C18_25
REMARK                            x       y       z     vdW  Elec       q    Type
REMARK                         _______ _______ _______ _____ _____    ______ ____
ROOT
ATOM      1  N2  UNL     1       8.246  10.378  26.328  0.00  0.00    -0.288 N 
ATOM      2  C8  UNL     1       7.958  10.266  27.730  0.00  0.00    +0.303 C 
ATOM      3  O1  UNL     1       7.165   9.374  28.138  0.00  0.00    -0.253 OA
ATOM      4  N3  UNL     1       8.593  11.136  28.686  0.00  0.00    -0.280 N 
ATOM      5  C9  UNL     1       9.366  10.515  29.769  0.00  0.00    +0.112 C 
ATOM      6  C10 UNL     1      10.862  10.629  29.452  0.00  0.00    +0.050 C 
ATOM      7  C11 UNL     1      11.267  12.098  29.212  0.00  0.00    +0.118 C 
ATOM      8  C12 UNL     1      10.406  12.740  28.107  0.00  0.00    +0.057 C 
ATOM      9  C13 UNL     1       8.900  12.555  28.403  0.00  0.00    +0.041 C 
ATOM     10  C14 UNL     1       7.965  13.254  27.400  0.00  0.00    +0.026 C 
ATOM     11  C15 UNL     1       7.488  14.198  28.495  0.00  0.00    +0.004 C 
ATOM     12  C16 UNL     1       8.377  13.490  29.507  0.00  0.00    +0.026 C 
ATOM     13  H10 UNL     1       9.015  11.016  26.025  0.00  0.00    +0.151 HD
ENDROOT
BRANCH   1  17
ATOM     14  N1  UNL     1       8.815   8.599  23.551  0.00  0.00    -0.255 N 
ATOM     15  C5  UNL     1       8.373   9.880  23.023  0.00  0.00    +0.117 C 
ATOM     16  C6  UNL     1       7.335  10.415  24.025  0.00  0.00    +0.051 C 
ATOM     17  C7  UNL     1       7.513   9.605  25.322  0.00  0.00    +0.162 C 
ATOM     18  C17 UNL     1       8.317   8.447  24.869  0.00  0.00    +0.241 C 
ATOM     19  O3  UNL     1       8.572   7.449  25.596  0.00  0.00    -0.273 OA
BRANCH  14  23
ATOM     20  C1  UNL     1       9.678   4.578  20.728  0.00  0.00    +0.067 C 
ATOM     21  C2  UNL     1       9.834   5.830  21.524  0.00  0.00    +0.062 A 
ATOM     22  C3  UNL     1       8.810   6.536  22.125  0.00  0.00    +0.068 A 
ATOM     23  C4  UNL     1       9.457   7.564  22.782  0.00  0.00    +0.126 A 
ATOM     24  N4  UNL     1      10.790   7.445  22.585  0.00  0.00    -0.253 N 
ATOM     25  C18 UNL     1      11.851   8.278  23.136  0.00  0.00    +0.174 C 
ATOM     26  N5  UNL     1      11.025   6.385  21.826  0.00  0.00    -0.175 NA
ENDBRANCH  14  23
ENDBRANCH   1  17
BRANCH   7  27
ATOM     27  O2  UNL     1      12.617  12.162  28.832  0.00  0.00    -0.392 OA
ATOM     28  H16 UNL     1      13.149  11.868  29.617  0.00  0.00    +0.210 HD
ENDBRANCH   7  27
TORSDOF 3
ENDMDL
MODEL 8
REMARK VINA RESULT:    -5.833      5.357      8.311
REMARK INTER + INTRA:          -7.440
REMARK INTER:                  -6.683
REMARK INTRA:                  -0.757
REMARK UNBOUND:                -0.755
REMARK  Name = /home/qwerty/github/datacon2025hack/step_04_hit_selection/docking/ligands/lig_602.pdb
REMARK  5 active torsions:
REMARK  status: ('A' for Active; 'I' for Inactive)
REMARK    1  A    between atoms: C1_1  and  C2_2
REMARK    2  A    between atoms: C4_4  and  N1_5
REMARK    3  A    between atoms: C7_8  and  N2_9
REMARK    4  A    between atoms: C11_15  and  O2_16
REMARK    5  A    between atoms: N4_24  and  C18_25
REMARK                            x       y       z     vdW  Elec       q    Type
REMARK                         _______ _______ _______ _____ _____    ______ ____
ROOT
ATOM      1  N2  UNL     1      11.015  12.745  30.890  0.00  0.00    -0.288 N 
ATOM      2  C8  UNL     1      11.292  12.250  29.572  0.00  0.00    +0.303 C 
ATOM      3  O1  UNL     1      12.455  12.357  29.093  0.00  0.00    -0.253 OA
ATOM      4  N3  UNL     1      10.268  11.596  28.798  0.00  0.00    -0.280 N 
ATOM      5  C9  UNL     1      10.532  10.230  28.331  0.00  0.00    +0.112 C 
ATOM      6  C10 UNL     1       9.768   9.237  29.216  0.00  0.00    +0.050 C 
ATOM      7  C11 UNL     1       8.261   9.566  29.244  0.00  0.00    +0.118 C 
ATOM      8  C12 UNL     1       8.017  11.021  29.688  0.00  0.00    +0.057 C 
ATOM      9  C13 UNL     1       8.848  12.006  28.834  0.00  0.00    +0.041 C 
ATOM     10  C14 UNL     1       8.588  13.491  29.144  0.00  0.00    +0.026 C 
ATOM     11  C15 UNL     1       7.985  13.679  27.759  0.00  0.00    +0.004 C 
ATOM     12  C16 UNL     1       8.274  12.223  27.424  0.00  0.00    +0.026 C 
ATOM     13  H10 UNL     1      10.096  12.514  31.328  0.00  0.00    +0.151 HD
ENDROOT
BRANCH   1  17
ATOM     14  N1  UNL     1      12.411  12.872  33.930  0.00  0.00    -0.255 N 
ATOM     15  C5  UNL     1      11.382  13.896  34.009  0.00  0.00    +0.117 C 
ATOM     16  C6  UNL     1      11.290  14.513  32.602  0.00  0.00    +0.051 C 
ATOM     17  C7  UNL     1      11.992  13.536  31.643  0.00  0.00    +0.162 C 
ATOM     18  C17 UNL     1      12.758  12.672  32.570  0.00  0.00    +0.241 C 
ATOM     19  O3  UNL     1      13.598  11.813  32.187  0.00  0.00    -0.273 OA
BRANCH  14  23
ATOM     20  C1  UNL     1      15.820  11.967  37.457  0.00  0.00    +0.067 C 
ATOM     21  C2  UNL     1      14.589  11.945  36.616  0.00  0.00    +0.062 A 
ATOM     22  C3  UNL     1      14.342  12.758  35.526  0.00  0.00    +0.068 A 
ATOM     23  C4  UNL     1      13.119  12.321  35.056  0.00  0.00    +0.126 A 
ATOM     24  N4  UNL     1      12.693  11.293  35.825  0.00  0.00    -0.253 N 
ATOM     25  C18 UNL     1      11.482  10.497  35.659  0.00  0.00    +0.174 C 
ATOM     26  N5  UNL     1      13.588  11.055  36.771  0.00  0.00    -0.175 NA
ENDBRANCH  14  23
ENDBRANCH   1  17
BRANCH   7  27
ATOM     27  O2  UNL     1       7.604   8.702  30.133  0.00  0.00    -0.392 OA
ATOM     28  H16 UNL     1       7.468   9.208  30.977  0.00  0.00    +0.210 HD
ENDBRANCH   7  27
TORSDOF 3
ENDMDL
MODEL 9
REMARK VINA RESULT:    -5.826      3.112      8.564
REMARK INTER + INTRA:          -7.432
REMARK INTER:                  -6.639
REMARK INTRA:                  -0.793
REMARK UNBOUND:                -0.755
REMARK  Name = /home/qwerty/github/datacon2025hack/step_04_hit_selection/docking/ligands/lig_602.pdb
REMARK  5 active torsions:
REMARK  status: ('A' for Active; 'I' for Inactive)
REMARK    1  A    between atoms: C1_1  and  C2_2
REMARK    2  A    between atoms: C4_4  and  N1_5
REMARK    3  A    between atoms: C7_8  and  N2_9
REMARK    4  A    between atoms: C11_15  and  O2_16
REMARK    5  A    between atoms: N4_24  and  C18_25
REMARK                            x       y       z     vdW  Elec       q    Type
REMARK                         _______ _______ _______ _____ _____    ______ ____
ROOT
ATOM      1  N2  UNL     1      20.697   8.150  34.497  0.00  0.00    -0.288 N 
ATOM      2  C8  UNL     1      20.888   7.290  33.364  0.00  0.00    +0.303 C 
ATOM      3  O1  UNL     1      19.974   6.490  33.022  0.00  0.00    -0.253 OA
ATOM      4  N3  UNL     1      22.098   7.353  32.585  0.00  0.00    -0.280 N 
ATOM      5  C9  UNL     1      21.973   7.630  31.149  0.00  0.00    +0.112 C 
ATOM      6  C10 UNL     1      22.341   9.095  30.883  0.00  0.00    +0.050 C 
ATOM      7  C11 UNL     1      23.750   9.418  31.421  0.00  0.00    +0.118 C 
ATOM      8  C12 UNL     1      23.869   9.069  32.917  0.00  0.00    +0.057 C 
ATOM      9  C13 UNL     1      23.426   7.612  33.182  0.00  0.00    +0.041 C 
ATOM     10  C14 UNL     1      23.607   7.147  34.638  0.00  0.00    +0.026 C 
ATOM     11  C15 UNL     1      24.667   6.149  34.192  0.00  0.00    +0.004 C 
ATOM     12  C16 UNL     1      24.469   6.570  32.744  0.00  0.00    +0.026 C 
ATOM     13  H10 UNL     1      21.393   8.907  34.674  0.00  0.00    +0.151 HD
ENDROOT
BRANCH   1  17
ATOM     14  N1  UNL     1      18.496  10.054  36.152  0.00  0.00    -0.255 N 
ATOM     15  C5  UNL     1      19.455   9.704  37.187  0.00  0.00    +0.117 C 
ATOM     16  C6  UNL     1      19.939   8.281  36.852  0.00  0.00    +0.051 C 
ATOM     17  C7  UNL     1      19.542   8.012  35.390  0.00  0.00    +0.162 C 
ATOM     18  C17 UNL     1      18.550   9.078  35.125  0.00  0.00    +0.241 C 
ATOM     19  O3  UNL     1      17.857   9.139  34.074  0.00  0.00    -0.273 OA
BRANCH  14  23
ATOM     20  C1  UNL     1      14.298  12.566  37.122  0.00  0.00    +0.067 C 
ATOM     21  C2  UNL     1      15.683  12.196  36.713  0.00  0.00    +0.062 A 
ATOM     22  C3  UNL     1      16.246  10.938  36.819  0.00  0.00    +0.068 A 
ATOM     23  C4  UNL     1      17.501  11.088  36.262  0.00  0.00    +0.126 A 
ATOM     24  N4  UNL     1      17.645  12.365  35.838  0.00  0.00    -0.253 N 
ATOM     25  C18 UNL     1      18.786  12.951  35.144  0.00  0.00    +0.174 C 
ATOM     26  N5  UNL     1      16.538  13.041  36.103  0.00  0.00    -0.175 NA
ENDBRANCH  14  23
ENDBRANCH   1  17
BRANCH   7  27
ATOM     27  O2  UNL     1      24.023  10.784  31.249  0.00  0.00    -0.392 OA
ATOM     28  H16 UNL     1      23.874  10.987  30.288  0.00  0.00    +0.210 HD
ENDBRANCH   7  27
TORSDOF 3
ENDMDL
