MODEL 1
REMARK VINA RESULT:    -6.187      0.000      0.000
REMARK INTER + INTRA:          -7.937
REMARK INTER:                  -7.453
REMARK INTRA:                  -0.484
REMARK UNBOUND:                -0.484
REMARK  Name = /home/qwerty/github/datacon2025hack/step_04_hit_selection/docking/ligands/lig_209.pdb
REMARK  5 active torsions:
REMARK  status: ('A' for Active; 'I' for Inactive)
REMARK    1  A    between atoms: C5_5  and  C6_6
REMARK    2  A    between atoms: C9_11  and  N2_12
REMARK    3  A    between atoms: C10_13  and  C11_15
REMARK    4  A    between atoms: N4_18  and  C13_19
REMARK    5  A    between atoms: C14_20  and  N5_21
REMARK                            x       y       z     vdW  Elec       q    Type
REMARK                         _______ _______ _______ _____ _____    ______ ____
ROOT
ATOM      1  C6  UNL     1      22.689  15.036  21.775  0.00  0.00    +0.219 C 
ATOM      2  O1  UNL     1      22.836  16.284  21.903  0.00  0.00    -0.275 OA
ATOM      3  N1  UNL     1      22.013  14.523  20.612  0.00  0.00    -0.299 N 
ATOM      4  C7  UNL     1      21.446  15.391  19.592  0.00  0.00    +0.109 C 
ATOM      5  C8  UNL     1      20.588  14.491  18.713  0.00  0.00    +0.043 C 
ATOM      6  C9  UNL     1      21.082  13.065  18.983  0.00  0.00    +0.092 C 
ATOM      7  C15 UNL     1      21.754  13.114  20.354  0.00  0.00    +0.130 C 
ENDROOT
BRANCH   1  12
ATOM      8  C1  UNL     1      23.704  14.117  27.158  0.00  0.00    +0.007 C 
ATOM      9  C2  UNL     1      23.428  14.225  25.849  0.00  0.00    -0.077 C 
ATOM     10  C3  UNL     1      22.426  13.294  25.207  0.00  0.00    +0.031 C 
ATOM     11  C4  UNL     1      21.968  13.842  23.850  0.00  0.00    +0.017 C 
ATOM     12  C5  UNL     1      23.154  14.126  22.895  0.00  0.00    +0.076 C 
ATOM     13  C16 UNL     1      24.409  14.706  23.614  0.00  0.00    +0.017 C 
ATOM     14  C17 UNL     1      24.100  15.282  25.002  0.00  0.00    +0.031 C 
ENDBRANCH   1  12
BRANCH   6  15
ATOM     15  N2  UNL     1      19.992  12.084  18.963  0.00  0.00    -0.307 N 
ATOM     16  C10 UNL     1      20.248  10.671  19.026  0.00  0.00    +0.249 C 
ATOM     17  O2  UNL     1      21.437  10.254  19.048  0.00  0.00    -0.270 OA
ATOM     18  H13 UNL     1      19.003  12.424  19.030  0.00  0.00    +0.149 HD
BRANCH  16  19
ATOM     19  C11 UNL     1      19.131   9.703  19.052  0.00  0.00    +0.095 A 
ATOM     20  C12 UNL     1      17.802   9.970  19.356  0.00  0.00    +0.149 A 
ATOM     21  N3  UNL     1      17.074   8.839  19.248  0.00  0.00    -0.177 NA
ATOM     22  N4  UNL     1      17.891   7.862  18.883  0.00  0.00    -0.253 N 
ATOM     23  C13 UNL     1      17.463   6.482  18.683  0.00  0.00    +0.174 C 
ATOM     24  C14 UNL     1      19.143   8.347  18.756  0.00  0.00    +0.126 A 
BRANCH  24  25
ATOM     25  N5  UNL     1      20.282   7.548  18.412  0.00  0.00    -0.343 N 
ATOM     26  H18 UNL     1      20.357   7.067  17.489  0.00  0.00    +0.144 HD
ATOM     27  H19 UNL     1      21.093   7.473  19.063  0.00  0.00    +0.144 HD
ENDBRANCH  24  25
ENDBRANCH  16  19
ENDBRANCH   6  15
TORSDOF 4
ENDMDL
MODEL 2
REMARK VINA RESULT:    -6.185     10.884     12.503
REMARK INTER + INTRA:          -7.935
REMARK INTER:                  -7.386
REMARK INTRA:                  -0.549
REMARK UNBOUND:                -0.484
REMARK  Name = /home/qwerty/github/datacon2025hack/step_04_hit_selection/docking/ligands/lig_209.pdb
REMARK  5 active torsions:
REMARK  status: ('A' for Active; 'I' for Inactive)
REMARK    1  A    between atoms: C5_5  and  C6_6
REMARK    2  A    between atoms: C9_11  and  N2_12
REMARK    3  A    between atoms: C10_13  and  C11_15
REMARK    4  A    between atoms: N4_18  and  C13_19
REMARK    5  A    between atoms: C14_20  and  N5_21
REMARK                            x       y       z     vdW  Elec       q    Type
REMARK                         _______ _______ _______ _____ _____    ______ ____
ROOT
ATOM      1  C6  UNL     1      21.694   1.838  27.195  0.00  0.00    +0.219 C 
ATOM      2  O1  UNL     1      22.731   2.508  27.461  0.00  0.00    -0.275 OA
ATOM      3  N1  UNL     1      21.068   1.993  25.907  0.00  0.00    -0.299 N 
ATOM      4  C7  UNL     1      21.556   2.932  24.909  0.00  0.00    +0.109 C 
ATOM      5  C8  UNL     1      20.473   3.001  23.841  0.00  0.00    +0.043 C 
ATOM      6  C9  UNL     1      19.627   1.736  24.036  0.00  0.00    +0.092 C 
ATOM      7  C15 UNL     1      19.859   1.304  25.483  0.00  0.00    +0.130 C 
ENDROOT
BRANCH   1  12
ATOM      8  C1  UNL     1      20.360   0.923  32.508  0.00  0.00    +0.007 C 
ATOM      9  C2  UNL     1      20.585   1.083  31.195  0.00  0.00    -0.077 C 
ATOM     10  C3  UNL     1      19.431   1.057  30.219  0.00  0.00    +0.031 C 
ATOM     11  C4  UNL     1      19.848   1.654  28.870  0.00  0.00    +0.017 C 
ATOM     12  C5  UNL     1      21.095   0.956  28.274  0.00  0.00    +0.076 C 
ATOM     13  C16 UNL     1      22.160   0.562  29.341  0.00  0.00    +0.017 C 
ATOM     14  C17 UNL     1      21.987   1.304  30.673  0.00  0.00    +0.031 C 
ENDBRANCH   1  12
BRANCH   6  15
ATOM     15  N2  UNL     1      18.203   1.974  23.775  0.00  0.00    -0.307 N 
ATOM     16  C10 UNL     1      17.322   0.909  23.383  0.00  0.00    +0.249 C 
ATOM     17  O2  UNL     1      17.785  -0.250  23.207  0.00  0.00    -0.270 OA
ATOM     18  H13 UNL     1      17.796   2.912  24.001  0.00  0.00    +0.149 HD
BRANCH  16  19
ATOM     19  C11 UNL     1      15.880   1.162  23.171  0.00  0.00    +0.095 A 
ATOM     20  C12 UNL     1      15.204   2.358  23.379  0.00  0.00    +0.149 A 
ATOM     21  N3  UNL     1      13.905   2.209  23.051  0.00  0.00    -0.177 NA
ATOM     22  N4  UNL     1      13.728   0.962  22.640  0.00  0.00    -0.253 N 
ATOM     23  C13 UNL     1      12.441   0.423  22.217  0.00  0.00    +0.174 C 
ATOM     24  C14 UNL     1      14.901   0.299  22.700  0.00  0.00    +0.126 A 
BRANCH  24  25
ATOM     25  N5  UNL     1      15.059  -1.085  22.364  0.00  0.00    -0.343 N 
ATOM     26  H18 UNL     1      14.269  -1.762  22.439  0.00  0.00    +0.144 HD
ATOM     27  H19 UNL     1      15.963  -1.438  21.981  0.00  0.00    +0.144 HD
ENDBRANCH  24  25
ENDBRANCH  16  19
ENDBRANCH   6  15
TORSDOF 4
ENDMDL
MODEL 3
REMARK VINA RESULT:    -6.183     14.053     16.707
REMARK INTER + INTRA:          -7.932
REMARK INTER:                  -7.256
REMARK INTRA:                  -0.676
REMARK UNBOUND:                -0.484
REMARK  Name = /home/qwerty/github/datacon2025hack/step_04_hit_selection/docking/ligands/lig_209.pdb
REMARK  5 active torsions:
REMARK  status: ('A' for Active; 'I' for Inactive)
REMARK    1  A    between atoms: C5_5  and  C6_6
REMARK    2  A    between atoms: C9_11  and  N2_12
REMARK    3  A    between atoms: C10_13  and  C11_15
REMARK    4  A    between atoms: N4_18  and  C13_19
REMARK    5  A    between atoms: C14_20  and  N5_21
REMARK                            x       y       z     vdW  Elec       q    Type
REMARK                         _______ _______ _______ _____ _____    ______ ____
ROOT
ATOM      1  C6  UNL     1      20.954   6.737  35.197  0.00  0.00    +0.219 C 
ATOM      2  O1  UNL     1      21.305   5.598  34.778  0.00  0.00    -0.275 OA
ATOM      3  N1  UNL     1      19.674   6.885  35.841  0.00  0.00    -0.299 N 
ATOM      4  C7  UNL     1      18.741   5.779  35.990  0.00  0.00    +0.109 C 
ATOM      5  C8  UNL     1      17.428   6.404  36.442  0.00  0.00    +0.043 C 
ATOM      6  C9  UNL     1      17.802   7.785  36.993  0.00  0.00    +0.092 C 
ATOM      7  C15 UNL     1      19.137   8.141  36.344  0.00  0.00    +0.130 C 
ENDROOT
BRANCH   1  12
ATOM      8  C1  UNL     1      25.129   9.111  32.407  0.00  0.00    +0.007 C 
ATOM      9  C2  UNL     1      24.069   8.644  33.086  0.00  0.00    -0.077 C 
ATOM     10  C3  UNL     1      22.736   9.349  32.988  0.00  0.00    +0.031 C 
ATOM     11  C4  UNL     1      21.605   8.443  33.491  0.00  0.00    +0.017 C 
ATOM     12  C5  UNL     1      21.856   7.926  34.928  0.00  0.00    +0.076 C 
ATOM     13  C16 UNL     1      23.348   7.583  35.217  0.00  0.00    +0.017 C 
ATOM     14  C17 UNL     1      24.187   7.405  33.945  0.00  0.00    +0.031 C 
ENDBRANCH   1  12
BRANCH   6  15
ATOM     15  N2  UNL     1      16.782   8.797  36.697  0.00  0.00    -0.307 N 
ATOM     16  C10 UNL     1      16.595   9.947  37.539  0.00  0.00    +0.249 C 
ATOM     17  O2  UNL     1      17.284  10.071  38.586  0.00  0.00    -0.270 OA
ATOM     18  H13 UNL     1      16.265   8.745  35.787  0.00  0.00    +0.149 HD
BRANCH  16  19
ATOM     19  C11 UNL     1      15.593  10.978  37.194  0.00  0.00    +0.095 A 
ATOM     20  C12 UNL     1      14.284  10.765  36.780  0.00  0.00    +0.149 A 
ATOM     21  N3  UNL     1      13.669  11.950  36.586  0.00  0.00    -0.177 NA
ATOM     22  N4  UNL     1      14.539  12.910  36.862  0.00  0.00    -0.253 N 
ATOM     23  C13 UNL     1      14.237  14.332  36.749  0.00  0.00    +0.174 C 
ATOM     24  C14 UNL     1      15.713  12.361  37.233  0.00  0.00    +0.126 A 
BRANCH  24  25
ATOM     25  N5  UNL     1      16.884  13.117  37.564  0.00  0.00    -0.343 N 
ATOM     26  H18 UNL     1      17.229  13.890  36.954  0.00  0.00    +0.144 HD
ATOM     27  H19 UNL     1      17.392  12.944  38.458  0.00  0.00    +0.144 HD
ENDBRANCH  24  25
ENDBRANCH  16  19
ENDBRANCH   6  15
TORSDOF 4
ENDMDL
MODEL 4
REMARK VINA RESULT:    -6.178      4.109      8.932
REMARK INTER + INTRA:          -7.926
REMARK INTER:                  -7.363
REMARK INTRA:                  -0.562
REMARK UNBOUND:                -0.484
REMARK  Name = /home/qwerty/github/datacon2025hack/step_04_hit_selection/docking/ligands/lig_209.pdb
REMARK  5 active torsions:
REMARK  status: ('A' for Active; 'I' for Inactive)
REMARK    1  A    between atoms: C5_5  and  C6_6
REMARK    2  A    between atoms: C9_11  and  N2_12
REMARK    3  A    between atoms: C10_13  and  C11_15
REMARK    4  A    between atoms: N4_18  and  C13_19
REMARK    5  A    between atoms: C14_20  and  N5_21
REMARK                            x       y       z     vdW  Elec       q    Type
REMARK                         _______ _______ _______ _____ _____    ______ ____
ROOT
ATOM      1  C6  UNL     1      22.364  14.753  21.019  0.00  0.00    +0.219 C 
ATOM      2  O1  UNL     1      23.046  14.526  19.980  0.00  0.00    -0.275 OA
ATOM      3  N1  UNL     1      23.035  15.170  22.223  0.00  0.00    -0.299 N 
ATOM      4  C7  UNL     1      24.482  15.297  22.307  0.00  0.00    +0.109 C 
ATOM      5  C8  UNL     1      24.797  15.467  23.788  0.00  0.00    +0.043 C 
ATOM      6  C9  UNL     1      23.480  15.910  24.436  0.00  0.00    +0.092 C 
ATOM      7  C15 UNL     1      22.376  15.438  23.492  0.00  0.00    +0.130 C 
ENDROOT
BRANCH   1  12
ATOM      8  C1  UNL     1      18.002  11.805  19.249  0.00  0.00    +0.007 C 
ATOM      9  C2  UNL     1      18.998  12.534  19.778  0.00  0.00    -0.077 C 
ATOM     10  C3  UNL     1      19.180  12.592  21.277  0.00  0.00    +0.031 C 
ATOM     11  C4  UNL     1      20.575  13.120  21.634  0.00  0.00    +0.017 C 
ATOM     12  C5  UNL     1      20.870  14.494  20.985  0.00  0.00    +0.076 C 
ATOM     13  C16 UNL     1      20.302  14.639  19.542  0.00  0.00    +0.017 C 
ATOM     14  C17 UNL     1      19.956  13.294  18.889  0.00  0.00    +0.031 C 
ENDBRANCH   1  12
BRANCH   6  15
ATOM     15  N2  UNL     1      23.304  15.346  25.779  0.00  0.00    -0.307 N 
ATOM     16  C10 UNL     1      22.396  15.930  26.729  0.00  0.00    +0.249 C 
ATOM     17  O2  UNL     1      21.770  16.981  26.426  0.00  0.00    -0.270 OA
ATOM     18  H13 UNL     1      23.755  14.428  26.007  0.00  0.00    +0.149 HD
BRANCH  16  19
ATOM     19  C11 UNL     1      22.200  15.317  28.060  0.00  0.00    +0.095 A 
ATOM     20  C12 UNL     1      22.715  14.106  28.505  0.00  0.00    +0.149 A 
ATOM     21  N3  UNL     1      22.343  13.896  29.784  0.00  0.00    -0.177 NA
ATOM     22  N4  UNL     1      21.611  14.931  30.171  0.00  0.00    -0.253 N 
ATOM     23  C13 UNL     1      21.014  15.049  31.496  0.00  0.00    +0.174 C 
ATOM     24  C14 UNL     1      21.503  15.810  29.155  0.00  0.00    +0.126 A 
BRANCH  24  25
ATOM     25  N5  UNL     1      20.744  17.024  29.220  0.00  0.00    -0.343 N 
ATOM     26  H18 UNL     1      20.802  17.749  28.472  0.00  0.00    +0.144 HD
ATOM     27  H19 UNL     1      20.070  17.186  29.999  0.00  0.00    +0.144 HD
ENDBRANCH  24  25
ENDBRANCH  16  19
ENDBRANCH   6  15
TORSDOF 4
ENDMDL
MODEL 5
REMARK VINA RESULT:    -6.128      5.945      8.514
REMARK INTER + INTRA:          -7.865
REMARK INTER:                  -7.164
REMARK INTRA:                  -0.701
REMARK UNBOUND:                -0.484
REMARK  Name = /home/qwerty/github/datacon2025hack/step_04_hit_selection/docking/ligands/lig_209.pdb
REMARK  5 active torsions:
REMARK  status: ('A' for Active; 'I' for Inactive)
REMARK    1  A    between atoms: C5_5  and  C6_6
REMARK    2  A    between atoms: C9_11  and  N2_12
REMARK    3  A    between atoms: C10_13  and  C11_15
REMARK    4  A    between atoms: N4_18  and  C13_19
REMARK    5  A    between atoms: C14_20  and  N5_21
REMARK                            x       y       z     vdW  Elec       q    Type
REMARK                         _______ _______ _______ _____ _____    ______ ____
ROOT
ATOM      1  C6  UNL     1      20.831   9.122  20.083  0.00  0.00    +0.219 C 
ATOM      2  O1  UNL     1      21.340   9.562  19.014  0.00  0.00    -0.275 OA
ATOM      3  N1  UNL     1      21.548   8.135  20.848  0.00  0.00    -0.299 N 
ATOM      4  C7  UNL     1      22.823   7.585  20.414  0.00  0.00    +0.109 C 
ATOM      5  C8  UNL     1      23.090   6.393  21.325  0.00  0.00    +0.043 C 
ATOM      6  C9  UNL     1      22.190   6.605  22.548  0.00  0.00    +0.092 C 
ATOM      7  C15 UNL     1      21.066   7.527  22.079  0.00  0.00    +0.130 C 
ENDROOT
BRANCH   1  12
ATOM      8  C1  UNL     1      16.105  11.792  18.906  0.00  0.00    +0.007 C 
ATOM      9  C2  UNL     1      17.182  11.071  19.255  0.00  0.00    -0.077 C 
ATOM     10  C3  UNL     1      17.035   9.607  19.600  0.00  0.00    +0.031 C 
ATOM     11  C4  UNL     1      18.397   8.902  19.563  0.00  0.00    +0.017 C 
ATOM     12  C5  UNL     1      19.443   9.586  20.477  0.00  0.00    +0.076 C 
ATOM     13  C16 UNL     1      19.344  11.141  20.484  0.00  0.00    +0.017 C 
ATOM     14  C17 UNL     1      18.555  11.704  19.294  0.00  0.00    +0.031 C 
ENDBRANCH   1  12
BRANCH   6  15
ATOM     15  N2  UNL     1      21.655   5.343  23.071  0.00  0.00    -0.307 N 
ATOM     16  C10 UNL     1      22.072   4.818  24.343  0.00  0.00    +0.249 C 
ATOM     17  O2  UNL     1      22.955   5.423  25.007  0.00  0.00    -0.270 OA
ATOM     18  H13 UNL     1      20.863   4.880  22.566  0.00  0.00    +0.149 HD
BRANCH  16  19
ATOM     19  C11 UNL     1      21.485   3.567  24.871  0.00  0.00    +0.095 A 
ATOM     20  C12 UNL     1      20.434   2.843  24.324  0.00  0.00    +0.149 A 
ATOM     21  N3  UNL     1      20.199   1.746  25.073  0.00  0.00    -0.177 NA
ATOM     22  N4  UNL     1      21.064   1.745  26.076  0.00  0.00    -0.253 N 
ATOM     23  C13 UNL     1      21.102   0.717  27.110  0.00  0.00    +0.174 C 
ATOM     24  C14 UNL     1      21.857   2.831  25.988  0.00  0.00    +0.126 A 
BRANCH  24  25
ATOM     25  N5  UNL     1      22.878   3.160  26.938  0.00  0.00    -0.343 N 
ATOM     26  H18 UNL     1      22.963   4.118  27.344  0.00  0.00    +0.144 HD
ATOM     27  H19 UNL     1      23.531   2.427  27.290  0.00  0.00    +0.144 HD
ENDBRANCH  24  25
ENDBRANCH  16  19
ENDBRANCH   6  15
TORSDOF 4
ENDMDL
MODEL 6
REMARK VINA RESULT:    -5.931     12.886     15.927
REMARK INTER + INTRA:          -7.628
REMARK INTER:                  -7.159
REMARK INTRA:                  -0.469
REMARK UNBOUND:                -0.484
REMARK  Name = /home/qwerty/github/datacon2025hack/step_04_hit_selection/docking/ligands/lig_209.pdb
REMARK  5 active torsions:
REMARK  status: ('A' for Active; 'I' for Inactive)
REMARK    1  A    between atoms: C5_5  and  C6_6
REMARK    2  A    between atoms: C9_11  and  N2_12
REMARK    3  A    between atoms: C10_13  and  C11_15
REMARK    4  A    between atoms: N4_18  and  C13_19
REMARK    5  A    between atoms: C14_20  and  N5_21
REMARK                            x       y       z     vdW  Elec       q    Type
REMARK                         _______ _______ _______ _____ _____    ______ ____
ROOT
ATOM      1  C6  UNL     1      21.375   1.332  30.792  0.00  0.00    +0.219 C 
ATOM      2  O1  UNL     1      20.936   0.168  30.574  0.00  0.00    -0.275 OA
ATOM      3  N1  UNL     1      21.089   1.967  32.053  0.00  0.00    -0.299 N 
ATOM      4  C7  UNL     1      20.270   1.337  33.077  0.00  0.00    +0.109 C 
ATOM      5  C8  UNL     1      19.974   2.427  34.099  0.00  0.00    +0.043 C 
ATOM      6  C9  UNL     1      21.035   3.508  33.860  0.00  0.00    +0.092 C 
ATOM      7  C15 UNL     1      21.510   3.310  32.422  0.00  0.00    +0.130 C 
ENDROOT
BRANCH   1  12
ATOM      8  C1  UNL     1      21.811   2.884  25.477  0.00  0.00    +0.007 C 
ATOM      9  C2  UNL     1      21.757   2.612  26.790  0.00  0.00    -0.077 C 
ATOM     10  C3  UNL     1      21.707   3.739  27.796  0.00  0.00    +0.031 C 
ATOM     11  C4  UNL     1      21.243   3.224  29.165  0.00  0.00    +0.017 C 
ATOM     12  C5  UNL     1      22.115   2.055  29.684  0.00  0.00    +0.076 C 
ATOM     13  C16 UNL     1      22.566   1.068  28.565  0.00  0.00    +0.017 C 
ATOM     14  C17 UNL     1      21.731   1.183  27.283  0.00  0.00    +0.031 C 
ENDBRANCH   1  12
BRANCH   6  15
ATOM     15  N2  UNL     1      20.506   4.862  34.061  0.00  0.00    -0.307 N 
ATOM     16  C10 UNL     1      21.326   5.922  34.578  0.00  0.00    +0.249 C 
ATOM     17  O2  UNL     1      22.516   5.681  34.916  0.00  0.00    -0.270 OA
ATOM     18  H13 UNL     1      19.547   5.089  33.705  0.00  0.00    +0.149 HD
BRANCH  16  19
ATOM     19  C11 UNL     1      20.784   7.290  34.728  0.00  0.00    +0.095 A 
ATOM     20  C12 UNL     1      19.563   7.759  34.261  0.00  0.00    +0.149 A 
ATOM     21  N3  UNL     1      19.407   9.052  34.614  0.00  0.00    -0.177 NA
ATOM     22  N4  UNL     1      20.485   9.422  35.290  0.00  0.00    -0.253 N 
ATOM     23  C13 UNL     1      20.684  10.766  35.821  0.00  0.00    +0.174 C 
ATOM     24  C14 UNL     1      21.339   8.384  35.378  0.00  0.00    +0.126 A 
BRANCH  24  25
ATOM     25  N5  UNL     1      22.623   8.452  36.012  0.00  0.00    -0.343 N 
ATOM     26  H18 UNL     1      23.501   8.576  35.462  0.00  0.00    +0.144 HD
ATOM     27  H19 UNL     1      22.703   8.433  37.051  0.00  0.00    +0.144 HD
ENDBRANCH  24  25
ENDBRANCH  16  19
ENDBRANCH   6  15
TORSDOF 4
ENDMDL
MODEL 7
REMARK VINA RESULT:    -5.838     11.841     13.071
REMARK INTER + INTRA:          -7.517
REMARK INTER:                  -6.806
REMARK INTRA:                  -0.710
REMARK UNBOUND:                -0.484
REMARK  Name = /home/qwerty/github/datacon2025hack/step_04_hit_selection/docking/ligands/lig_209.pdb
REMARK  5 active torsions:
REMARK  status: ('A' for Active; 'I' for Inactive)
REMARK    1  A    between atoms: C5_5  and  C6_6
REMARK    2  A    between atoms: C9_11  and  N2_12
REMARK    3  A    between atoms: C10_13  and  C11_15
REMARK    4  A    between atoms: N4_18  and  C13_19
REMARK    5  A    between atoms: C14_20  and  N5_21
REMARK                            x       y       z     vdW  Elec       q    Type
REMARK                         _______ _______ _______ _____ _____    ______ ____
ROOT
ATOM      1  C6  UNL     1       8.088   9.304  24.250  0.00  0.00    +0.219 C 
ATOM      2  O1  UNL     1       7.055   9.989  24.003  0.00  0.00    -0.275 OA
ATOM      3  N1  UNL     1       8.755   8.624  23.170  0.00  0.00    -0.299 N 
ATOM      4  C7  UNL     1       8.260   8.655  21.803  0.00  0.00    +0.109 C 
ATOM      5  C8  UNL     1       9.060   7.600  21.049  0.00  0.00    +0.043 C 
ATOM      6  C9  UNL     1      10.307   7.346  21.904  0.00  0.00    +0.092 C 
ATOM      7  C15 UNL     1       9.933   7.783  23.319  0.00  0.00    +0.130 C 
ENDROOT
BRANCH   1  12
ATOM      8  C1  UNL     1       7.758  10.752  29.602  0.00  0.00    +0.007 C 
ATOM      9  C2  UNL     1       7.861  10.291  28.345  0.00  0.00    -0.077 C 
ATOM     10  C3  UNL     1       7.579   8.838  28.044  0.00  0.00    +0.031 C 
ATOM     11  C4  UNL     1       7.356   8.628  26.542  0.00  0.00    +0.017 C 
ATOM     12  C5  UNL     1       8.538   9.151  25.690  0.00  0.00    +0.076 C 
ATOM     13  C16 UNL     1       9.162  10.472  26.232  0.00  0.00    +0.017 C 
ATOM     14  C17 UNL     1       8.246  11.217  27.213  0.00  0.00    +0.031 C 
ENDBRANCH   1  12
BRANCH   6  15
ATOM     15  N2  UNL     1      10.724   5.940  21.877  0.00  0.00    -0.307 N 
ATOM     16  C10 UNL     1      11.979   5.537  21.305  0.00  0.00    +0.249 C 
ATOM     17  O2  UNL     1      12.723   6.399  20.765  0.00  0.00    -0.270 OA
ATOM     18  H13 UNL     1      10.152   5.232  22.396  0.00  0.00    +0.149 HD
BRANCH  16  19
ATOM     19  C11 UNL     1      12.400   4.119  21.331  0.00  0.00    +0.095 A 
ATOM     20  C12 UNL     1      11.999   3.147  22.238  0.00  0.00    +0.149 A 
ATOM     21  N3  UNL     1      12.573   1.967  21.924  0.00  0.00    -0.177 NA
ATOM     22  N4  UNL     1      13.323   2.153  20.848  0.00  0.00    -0.253 N 
ATOM     23  C13 UNL     1      14.115   1.100  20.223  0.00  0.00    +0.174 C 
ATOM     24  C14 UNL     1      13.244   3.442  20.462  0.00  0.00    +0.126 A 
BRANCH  24  25
ATOM     25  N5  UNL     1      13.965   3.993  19.353  0.00  0.00    -0.343 N 
ATOM     26  H18 UNL     1      13.807   3.663  18.376  0.00  0.00    +0.144 HD
ATOM     27  H19 UNL     1      14.631   4.783  19.494  0.00  0.00    +0.144 HD
ENDBRANCH  24  25
ENDBRANCH  16  19
ENDBRANCH   6  15
TORSDOF 4
ENDMDL
MODEL 8
REMARK VINA RESULT:    -5.735     18.500     21.245
REMARK INTER + INTRA:          -7.393
REMARK INTER:                  -6.725
REMARK INTRA:                  -0.668
REMARK UNBOUND:                -0.484
REMARK  Name = /home/qwerty/github/datacon2025hack/step_04_hit_selection/docking/ligands/lig_209.pdb
REMARK  5 active torsions:
REMARK  status: ('A' for Active; 'I' for Inactive)
REMARK    1  A    between atoms: C5_5  and  C6_6
REMARK    2  A    between atoms: C9_11  and  N2_12
REMARK    3  A    between atoms: C10_13  and  C11_15
REMARK    4  A    between atoms: N4_18  and  C13_19
REMARK    5  A    between atoms: C14_20  and  N5_21
REMARK                            x       y       z     vdW  Elec       q    Type
REMARK                         _______ _______ _______ _____ _____    ______ ____
ROOT
ATOM      1  C6  UNL     1       8.403  -0.201  35.436  0.00  0.00    +0.219 C 
ATOM      2  O1  UNL     1       8.774  -0.961  36.374  0.00  0.00    -0.275 OA
ATOM      3  N1  UNL     1       7.979  -0.780  34.187  0.00  0.00    -0.299 N 
ATOM      4  C7  UNL     1       8.004  -2.214  33.943  0.00  0.00    +0.109 C 
ATOM      5  C8  UNL     1       7.768  -2.383  32.448  0.00  0.00    +0.043 C 
ATOM      6  C9  UNL     1       7.142  -1.063  31.982  0.00  0.00    +0.092 C 
ATOM      7  C15 UNL     1       7.555  -0.021  33.021  0.00  0.00    +0.130 C 
ENDROOT
BRANCH   1  12
ATOM      8  C1  UNL     1      10.125   4.203  38.350  0.00  0.00    +0.007 C 
ATOM      9  C2  UNL     1       9.725   3.204  37.548  0.00  0.00    -0.077 C 
ATOM     10  C3  UNL     1      10.225   3.129  36.124  0.00  0.00    +0.031 C 
ATOM     11  C4  UNL     1       9.984   1.732  35.537  0.00  0.00    +0.017 C 
ATOM     12  C5  UNL     1       8.500   1.300  35.628  0.00  0.00    +0.076 C 
ATOM     13  C16 UNL     1       7.798   1.750  36.945  0.00  0.00    +0.017 C 
ATOM     14  C17 UNL     1       8.784   2.135  38.056  0.00  0.00    +0.031 C 
ENDBRANCH   1  12
BRANCH   6  15
ATOM     15  N2  UNL     1       7.590  -0.677  30.639  0.00  0.00    -0.307 N 
ATOM     16  C10 UNL     1       6.724   0.019  29.727  0.00  0.00    +0.249 C 
ATOM     17  O2  UNL     1       5.534   0.263  30.062  0.00  0.00    -0.270 OA
ATOM     18  H13 UNL     1       8.599  -0.801  30.386  0.00  0.00    +0.149 HD
BRANCH  16  19
ATOM     19  C11 UNL     1       7.212   0.439  28.396  0.00  0.00    +0.095 A 
ATOM     20  C12 UNL     1       7.878  -0.348  27.465  0.00  0.00    +0.149 A 
ATOM     21  N3  UNL     1       8.138   0.378  26.358  0.00  0.00    -0.177 NA
ATOM     22  N4  UNL     1       7.661   1.599  26.551  0.00  0.00    -0.253 N 
ATOM     23  C13 UNL     1       7.772   2.674  25.572  0.00  0.00    +0.174 C 
ATOM     24  C14 UNL     1       7.094   1.673  27.771  0.00  0.00    +0.126 A 
BRANCH  24  25
ATOM     25  N5  UNL     1       6.515   2.865  28.317  0.00  0.00    -0.343 N 
ATOM     26  H18 UNL     1       5.863   2.836  29.131  0.00  0.00    +0.144 HD
ATOM     27  H19 UNL     1       6.777   3.801  27.941  0.00  0.00    +0.144 HD
ENDBRANCH  24  25
ENDBRANCH  16  19
ENDBRANCH   6  15
TORSDOF 4
ENDMDL
MODEL 9
REMARK VINA RESULT:    -5.726     11.705     13.382
REMARK INTER + INTRA:          -7.381
REMARK INTER:                  -6.792
REMARK INTRA:                  -0.589
REMARK UNBOUND:                -0.484
REMARK  Name = /home/qwerty/github/datacon2025hack/step_04_hit_selection/docking/ligands/lig_209.pdb
REMARK  5 active torsions:
REMARK  status: ('A' for Active; 'I' for Inactive)
REMARK    1  A    between atoms: C5_5  and  C6_6
REMARK    2  A    between atoms: C9_11  and  N2_12
REMARK    3  A    between atoms: C10_13  and  C11_15
REMARK    4  A    between atoms: N4_18  and  C13_19
REMARK    5  A    between atoms: C14_20  and  N5_21
REMARK                            x       y       z     vdW  Elec       q    Type
REMARK                         _______ _______ _______ _____ _____    ______ ____
ROOT
ATOM      1  C6  UNL     1       8.099  10.055  27.429  0.00  0.00    +0.219 C 
ATOM      2  O1  UNL     1       7.529  10.118  28.555  0.00  0.00    -0.275 OA
ATOM      3  N1  UNL     1       8.081   8.813  26.701  0.00  0.00    -0.299 N 
ATOM      4  C7  UNL     1       7.469   7.605  27.232  0.00  0.00    +0.109 C 
ATOM      5  C8  UNL     1       7.914   6.477  26.310  0.00  0.00    +0.043 C 
ATOM      6  C9  UNL     1       8.370   7.162  25.017  0.00  0.00    +0.092 C 
ATOM      7  C15 UNL     1       8.719   8.597  25.411  0.00  0.00    +0.130 C 
ENDROOT
BRANCH   1  12
ATOM      8  C1  UNL     1      11.317  14.485  28.362  0.00  0.00    +0.007 C 
ATOM      9  C2  UNL     1      10.595  13.403  28.032  0.00  0.00    -0.077 C 
ATOM     10  C3  UNL     1      11.163  12.372  27.084  0.00  0.00    +0.031 C 
ATOM     11  C4  UNL     1      10.372  11.061  27.170  0.00  0.00    +0.017 C 
ATOM     12  C5  UNL     1       8.857  11.267  26.923  0.00  0.00    +0.076 C 
ATOM     13  C16 UNL     1       8.298  12.584  27.540  0.00  0.00    +0.017 C 
ATOM     14  C17 UNL     1       9.214  13.190  28.611  0.00  0.00    +0.031 C 
ENDBRANCH   1  12
BRANCH   6  15
ATOM     15  N2  UNL     1       9.520   6.487  24.405  0.00  0.00    -0.307 N 
ATOM     16  C10 UNL     1       9.437   5.893  23.099  0.00  0.00    +0.249 C 
ATOM     17  O2  UNL     1       8.340   5.903  22.479  0.00  0.00    -0.270 OA
ATOM     18  H13 UNL     1      10.454   6.549  24.876  0.00  0.00    +0.149 HD
BRANCH  16  19
ATOM     19  C11 UNL     1      10.622   5.258  22.482  0.00  0.00    +0.095 A 
ATOM     20  C12 UNL     1      11.801   4.895  23.121  0.00  0.00    +0.149 A 
ATOM     21  N3  UNL     1      12.640   4.320  22.235  0.00  0.00    -0.177 NA
ATOM     22  N4  UNL     1      12.037   4.302  21.056  0.00  0.00    -0.253 N 
ATOM     23  C13 UNL     1      12.647   3.768  19.843  0.00  0.00    +0.174 C 
ATOM     24  C14 UNL     1      10.816   4.862  21.167  0.00  0.00    +0.126 A 
BRANCH  24  25
ATOM     25  N5  UNL     1       9.911   5.039  20.069  0.00  0.00    -0.343 N 
ATOM     26  H18 UNL     1       9.995   5.847  19.413  0.00  0.00    +0.144 HD
ATOM     27  H19 UNL     1       9.175   4.329  19.868  0.00  0.00    +0.144 HD
ENDBRANCH  24  25
ENDBRANCH  16  19
ENDBRANCH   6  15
TORSDOF 4
ENDMDL
