REMARK  Name = /home/qwerty/github/datacon2025hack/step_04_hit_selection/docking/ligands/lig_124.pdb
REMARK  6 active torsions:
REMARK  status: ('A' for Active; 'I' for Inactive)
REMARK    1  A    between atoms: C1_1  and  C2_2
REMARK    2  A    between atoms: C3_3  and  N1_4
REMARK    3  A    between atoms: C4_5  and  C5_7
REMARK    4  A    between atoms: C8_10  and  C9_11
REMARK    5  A    between atoms: C8_10  and  C10_12
REMARK    6  A    between atoms: C15_18  and  C16_20
REMARK                            x       y       z     vdW  Elec       q    Type
REMARK                         _______ _______ _______ _____ _____    ______ ____
ROOT
ATOM      1  N1  UNL     1      -0.665   0.407  -0.969  0.00  0.00    -0.310 N 
ATOM      2  C4  UNL     1       0.432  -0.129  -0.214  0.00  0.00    +0.216 C 
ATOM      3  O1  UNL     1       0.358  -0.188   1.043  0.00  0.00    -0.276 OA
ATOM      4  H6  UNL     1      -0.549   0.525  -2.001  0.00  0.00    +0.149 HD
ENDROOT
BRANCH   1   7
ATOM      5  C1  UNL     1      -2.666  -1.570  -0.597  0.00  0.00    +0.030 C 
ATOM      6  C2  UNL     1      -2.787  -0.265   0.210  0.00  0.00    +0.093 C 
ATOM      7  C3  UNL     1      -1.895   0.874  -0.317  0.00  0.00    +0.095 C 
ATOM      8  C13 UNL     1      -2.795   1.669  -1.264  0.00  0.00    +0.043 C 
ATOM      9  C14 UNL     1      -4.204   1.468  -0.720  0.00  0.00    +0.110 C 
ATOM     10  N2  UNL     1      -4.144   0.258   0.090  0.00  0.00    -0.292 N 
ATOM     11  C15 UNL     1      -5.266  -0.289   0.810  0.00  0.00    +0.282 C 
ATOM     12  O2  UNL     1      -5.089  -1.252   1.604  0.00  0.00    -0.269 OA
BRANCH  11  13
ATOM     13  C16 UNL     1      -6.653   0.260   0.641  0.00  0.00    +0.426 C 
ATOM     14  F1  UNL     1      -6.695   1.579   1.051  0.00  0.00    -0.199 F 
ATOM     15  F2  UNL     1      -7.040   0.170  -0.683  0.00  0.00    -0.199 F 
ENDBRANCH  11  13
ENDBRANCH   1   7
BRANCH   2  16
ATOM     16  C5  UNL     1       1.689  -0.569  -0.933  0.00  0.00    +0.075 C 
ATOM     17  C6  UNL     1       2.631   0.620  -1.186  0.00  0.00    +0.013 C 
ATOM     18  C7  UNL     1       3.374   1.056   0.085  0.00  0.00    +0.007 C 
ATOM     19  C8  UNL     1       4.164  -0.102   0.753  0.00  0.00    -0.035 C 
ATOM     20  C9  UNL     1       4.711   0.396   2.108  0.00  0.00    +0.011 C 
ATOM     21  C10 UNL     1       5.368  -0.525  -0.120  0.00  0.00    +0.011 C 
ATOM     22  C11 UNL     1       3.224  -1.310   1.009  0.00  0.00    +0.007 C 
ATOM     23  C12 UNL     1       2.420  -1.738  -0.234  0.00  0.00    +0.013 C 
ENDBRANCH   2  16
TORSDOF 3
