MODEL 1
REMARK VINA RESULT:    -6.138      0.000      0.000
REMARK INTER + INTRA:         -10.014
REMARK INTER:                  -8.292
REMARK INTRA:                  -1.723
REMARK UNBOUND:                -1.723
REMARK  Name = /home/qwerty/github/datacon2025hack/step_04_hit_selection/docking/ligands/lig_79.pdb
REMARK  9 active torsions:
REMARK  status: ('A' for Active; 'I' for Inactive)
REMARK    1  A    between atoms: C1_1  and  O1_2
REMARK    2  A    between atoms: O1_2  and  C2_3
REMARK    3  A    between atoms: C2_3  and  C3_4
REMARK    4  A    between atoms: C6_10  and  C7_11
REMARK    5  A    between atoms: N5_16  and  C11_17
REMARK    6  A    between atoms: C11_17  and  C12_18
REMARK    7  A    between atoms: C12_18  and  C13_19
REMARK    8  A    between atoms: C12_18  and  C14_20
REMARK    9  A    between atoms: C21_28  and  C22_29
REMARK                            x       y       z     vdW  Elec       q    Type
REMARK                         _______ _______ _______ _____ _____    ______ ____
ROOT
ATOM      1  C3  UNL     1      21.664   7.046  35.379  0.00  0.00    +0.161 C 
ATOM      2  C4  UNL     1      21.790   8.577  35.613  0.00  0.00    +0.142 C 
ATOM      3  N1  UNL     1      20.460   9.166  35.775  0.00  0.00    -0.295 N 
ATOM      4  C5  UNL     1      20.177  10.475  35.268  0.00  0.00    +0.220 A 
ATOM      5  N2  UNL     1      19.785  11.497  36.050  0.00  0.00    -0.113 NA
ATOM      6  N3  UNL     1      19.539  12.519  35.244  0.00  0.00    -0.126 NA
ATOM      7  C6  UNL     1      19.784  12.105  33.984  0.00  0.00    +0.182 A 
ATOM      8  N5  UNL     1      20.179  10.809  33.958  0.00  0.00    -0.294 N 
ATOM      9  C20 UNL     1      19.516   8.530  36.695  0.00  0.00    +0.139 C 
ATOM     10  C21 UNL     1      20.024   7.130  37.081  0.00  0.00    +0.133 C 
ATOM     11  C22 UNL     1      18.911   6.308  37.727  0.00  0.00    +0.039 C 
ATOM     12  O2  UNL     1      20.483   6.457  35.922  0.00  0.00    -0.368 OA
ENDROOT
BRANCH   7  13
ATOM     13  C7  UNL     1      19.536  12.968  32.813  0.00  0.00    +0.084 A 
ATOM     14  C8  UNL     1      18.349  13.101  32.114  0.00  0.00    +0.031 A 
ATOM     15  C9  UNL     1      18.604  13.981  31.081  0.00  0.00    +0.020 A 
ATOM     16  C10 UNL     1      19.934  14.337  31.184  0.00  0.00    +0.083 A 
ATOM     17  N4  UNL     1      20.497  13.712  32.233  0.00  0.00    -0.358 N 
ATOM     18  H12 UNL     1      21.493  13.796  32.536  0.00  0.00    +0.165 HD
ENDBRANCH   7  13
BRANCH   1  19
ATOM     19  C2  UNL     1      22.901   6.289  35.876  0.00  0.00    +0.192 C 
BRANCH  19  21
ATOM     20  C1  UNL     1      23.428   6.500  38.109  0.00  0.00    +0.194 C 
ATOM     21  O1  UNL     1      23.585   7.074  36.831  0.00  0.00    -0.380 OA
ENDBRANCH  19  21
ENDBRANCH   1  19
BRANCH   8  22
ATOM     22  C11 UNL     1      20.274   9.895  32.811  0.00  0.00    +0.134 C 
BRANCH  22  23
ATOM     23  C12 UNL     1      21.535  10.169  31.967  0.00  0.00    +0.036 C 
ATOM     24  C13 UNL     1      21.199  10.359  30.481  0.00  0.00    +0.014 C 
BRANCH  23  25
ATOM     25  C14 UNL     1      22.546   9.053  32.154  0.00  0.00    -0.043 A 
ATOM     26  C15 UNL     1      23.824   9.311  32.688  0.00  0.00    +0.007 A 
ATOM     27  C16 UNL     1      24.751   8.275  32.839  0.00  0.00    +0.038 A 
ATOM     28  C17 UNL     1      24.417   6.975  32.457  0.00  0.00    +0.123 A 
ATOM     29  F1  UNL     1      25.317   5.972  32.603  0.00  0.00    -0.205 F 
ATOM     30  C18 UNL     1      23.155   6.707  31.918  0.00  0.00    +0.038 A 
ATOM     31  C19 UNL     1      22.225   7.740  31.765  0.00  0.00    +0.007 A 
ENDBRANCH  23  25
ENDBRANCH  22  23
ENDBRANCH   8  22
TORSDOF 6
ENDMDL
MODEL 2
REMARK VINA RESULT:    -5.797     15.142     17.560
REMARK INTER + INTRA:          -9.554
REMARK INTER:                  -7.815
REMARK INTRA:                  -1.738
REMARK UNBOUND:                -1.723
REMARK  Name = /home/qwerty/github/datacon2025hack/step_04_hit_selection/docking/ligands/lig_79.pdb
REMARK  9 active torsions:
REMARK  status: ('A' for Active; 'I' for Inactive)
REMARK    1  A    between atoms: C1_1  and  O1_2
REMARK    2  A    between atoms: O1_2  and  C2_3
REMARK    3  A    between atoms: C2_3  and  C3_4
REMARK    4  A    between atoms: C6_10  and  C7_11
REMARK    5  A    between atoms: N5_16  and  C11_17
REMARK    6  A    between atoms: C11_17  and  C12_18
REMARK    7  A    between atoms: C12_18  and  C13_19
REMARK    8  A    between atoms: C12_18  and  C14_20
REMARK    9  A    between atoms: C21_28  and  C22_29
REMARK                            x       y       z     vdW  Elec       q    Type
REMARK                         _______ _______ _______ _____ _____    ______ ____
ROOT
ATOM      1  C3  UNL     1       8.712   6.602  22.018  0.00  0.00    +0.161 C 
ATOM      2  C4  UNL     1       9.624   6.043  20.891  0.00  0.00    +0.142 C 
ATOM      3  N1  UNL     1      10.439   4.945  21.409  0.00  0.00    -0.295 N 
ATOM      4  C5  UNL     1      11.782   4.754  20.948  0.00  0.00    +0.220 A 
ATOM      5  N2  UNL     1      12.195   3.632  20.331  0.00  0.00    -0.113 NA
ATOM      6  N3  UNL     1      13.494   3.771  20.121  0.00  0.00    -0.126 NA
ATOM      7  C6  UNL     1      13.855   4.974  20.612  0.00  0.00    +0.182 A 
ATOM      8  N5  UNL     1      12.796   5.623  21.156  0.00  0.00    -0.294 N 
ATOM      9  C20 UNL     1       9.786   3.888  22.183  0.00  0.00    +0.139 C 
ATOM     10  C21 UNL     1       8.368   4.331  22.582  0.00  0.00    +0.133 C 
ATOM     11  C22 UNL     1       7.807   3.430  23.679  0.00  0.00    +0.039 C 
ATOM     12  O2  UNL     1       8.404   5.667  23.051  0.00  0.00    -0.368 OA
ENDROOT
BRANCH   7  13
ATOM     13  C7  UNL     1      15.258   5.430  20.618  0.00  0.00    +0.084 A 
ATOM     14  C8  UNL     1      16.157   5.339  21.668  0.00  0.00    +0.031 A 
ATOM     15  C9  UNL     1      17.326   5.929  21.228  0.00  0.00    +0.020 A 
ATOM     16  C10 UNL     1      17.089   6.364  19.940  0.00  0.00    +0.083 A 
ATOM     17  N4  UNL     1      15.829   6.066  19.578  0.00  0.00    -0.358 N 
ATOM     18  H12 UNL     1      15.385   6.287  18.659  0.00  0.00    +0.165 HD
ENDBRANCH   7  13
BRANCH   1  19
ATOM     19  C2  UNL     1       7.419   7.208  21.460  0.00  0.00    +0.192 C 
BRANCH  19  21
ATOM     20  C1  UNL     1       5.640   6.185  20.416  0.00  0.00    +0.194 C 
ATOM     21  O1  UNL     1       7.013   6.486  20.316  0.00  0.00    -0.380 OA
ENDBRANCH  19  21
ENDBRANCH   1  19
BRANCH   8  22
ATOM     22  C11 UNL     1      12.787   6.803  22.032  0.00  0.00    +0.134 C 
BRANCH  22  23
ATOM     23  C12 UNL     1      13.027   8.103  21.238  0.00  0.00    +0.036 C 
ATOM     24  C13 UNL     1      14.220   8.898  21.789  0.00  0.00    +0.014 C 
BRANCH  23  25
ATOM     25  C14 UNL     1      11.770   8.952  21.228  0.00  0.00    -0.043 A 
ATOM     26  C15 UNL     1      11.152   9.352  22.429  0.00  0.00    +0.007 A 
ATOM     27  C16 UNL     1       9.984  10.121  22.404  0.00  0.00    +0.038 A 
ATOM     28  C17 UNL     1       9.417  10.493  21.183  0.00  0.00    +0.123 A 
ATOM     29  F1  UNL     1       8.284  11.237  21.160  0.00  0.00    -0.205 F 
ATOM     30  C18 UNL     1      10.016  10.095  19.984  0.00  0.00    +0.038 A 
ATOM     31  C19 UNL     1      11.183   9.327  20.005  0.00  0.00    +0.007 A 
ENDBRANCH  23  25
ENDBRANCH  22  23
ENDBRANCH   8  22
TORSDOF 6
ENDMDL
MODEL 3
REMARK VINA RESULT:    -5.765      6.539     10.090
REMARK INTER + INTRA:          -9.510
REMARK INTER:                  -7.767
REMARK INTRA:                  -1.743
REMARK UNBOUND:                -1.723
REMARK  Name = /home/qwerty/github/datacon2025hack/step_04_hit_selection/docking/ligands/lig_79.pdb
REMARK  9 active torsions:
REMARK  status: ('A' for Active; 'I' for Inactive)
REMARK    1  A    between atoms: C1_1  and  O1_2
REMARK    2  A    between atoms: O1_2  and  C2_3
REMARK    3  A    between atoms: C2_3  and  C3_4
REMARK    4  A    between atoms: C6_10  and  C7_11
REMARK    5  A    between atoms: N5_16  and  C11_17
REMARK    6  A    between atoms: C11_17  and  C12_18
REMARK    7  A    between atoms: C12_18  and  C13_19
REMARK    8  A    between atoms: C12_18  and  C14_20
REMARK    9  A    between atoms: C21_28  and  C22_29
REMARK                            x       y       z     vdW  Elec       q    Type
REMARK                         _______ _______ _______ _____ _____    ______ ____
ROOT
ATOM      1  C3  UNL     1      14.761  13.466  35.225  0.00  0.00    +0.161 C 
ATOM      2  C4  UNL     1      15.235  12.679  36.479  0.00  0.00    +0.142 C 
ATOM      3  N1  UNL     1      16.440  11.915  36.159  0.00  0.00    -0.295 N 
ATOM      4  C5  UNL     1      16.661  10.625  36.743  0.00  0.00    +0.220 A 
ATOM      5  N2  UNL     1      17.722  10.341  37.518  0.00  0.00    -0.113 NA
ATOM      6  N3  UNL     1      17.644   9.052  37.811  0.00  0.00    -0.126 NA
ATOM      7  C6  UNL     1      16.538   8.570  37.211  0.00  0.00    +0.182 A 
ATOM      8  N5  UNL     1      15.893   9.537  36.513  0.00  0.00    -0.294 N 
ATOM      9  C20 UNL     1      17.540  12.590  35.468  0.00  0.00    +0.139 C 
ATOM     10  C21 UNL     1      17.057  13.940  34.910  0.00  0.00    +0.133 C 
ATOM     11  C22 UNL     1      18.047  14.490  33.886  0.00  0.00    +0.039 C 
ATOM     12  O2  UNL     1      15.794  13.772  34.290  0.00  0.00    -0.368 OA
ENDROOT
BRANCH   7  13
ATOM     13  C7  UNL     1      16.180   7.139  37.260  0.00  0.00    +0.084 A 
ATOM     14  C8  UNL     1      16.486   6.173  36.317  0.00  0.00    +0.031 A 
ATOM     15  C9  UNL     1      15.914   4.999  36.765  0.00  0.00    +0.020 A 
ATOM     16  C10 UNL     1      15.274   5.299  37.951  0.00  0.00    +0.083 A 
ATOM     17  N4  UNL     1      15.432   6.602  38.242  0.00  0.00    -0.358 N 
ATOM     18  H12 UNL     1      15.045   7.097  39.076  0.00  0.00    +0.165 HD
ENDBRANCH   7  13
BRANCH   1  19
ATOM     19  C2  UNL     1      14.006  14.746  35.605  0.00  0.00    +0.192 C 
BRANCH  19  21
ATOM     20  C1  UNL     1      14.838  16.669  36.562  0.00  0.00    +0.194 C 
ATOM     21  O1  UNL     1      14.574  15.301  36.774  0.00  0.00    -0.380 OA
ENDBRANCH  19  21
ENDBRANCH   1  19
BRANCH   8  22
ATOM     22  C11 UNL     1      14.832   9.397  35.505  0.00  0.00    +0.134 C 
BRANCH  22  23
ATOM     23  C12 UNL     1      13.459   9.133  36.156  0.00  0.00    +0.036 C 
ATOM     24  C13 UNL     1      12.805   7.855  35.614  0.00  0.00    +0.014 C 
BRANCH  23  25
ATOM     25  C14 UNL     1      12.548  10.331  35.965  0.00  0.00    -0.043 A 
ATOM     26  C15 UNL     1      12.205  10.786  34.676  0.00  0.00    +0.007 A 
ATOM     27  C16 UNL     1      11.378  11.901  34.515  0.00  0.00    +0.038 A 
ATOM     28  C17 UNL     1      10.888  12.578  35.634  0.00  0.00    +0.123 A 
ATOM     29  F1  UNL     1      10.088  13.660  35.477  0.00  0.00    -0.205 F 
ATOM     30  C18 UNL     1      11.228  12.142  36.918  0.00  0.00    +0.038 A 
ATOM     31  C19 UNL     1      12.055  11.027  37.084  0.00  0.00    +0.007 A 
ENDBRANCH  23  25
ENDBRANCH  22  23
ENDBRANCH   8  22
TORSDOF 6
ENDMDL
MODEL 4
REMARK VINA RESULT:    -5.731     13.952     16.259
REMARK INTER + INTRA:          -9.464
REMARK INTER:                  -7.679
REMARK INTRA:                  -1.785
REMARK UNBOUND:                -1.723
REMARK  Name = /home/qwerty/github/datacon2025hack/step_04_hit_selection/docking/ligands/lig_79.pdb
REMARK  9 active torsions:
REMARK  status: ('A' for Active; 'I' for Inactive)
REMARK    1  A    between atoms: C1_1  and  O1_2
REMARK    2  A    between atoms: O1_2  and  C2_3
REMARK    3  A    between atoms: C2_3  and  C3_4
REMARK    4  A    between atoms: C6_10  and  C7_11
REMARK    5  A    between atoms: N5_16  and  C11_17
REMARK    6  A    between atoms: C11_17  and  C12_18
REMARK    7  A    between atoms: C12_18  and  C13_19
REMARK    8  A    between atoms: C12_18  and  C14_20
REMARK    9  A    between atoms: C21_28  and  C22_29
REMARK                            x       y       z     vdW  Elec       q    Type
REMARK                         _______ _______ _______ _____ _____    ______ ____
ROOT
ATOM      1  C3  UNL     1      10.028   7.751  21.863  0.00  0.00    +0.161 C 
ATOM      2  C4  UNL     1      10.224   7.092  23.257  0.00  0.00    +0.142 C 
ATOM      3  N1  UNL     1       8.932   6.657  23.788  0.00  0.00    -0.295 N 
ATOM      4  C5  UNL     1       8.658   6.737  25.192  0.00  0.00    +0.220 A 
ATOM      5  N2  UNL     1       8.362   5.662  25.944  0.00  0.00    -0.113 NA
ATOM      6  N3  UNL     1       8.093   6.112  27.160  0.00  0.00    -0.126 NA
ATOM      7  C6  UNL     1       8.230   7.453  27.131  0.00  0.00    +0.182 A 
ATOM      8  N5  UNL     1       8.576   7.888  25.895  0.00  0.00    -0.294 N 
ATOM      9  C20 UNL     1       8.037   5.890  22.921  0.00  0.00    +0.139 C 
ATOM     10  C21 UNL     1       8.521   5.972  21.464  0.00  0.00    +0.133 C 
ATOM     11  C22 UNL     1       7.431   5.505  20.503  0.00  0.00    +0.039 C 
ATOM     12  O2  UNL     1       8.870   7.309  21.155  0.00  0.00    -0.368 OA
ENDROOT
BRANCH   7  13
ATOM     13  C7  UNL     1       7.927   8.298  28.303  0.00  0.00    +0.084 A 
ATOM     14  C8  UNL     1       8.765   8.566  29.372  0.00  0.00    +0.031 A 
ATOM     15  C9  UNL     1       8.042   9.362  30.239  0.00  0.00    +0.020 A 
ATOM     16  C10 UNL     1       6.796   9.536  29.672  0.00  0.00    +0.083 A 
ATOM     17  N4  UNL     1       6.729   8.879  28.500  0.00  0.00    -0.358 N 
ATOM     18  H12 UNL     1       5.900   8.836  27.866  0.00  0.00    +0.165 HD
ENDBRANCH   7  13
BRANCH   1  19
ATOM     19  C2  UNL     1      11.271   7.597  20.979  0.00  0.00    +0.192 C 
BRANCH  19  21
ATOM     20  C1  UNL     1      11.613   9.781  20.330  0.00  0.00    +0.194 C 
ATOM     21  O1  UNL     1      11.198   8.505  19.899  0.00  0.00    -0.380 OA
ENDBRANCH  19  21
ENDBRANCH   1  19
BRANCH   8  22
ATOM     22  C11 UNL     1       8.553   9.255  25.357  0.00  0.00    +0.134 C 
BRANCH  22  23
ATOM     23  C12 UNL     1       9.855  10.017  25.682  0.00  0.00    +0.036 C 
ATOM     24  C13 UNL     1      11.005   9.062  26.029  0.00  0.00    +0.014 C 
BRANCH  23  25
ATOM     25  C14 UNL     1       9.616  11.008  26.807  0.00  0.00    -0.043 A 
ATOM     26  C15 UNL     1       8.376  11.661  26.950  0.00  0.00    +0.007 A 
ATOM     27  C16 UNL     1       8.177  12.584  27.982  0.00  0.00    +0.038 A 
ATOM     28  C17 UNL     1       9.211  12.870  28.875  0.00  0.00    +0.123 A 
ATOM     29  F1  UNL     1       9.017  13.767  29.874  0.00  0.00    -0.205 F 
ATOM     30  C18 UNL     1      10.449  12.235  28.738  0.00  0.00    +0.038 A 
ATOM     31  C19 UNL     1      10.653  11.311  27.709  0.00  0.00    +0.007 A 
ENDBRANCH  23  25
ENDBRANCH  22  23
ENDBRANCH   8  22
TORSDOF 6
ENDMDL
MODEL 5
REMARK VINA RESULT:    -5.700     11.524     14.458
REMARK INTER + INTRA:          -9.422
REMARK INTER:                  -7.662
REMARK INTRA:                  -1.760
REMARK UNBOUND:                -1.723
REMARK  Name = /home/qwerty/github/datacon2025hack/step_04_hit_selection/docking/ligands/lig_79.pdb
REMARK  9 active torsions:
REMARK  status: ('A' for Active; 'I' for Inactive)
REMARK    1  A    between atoms: C1_1  and  O1_2
REMARK    2  A    between atoms: O1_2  and  C2_3
REMARK    3  A    between atoms: C2_3  and  C3_4
REMARK    4  A    between atoms: C6_10  and  C7_11
REMARK    5  A    between atoms: N5_16  and  C11_17
REMARK    6  A    between atoms: C11_17  and  C12_18
REMARK    7  A    between atoms: C12_18  and  C13_19
REMARK    8  A    between atoms: C12_18  and  C14_20
REMARK    9  A    between atoms: C21_28  and  C22_29
REMARK                            x       y       z     vdW  Elec       q    Type
REMARK                         _______ _______ _______ _____ _____    ______ ____
ROOT
ATOM      1  C3  UNL     1      18.720   9.421  19.722  0.00  0.00    +0.161 C 
ATOM      2  C4  UNL     1      19.539  10.593  19.113  0.00  0.00    +0.142 C 
ATOM      3  N1  UNL     1      20.968  10.287  19.177  0.00  0.00    -0.295 N 
ATOM      4  C5  UNL     1      21.924  11.326  19.422  0.00  0.00    +0.220 A 
ATOM      5  N2  UNL     1      22.904  11.641  18.556  0.00  0.00    -0.113 NA
ATOM      6  N3  UNL     1      23.636  12.579  19.137  0.00  0.00    -0.126 NA
ATOM      7  C6  UNL     1      23.093  12.822  20.347  0.00  0.00    +0.182 A 
ATOM      8  N5  UNL     1      22.010  12.037  20.568  0.00  0.00    -0.294 N 
ATOM      9  C20 UNL     1      21.429   8.977  18.716  0.00  0.00    +0.139 C 
ATOM     10  C21 UNL     1      20.230   8.029  18.548  0.00  0.00    +0.133 C 
ATOM     11  C22 UNL     1      20.696   6.580  18.430  0.00  0.00    +0.039 C 
ATOM     12  O2  UNL     1      19.369   8.151  19.666  0.00  0.00    -0.368 OA
ENDROOT
BRANCH   7  13
ATOM     13  C7  UNL     1      23.703  13.763  21.306  0.00  0.00    +0.084 A 
ATOM     14  C8  UNL     1      23.657  15.145  21.258  0.00  0.00    +0.031 A 
ATOM     15  C9  UNL     1      24.397  15.595  22.333  0.00  0.00    +0.020 A 
ATOM     16  C10 UNL     1      24.873  14.473  22.983  0.00  0.00    +0.083 A 
ATOM     17  N4  UNL     1      24.455  13.364  22.349  0.00  0.00    -0.358 N 
ATOM     18  H12 UNL     1      24.675  12.380  22.622  0.00  0.00    +0.165 HD
ENDBRANCH   7  13
BRANCH   1  19
ATOM     19  C2  UNL     1      17.321   9.319  19.105  0.00  0.00    +0.192 C 
BRANCH  19  21
ATOM     20  C1  UNL     1      15.974  11.188  19.057  0.00  0.00    +0.194 C 
ATOM     21  O1  UNL     1      16.416  10.109  19.849  0.00  0.00    -0.380 OA
ENDBRANCH  19  21
ENDBRANCH   1  19
BRANCH   8  22
ATOM     22  C11 UNL     1      21.303  11.774  21.829  0.00  0.00    +0.134 C 
BRANCH  22  23
ATOM     23  C12 UNL     1      20.296  12.894  22.162  0.00  0.00    +0.036 C 
ATOM     24  C13 UNL     1      19.945  13.733  20.925  0.00  0.00    +0.014 C 
BRANCH  23  25
ATOM     25  C14 UNL     1      20.836  13.772  23.275  0.00  0.00    -0.043 A 
ATOM     26  C15 UNL     1      20.648  15.169  23.257  0.00  0.00    +0.007 A 
ATOM     27  C16 UNL     1      21.166  15.966  24.282  0.00  0.00    +0.038 A 
ATOM     28  C17 UNL     1      21.880  15.384  25.331  0.00  0.00    +0.123 A 
ATOM     29  F1  UNL     1      22.383  16.159  26.323  0.00  0.00    -0.205 F 
ATOM     30  C18 UNL     1      22.081  14.000  25.356  0.00  0.00    +0.038 A 
ATOM     31  C19 UNL     1      21.564  13.199  24.334  0.00  0.00    +0.007 A 
ENDBRANCH  23  25
ENDBRANCH  22  23
ENDBRANCH   8  22
TORSDOF 6
ENDMDL
MODEL 6
REMARK VINA RESULT:    -5.696      9.954     11.779
REMARK INTER + INTRA:          -9.417
REMARK INTER:                  -7.877
REMARK INTRA:                  -1.540
REMARK UNBOUND:                -1.723
REMARK  Name = /home/qwerty/github/datacon2025hack/step_04_hit_selection/docking/ligands/lig_79.pdb
REMARK  9 active torsions:
REMARK  status: ('A' for Active; 'I' for Inactive)
REMARK    1  A    between atoms: C1_1  and  O1_2
REMARK    2  A    between atoms: O1_2  and  C2_3
REMARK    3  A    between atoms: C2_3  and  C3_4
REMARK    4  A    between atoms: C6_10  and  C7_11
REMARK    5  A    between atoms: N5_16  and  C11_17
REMARK    6  A    between atoms: C11_17  and  C12_18
REMARK    7  A    between atoms: C12_18  and  C13_19
REMARK    8  A    between atoms: C12_18  and  C14_20
REMARK    9  A    between atoms: C21_28  and  C22_29
REMARK                            x       y       z     vdW  Elec       q    Type
REMARK                         _______ _______ _______ _____ _____    ______ ____
ROOT
ATOM      1  C3  UNL     1      21.812   0.305  28.477  0.00  0.00    +0.161 C 
ATOM      2  C4  UNL     1      22.454   1.515  27.742  0.00  0.00    +0.142 C 
ATOM      3  N1  UNL     1      21.542   2.658  27.777  0.00  0.00    -0.295 N 
ATOM      4  C5  UNL     1      21.458   3.557  26.664  0.00  0.00    +0.220 A 
ATOM      5  N2  UNL     1      21.738   4.869  26.756  0.00  0.00    -0.113 NA
ATOM      6  N3  UNL     1      21.479   5.397  25.570  0.00  0.00    -0.126 NA
ATOM      7  C6  UNL     1      21.046   4.399  24.772  0.00  0.00    +0.182 A 
ATOM      8  N5  UNL     1      21.008   3.218  25.435  0.00  0.00    -0.294 N 
ATOM      9  C20 UNL     1      20.931   3.033  29.053  0.00  0.00    +0.139 C 
ATOM     10  C21 UNL     1      21.131   1.905  30.080  0.00  0.00    +0.133 C 
ATOM     11  C22 UNL     1      20.207   2.095  31.281  0.00  0.00    +0.039 C 
ATOM     12  O2  UNL     1      20.853   0.657  29.473  0.00  0.00    -0.368 OA
ENDROOT
BRANCH   7  13
ATOM     13  C7  UNL     1      20.590   4.643  23.390  0.00  0.00    +0.084 A 
ATOM     14  C8  UNL     1      19.319   5.018  22.988  0.00  0.00    +0.031 A 
ATOM     15  C9  UNL     1      19.353   5.086  21.610  0.00  0.00    +0.020 A 
ATOM     16  C10 UNL     1      20.634   4.739  21.228  0.00  0.00    +0.083 A 
ATOM     17  N4  UNL     1      21.378   4.462  22.313  0.00  0.00    -0.358 N 
ATOM     18  H12 UNL     1      22.379   4.166  22.313  0.00  0.00    +0.165 HD
ENDBRANCH   7  13
BRANCH   1  19
ATOM     19  C2  UNL     1      22.872  -0.625  29.078  0.00  0.00    +0.192 C 
BRANCH  19  21
ATOM     20  C1  UNL     1      25.160  -0.829  29.254  0.00  0.00    +0.194 C 
ATOM     21  O1  UNL     1      24.083   0.082  29.245  0.00  0.00    -0.380 OA
ENDBRANCH  19  21
ENDBRANCH   1  19
BRANCH   8  22
ATOM     22  C11 UNL     1      20.350   1.962  25.047  0.00  0.00    +0.134 C 
BRANCH  22  23
ATOM     23  C12 UNL     1      18.846   1.977  25.391  0.00  0.00    +0.036 C 
ATOM     24  C13 UNL     1      18.557   1.265  26.721  0.00  0.00    +0.014 C 
BRANCH  23  25
ATOM     25  C14 UNL     1      18.042   1.362  24.262  0.00  0.00    -0.043 A 
ATOM     26  C15 UNL     1      18.078  -0.024  24.014  0.00  0.00    +0.007 A 
ATOM     27  C16 UNL     1      17.345  -0.575  22.958  0.00  0.00    +0.038 A 
ATOM     28  C17 UNL     1      16.573   0.250  22.136  0.00  0.00    +0.123 A 
ATOM     29  F1  UNL     1      15.864  -0.285  21.112  0.00  0.00    -0.205 F 
ATOM     30  C18 UNL     1      16.536   1.628  22.367  0.00  0.00    +0.038 A 
ATOM     31  C19 UNL     1      17.268   2.183  23.421  0.00  0.00    +0.007 A 
ENDBRANCH  23  25
ENDBRANCH  22  23
ENDBRANCH   8  22
TORSDOF 6
ENDMDL
MODEL 7
REMARK VINA RESULT:    -5.661      4.044      6.944
REMARK INTER + INTRA:          -9.369
REMARK INTER:                  -7.723
REMARK INTRA:                  -1.646
REMARK UNBOUND:                -1.723
REMARK  Name = /home/qwerty/github/datacon2025hack/step_04_hit_selection/docking/ligands/lig_79.pdb
REMARK  9 active torsions:
REMARK  status: ('A' for Active; 'I' for Inactive)
REMARK    1  A    between atoms: C1_1  and  O1_2
REMARK    2  A    between atoms: O1_2  and  C2_3
REMARK    3  A    between atoms: C2_3  and  C3_4
REMARK    4  A    between atoms: C6_10  and  C7_11
REMARK    5  A    between atoms: N5_16  and  C11_17
REMARK    6  A    between atoms: C11_17  and  C12_18
REMARK    7  A    between atoms: C12_18  and  C13_19
REMARK    8  A    between atoms: C12_18  and  C14_20
REMARK    9  A    between atoms: C21_28  and  C22_29
REMARK                            x       y       z     vdW  Elec       q    Type
REMARK                         _______ _______ _______ _____ _____    ______ ____
ROOT
ATOM      1  C3  UNL     1      14.853  12.544  34.442  0.00  0.00    +0.161 C 
ATOM      2  C4  UNL     1      15.054  11.433  35.510  0.00  0.00    +0.142 C 
ATOM      3  N1  UNL     1      16.118  11.820  36.436  0.00  0.00    -0.295 N 
ATOM      4  C5  UNL     1      17.007  10.834  36.977  0.00  0.00    +0.220 A 
ATOM      5  N2  UNL     1      17.121  10.593  38.295  0.00  0.00    -0.113 NA
ATOM      6  N3  UNL     1      18.079   9.689  38.434  0.00  0.00    -0.126 NA
ATOM      7  C6  UNL     1      18.534   9.393  37.200  0.00  0.00    +0.182 A 
ATOM      8  N5  UNL     1      17.885  10.110  36.249  0.00  0.00    -0.294 N 
ATOM      9  C20 UNL     1      16.092  13.163  37.018  0.00  0.00    +0.139 C 
ATOM     10  C21 UNL     1      15.084  14.042  36.258  0.00  0.00    +0.133 C 
ATOM     11  C22 UNL     1      15.295  15.518  36.588  0.00  0.00    +0.039 C 
ATOM     12  O2  UNL     1      15.244  13.850  34.864  0.00  0.00    -0.368 OA
ENDROOT
BRANCH   7  13
ATOM     13  C7  UNL     1      19.666   8.473  36.981  0.00  0.00    +0.084 A 
ATOM     14  C8  UNL     1      19.652   7.296  36.252  0.00  0.00    +0.031 A 
ATOM     15  C9  UNL     1      20.919   6.758  36.362  0.00  0.00    +0.020 A 
ATOM     16  C10 UNL     1      21.646   7.618  37.160  0.00  0.00    +0.083 A 
ATOM     17  N4  UNL     1      20.878   8.653  37.541  0.00  0.00    -0.358 N 
ATOM     18  H12 UNL     1      21.173   9.445  38.153  0.00  0.00    +0.165 HD
ENDBRANCH   7  13
BRANCH   1  19
ATOM     19  C2  UNL     1      13.415  12.575  33.913  0.00  0.00    +0.192 C 
BRANCH  19  21
ATOM     20  C1  UNL     1      11.645  12.887  35.354  0.00  0.00    +0.194 C 
ATOM     21  O1  UNL     1      12.556  11.943  34.839  0.00  0.00    -0.380 OA
ENDBRANCH  19  21
ENDBRANCH   1  19
BRANCH   8  22
ATOM     22  C11 UNL     1      18.243  10.308  34.838  0.00  0.00    +0.134 C 
BRANCH  22  23
ATOM     23  C12 UNL     1      19.447  11.261  34.684  0.00  0.00    +0.036 C 
ATOM     24  C13 UNL     1      19.005  12.684  34.313  0.00  0.00    +0.014 C 
BRANCH  23  25
ATOM     25  C14 UNL     1      20.424  10.713  33.662  0.00  0.00    -0.043 A 
ATOM     26  C15 UNL     1      20.297  11.025  32.294  0.00  0.00    +0.007 A 
ATOM     27  C16 UNL     1      21.196  10.499  31.361  0.00  0.00    +0.038 A 
ATOM     28  C17 UNL     1      22.226   9.654  31.779  0.00  0.00    +0.123 A 
ATOM     29  F1  UNL     1      23.095   9.143  30.873  0.00  0.00    -0.205 F 
ATOM     30  C18 UNL     1      22.357   9.330  33.133  0.00  0.00    +0.038 A 
ATOM     31  C19 UNL     1      21.461   9.854  34.069  0.00  0.00    +0.007 A 
ENDBRANCH  23  25
ENDBRANCH  22  23
ENDBRANCH   8  22
TORSDOF 6
ENDMDL
MODEL 8
REMARK VINA RESULT:    -5.650     15.728     17.729
REMARK INTER + INTRA:          -9.354
REMARK INTER:                  -7.966
REMARK INTRA:                  -1.388
REMARK UNBOUND:                -1.723
REMARK  Name = /home/qwerty/github/datacon2025hack/step_04_hit_selection/docking/ligands/lig_79.pdb
REMARK  9 active torsions:
REMARK  status: ('A' for Active; 'I' for Inactive)
REMARK    1  A    between atoms: C1_1  and  O1_2
REMARK    2  A    between atoms: O1_2  and  C2_3
REMARK    3  A    between atoms: C2_3  and  C3_4
REMARK    4  A    between atoms: C6_10  and  C7_11
REMARK    5  A    between atoms: N5_16  and  C11_17
REMARK    6  A    between atoms: C11_17  and  C12_18
REMARK    7  A    between atoms: C12_18  and  C13_19
REMARK    8  A    between atoms: C12_18  and  C14_20
REMARK    9  A    between atoms: C21_28  and  C22_29
REMARK                            x       y       z     vdW  Elec       q    Type
REMARK                         _______ _______ _______ _____ _____    ______ ____
ROOT
ATOM      1  C3  UNL     1       9.022   5.983  22.587  0.00  0.00    +0.161 C 
ATOM      2  C4  UNL     1       9.170   4.579  21.938  0.00  0.00    +0.142 C 
ATOM      3  N1  UNL     1       9.750   3.645  22.902  0.00  0.00    -0.295 N 
ATOM      4  C5  UNL     1      10.656   2.622  22.469  0.00  0.00    +0.220 A 
ATOM      5  N2  UNL     1      10.416   1.309  22.637  0.00  0.00    -0.113 NA
ATOM      6  N3  UNL     1      11.487   0.668  22.196  0.00  0.00    -0.126 NA
ATOM      7  C6  UNL     1      12.364   1.598  21.767  0.00  0.00    +0.182 A 
ATOM      8  N5  UNL     1      11.876   2.851  21.935  0.00  0.00    -0.294 N 
ATOM      9  C20 UNL     1       9.189   3.586  24.252  0.00  0.00    +0.139 C 
ATOM     10  C21 UNL     1       8.270   4.796  24.490  0.00  0.00    +0.133 C 
ATOM     11  C22 UNL     1       7.968   4.964  25.977  0.00  0.00    +0.039 C 
ATOM     12  O2  UNL     1       8.900   5.970  24.009  0.00  0.00    -0.368 OA
ENDROOT
BRANCH   7  13
ATOM     13  C7  UNL     1      13.710   1.240  21.280  0.00  0.00    +0.084 A 
ATOM     14  C8  UNL     1      14.892   1.278  22.000  0.00  0.00    +0.031 A 
ATOM     15  C9  UNL     1      15.891   0.900  21.124  0.00  0.00    +0.020 A 
ATOM     16  C10 UNL     1      15.281   0.660  19.909  0.00  0.00    +0.083 A 
ATOM     17  N4  UNL     1      13.958   0.877  20.007  0.00  0.00    -0.358 N 
ATOM     18  H12 UNL     1      13.260   0.778  19.237  0.00  0.00    +0.165 HD
ENDBRANCH   7  13
BRANCH   1  19
ATOM     19  C2  UNL     1       7.865   6.778  21.971  0.00  0.00    +0.192 C 
BRANCH  19  21
ATOM     20  C1  UNL     1       6.070   6.236  20.633  0.00  0.00    +0.194 C 
ATOM     21  O1  UNL     1       7.473   6.179  20.754  0.00  0.00    -0.380 OA
ENDBRANCH  19  21
ENDBRANCH   1  19
BRANCH   8  22
ATOM     22  C11 UNL     1      12.588   4.136  21.870  0.00  0.00    +0.134 C 
BRANCH  22  23
ATOM     23  C12 UNL     1      12.355   4.847  20.521  0.00  0.00    +0.036 C 
ATOM     24  C13 UNL     1      13.465   4.530  19.509  0.00  0.00    +0.014 C 
BRANCH  23  25
ATOM     25  C14 UNL     1      12.228   6.344  20.732  0.00  0.00    -0.043 A 
ATOM     26  C15 UNL     1      13.114   7.038  21.581  0.00  0.00    +0.007 A 
ATOM     27  C16 UNL     1      12.973   8.415  21.778  0.00  0.00    +0.038 A 
ATOM     28  C17 UNL     1      11.947   9.114  21.139  0.00  0.00    +0.123 A 
ATOM     29  F1  UNL     1      11.811  10.448  21.332  0.00  0.00    -0.205 F 
ATOM     30  C18 UNL     1      11.056   8.435  20.301  0.00  0.00    +0.038 A 
ATOM     31  C19 UNL     1      11.193   7.059  20.100  0.00  0.00    +0.007 A 
ENDBRANCH  23  25
ENDBRANCH  22  23
ENDBRANCH   8  22
TORSDOF 6
ENDMDL
MODEL 9
REMARK VINA RESULT:    -5.551     15.272     17.429
REMARK INTER + INTRA:          -9.221
REMARK INTER:                  -7.375
REMARK INTRA:                  -1.846
REMARK UNBOUND:                -1.723
REMARK  Name = /home/qwerty/github/datacon2025hack/step_04_hit_selection/docking/ligands/lig_79.pdb
REMARK  9 active torsions:
REMARK  status: ('A' for Active; 'I' for Inactive)
REMARK    1  A    between atoms: C1_1  and  O1_2
REMARK    2  A    between atoms: O1_2  and  C2_3
REMARK    3  A    between atoms: C2_3  and  C3_4
REMARK    4  A    between atoms: C6_10  and  C7_11
REMARK    5  A    between atoms: N5_16  and  C11_17
REMARK    6  A    between atoms: C11_17  and  C12_18
REMARK    7  A    between atoms: C12_18  and  C13_19
REMARK    8  A    between atoms: C12_18  and  C14_20
REMARK    9  A    between atoms: C21_28  and  C22_29
REMARK                            x       y       z     vdW  Elec       q    Type
REMARK                         _______ _______ _______ _____ _____    ______ ____
ROOT
ATOM      1  C3  UNL     1       9.265   4.387  22.572  0.00  0.00    +0.161 C 
ATOM      2  C4  UNL     1      10.118   4.111  21.302  0.00  0.00    +0.142 C 
ATOM      3  N1  UNL     1      11.241   3.237  21.638  0.00  0.00    -0.295 N 
ATOM      4  C5  UNL     1      12.511   3.404  20.996  0.00  0.00    +0.220 A 
ATOM      5  N2  UNL     1      13.095   2.442  20.259  0.00  0.00    -0.113 NA
ATOM      6  N3  UNL     1      14.278   2.910  19.892  0.00  0.00    -0.126 NA
ATOM      7  C6  UNL     1      14.398   4.149  20.410  0.00  0.00    +0.182 A 
ATOM      8  N5  UNL     1      13.301   4.493  21.127  0.00  0.00    -0.294 N 
ATOM      9  C20 UNL     1      10.983   2.026  22.418  0.00  0.00    +0.139 C 
ATOM     10  C21 UNL     1       9.571   2.086  23.025  0.00  0.00    +0.133 C 
ATOM     11  C22 UNL     1       9.408   1.039  24.124  0.00  0.00    +0.039 C 
ATOM     12  O2  UNL     1       9.344   3.372  23.572  0.00  0.00    -0.368 OA
ENDROOT
BRANCH   7  13
ATOM     13  C7  UNL     1      15.634   4.943  20.265  0.00  0.00    +0.084 A 
ATOM     14  C8  UNL     1      16.761   4.880  21.067  0.00  0.00    +0.031 A 
ATOM     15  C9  UNL     1      17.637   5.828  20.578  0.00  0.00    +0.020 A 
ATOM     16  C10 UNL     1      17.007   6.436  19.510  0.00  0.00    +0.083 A 
ATOM     17  N4  UNL     1      15.787   5.900  19.331  0.00  0.00    -0.358 N 
ATOM     18  H12 UNL     1      15.095   6.177  18.600  0.00  0.00    +0.165 HD
ENDBRANCH   7  13
BRANCH   1  19
ATOM     19  C2  UNL     1       7.798   4.666  22.226  0.00  0.00    +0.192 C 
BRANCH  19  21
ATOM     20  C1  UNL     1       6.544   5.755  20.630  0.00  0.00    +0.194 C 
ATOM     21  O1  UNL     1       7.683   4.954  20.847  0.00  0.00    -0.380 OA
ENDBRANCH  19  21
ENDBRANCH   1  19
BRANCH   8  22
ATOM     22  C11 UNL     1      13.127   5.605  22.073  0.00  0.00    +0.134 C 
BRANCH  22  23
ATOM     23  C12 UNL     1      12.920   6.947  21.341  0.00  0.00    +0.036 C 
ATOM     24  C13 UNL     1      13.947   8.001  21.779  0.00  0.00    +0.014 C 
BRANCH  23  25
ATOM     25  C14 UNL     1      11.504   7.449  21.555  0.00  0.00    -0.043 A 
ATOM     26  C15 UNL     1      10.987   7.636  22.852  0.00  0.00    +0.007 A 
ATOM     27  C16 UNL     1       9.675   8.084  23.033  0.00  0.00    +0.038 A 
ATOM     28  C17 UNL     1       8.864   8.344  21.927  0.00  0.00    +0.123 A 
ATOM     29  F1  UNL     1       7.591   8.776  22.104  0.00  0.00    -0.205 F 
ATOM     30  C18 UNL     1       9.363   8.154  20.635  0.00  0.00    +0.038 A 
ATOM     31  C19 UNL     1      10.675   7.707  20.449  0.00  0.00    +0.007 A 
ENDBRANCH  23  25
ENDBRANCH  22  23
ENDBRANCH   8  22
TORSDOF 6
ENDMDL
