MODEL 1
REMARK VINA RESULT:    -6.506      0.000      0.000
REMARK INTER + INTRA:          -8.046
REMARK INTER:                  -7.647
REMARK INTRA:                  -0.399
REMARK UNBOUND:                -0.399
REMARK  Name = /home/qwerty/github/datacon2025hack/step_04_hit_selection/docking/ligands/lig_766.pdb
REMARK  5 active torsions:
REMARK  status: ('A' for Active; 'I' for Inactive)
REMARK    1  A    between atoms: C1_1  and  C2_2
REMARK    2  A    between atoms: C4_5  and  C5_6
REMARK    3  A    between atoms: N2_8  and  C6_9
REMARK    4  A    between atoms: C9_13  and  C10_15
REMARK    5  A    between atoms: C13_18  and  C14_19
REMARK                            x       y       z     vdW  Elec       q    Type
REMARK                         _______ _______ _______ _____ _____    ______ ____
ROOT
ATOM      1  C6  UNL     1      21.464   4.716  24.728  0.00  0.00    +0.092 C 
ATOM      2  C7  UNL     1      22.383   4.806  25.950  0.00  0.00    +0.043 C 
ATOM      3  C8  UNL     1      21.813   3.811  26.952  0.00  0.00    +0.110 C 
ATOM      4  N3  UNL     1      21.007   2.887  26.166  0.00  0.00    -0.296 N 
ATOM      5  C9  UNL     1      20.614   1.578  26.617  0.00  0.00    +0.247 C 
ATOM      6  O2  UNL     1      20.355   0.681  25.768  0.00  0.00    -0.270 OA
ATOM      7  C17 UNL     1      20.877   3.306  24.780  0.00  0.00    +0.130 C 
ENDROOT
BRANCH   5   8
ATOM      8  C10 UNL     1      20.526   1.245  28.054  0.00  0.00    +0.040 A 
ATOM      9  C11 UNL     1      21.625   0.697  28.732  0.00  0.00    +0.013 A 
ATOM     10  C12 UNL     1      21.537   0.396  30.094  0.00  0.00    +0.007 A 
ATOM     11  C13 UNL     1      20.354   0.657  30.803  0.00  0.00    -0.015 A 
ATOM     12  C14 UNL     1      20.249   0.318  32.262  0.00  0.00    +0.047 C 
ATOM     13  C15 UNL     1      19.257   1.218  30.128  0.00  0.00    +0.127 A 
ATOM     14  F1  UNL     1      18.099   1.473  30.790  0.00  0.00    -0.205 F 
ATOM     15  C16 UNL     1      19.348   1.518  28.766  0.00  0.00    +0.051 A 
ENDBRANCH   5   8
BRANCH   1  18
ATOM     16  C5  UNL     1      21.927   6.127  22.673  0.00  0.00    +0.262 C 
ATOM     17  O1  UNL     1      21.128   7.010  23.091  0.00  0.00    -0.269 OA
ATOM     18  N2  UNL     1      22.180   4.959  23.470  0.00  0.00    -0.306 N 
ATOM     19  H5  UNL     1      22.931   4.297  23.177  0.00  0.00    +0.149 HD
BRANCH  16  24
ATOM     20  C1  UNL     1      25.164   7.470  19.165  0.00  0.00    +0.086 C 
ATOM     21  C2  UNL     1      23.981   6.864  19.845  0.00  0.00    +0.104 A 
ATOM     22  N1  UNL     1      22.977   6.256  19.179  0.00  0.00    -0.240 NA
ATOM     23  C3  UNL     1      22.105   5.907  20.146  0.00  0.00    +0.143 A 
ATOM     24  C4  UNL     1      22.590   6.323  21.369  0.00  0.00    +0.121 A 
ATOM     25  N4  UNL     1      23.774   6.931  21.173  0.00  0.00    -0.338 N 
ATOM     26  H19 UNL     1      24.409   7.361  21.881  0.00  0.00    +0.167 HD
ENDBRANCH  16  24
ENDBRANCH   1  18
TORSDOF 3
ENDMDL
MODEL 2
REMARK VINA RESULT:    -6.406      5.471     11.688
REMARK INTER + INTRA:          -7.928
REMARK INTER:                  -7.531
REMARK INTRA:                  -0.397
REMARK UNBOUND:                -0.399
REMARK  Name = /home/qwerty/github/datacon2025hack/step_04_hit_selection/docking/ligands/lig_766.pdb
REMARK  5 active torsions:
REMARK  status: ('A' for Active; 'I' for Inactive)
REMARK    1  A    between atoms: C1_1  and  C2_2
REMARK    2  A    between atoms: C4_5  and  C5_6
REMARK    3  A    between atoms: N2_8  and  C6_9
REMARK    4  A    between atoms: C9_13  and  C10_15
REMARK    5  A    between atoms: C13_18  and  C14_19
REMARK                            x       y       z     vdW  Elec       q    Type
REMARK                         _______ _______ _______ _____ _____    ______ ____
ROOT
ATOM      1  C6  UNL     1      19.108   1.283  32.691  0.00  0.00    +0.092 C 
ATOM      2  C7  UNL     1      18.204   1.808  31.571  0.00  0.00    +0.043 C 
ATOM      3  C8  UNL     1      19.119   1.977  30.366  0.00  0.00    +0.110 C 
ATOM      4  N3  UNL     1      20.270   1.124  30.630  0.00  0.00    -0.296 N 
ATOM      5  C9  UNL     1      21.179   0.661  29.614  0.00  0.00    +0.247 C 
ATOM      6  O2  UNL     1      21.828  -0.404  29.801  0.00  0.00    -0.270 OA
ATOM      7  C17 UNL     1      20.247   0.563  31.971  0.00  0.00    +0.130 C 
ENDROOT
BRANCH   5   8
ATOM      8  C10 UNL     1      21.358   1.391  28.342  0.00  0.00    +0.040 A 
ATOM      9  C11 UNL     1      22.201   2.511  28.270  0.00  0.00    +0.013 A 
ATOM     10  C12 UNL     1      22.374   3.188  27.059  0.00  0.00    +0.007 A 
ATOM     11  C13 UNL     1      21.722   2.745  25.898  0.00  0.00    -0.015 A 
ATOM     12  C14 UNL     1      21.891   3.481  24.601  0.00  0.00    +0.047 C 
ATOM     13  C15 UNL     1      20.888   1.617  25.967  0.00  0.00    +0.127 A 
ATOM     14  F1  UNL     1      20.240   1.172  24.859  0.00  0.00    -0.205 F 
ATOM     15  C16 UNL     1      20.717   0.940  27.178  0.00  0.00    +0.051 A 
ENDBRANCH   5   8
BRANCH   1  18
ATOM     16  C5  UNL     1      17.629   0.896  34.713  0.00  0.00    +0.262 C 
ATOM     17  O1  UNL     1      17.493   2.143  34.860  0.00  0.00    -0.269 OA
ATOM     18  N2  UNL     1      18.397   0.388  33.611  0.00  0.00    -0.306 N 
ATOM     19  H5  UNL     1      18.402  -0.639  33.426  0.00  0.00    +0.149 HD
BRANCH  16  24
ATOM     20  C1  UNL     1      15.270  -2.974  36.725  0.00  0.00    +0.086 C 
ATOM     21  C2  UNL     1      15.998  -1.679  36.576  0.00  0.00    +0.104 A 
ATOM     22  N1  UNL     1      16.208  -0.826  37.602  0.00  0.00    -0.240 NA
ATOM     23  C3  UNL     1      16.840   0.220  37.035  0.00  0.00    +0.143 A 
ATOM     24  C4  UNL     1      16.986  -0.012  35.682  0.00  0.00    +0.121 A 
ATOM     25  N4  UNL     1      16.448  -1.211  35.396  0.00  0.00    -0.338 N 
ATOM     26  H19 UNL     1      16.388  -1.694  34.473  0.00  0.00    +0.167 HD
ENDBRANCH  16  24
ENDBRANCH   1  18
TORSDOF 3
ENDMDL
MODEL 3
REMARK VINA RESULT:    -6.349      1.861      2.140
REMARK INTER + INTRA:          -7.861
REMARK INTER:                  -7.481
REMARK INTRA:                  -0.380
REMARK UNBOUND:                -0.399
REMARK  Name = /home/qwerty/github/datacon2025hack/step_04_hit_selection/docking/ligands/lig_766.pdb
REMARK  5 active torsions:
REMARK  status: ('A' for Active; 'I' for Inactive)
REMARK    1  A    between atoms: C1_1  and  C2_2
REMARK    2  A    between atoms: C4_5  and  C5_6
REMARK    3  A    between atoms: N2_8  and  C6_9
REMARK    4  A    between atoms: C9_13  and  C10_15
REMARK    5  A    between atoms: C13_18  and  C14_19
REMARK                            x       y       z     vdW  Elec       q    Type
REMARK                         _______ _______ _______ _____ _____    ______ ____
ROOT
ATOM      1  C6  UNL     1      21.513   4.073  25.283  0.00  0.00    +0.092 C 
ATOM      2  C7  UNL     1      20.996   4.968  26.414  0.00  0.00    +0.043 C 
ATOM      3  C8  UNL     1      20.918   4.062  27.636  0.00  0.00    +0.110 C 
ATOM      4  N3  UNL     1      21.809   2.946  27.349  0.00  0.00    -0.296 N 
ATOM      5  C9  UNL     1      22.354   2.071  28.354  0.00  0.00    +0.247 C 
ATOM      6  O2  UNL     1      23.438   1.467  28.129  0.00  0.00    -0.270 OA
ATOM      7  C17 UNL     1      22.312   2.975  25.985  0.00  0.00    +0.130 C 
ENDROOT
BRANCH   5   8
ATOM      8  C10 UNL     1      21.686   1.877  29.658  0.00  0.00    +0.040 A 
ATOM      9  C11 UNL     1      20.562   1.046  29.771  0.00  0.00    +0.013 A 
ATOM     10  C12 UNL     1      19.943   0.859  31.011  0.00  0.00    +0.007 A 
ATOM     11  C13 UNL     1      20.453   1.485  32.160  0.00  0.00    -0.015 A 
ATOM     12  C14 UNL     1      19.781   1.300  33.490  0.00  0.00    +0.047 C 
ATOM     13  C15 UNL     1      21.586   2.307  32.049  0.00  0.00    +0.127 A 
ATOM     14  F1  UNL     1      22.094   2.929  33.144  0.00  0.00    -0.205 F 
ATOM     15  C16 UNL     1      22.203   2.492  30.808  0.00  0.00    +0.051 A 
ENDBRANCH   5   8
BRANCH   1  18
ATOM     16  C5  UNL     1      21.747   5.578  23.257  0.00  0.00    +0.262 C 
ATOM     17  O1  UNL     1      20.492   5.690  23.187  0.00  0.00    -0.269 OA
ATOM     18  N2  UNL     1      22.336   4.810  24.318  0.00  0.00    -0.306 N 
ATOM     19  H5  UNL     1      23.372   4.824  24.440  0.00  0.00    +0.149 HD
BRANCH  16  24
ATOM     20  C1  UNL     1      25.228   8.358  21.078  0.00  0.00    +0.086 C 
ATOM     21  C2  UNL     1      24.089   7.414  21.280  0.00  0.00    +0.104 A 
ATOM     22  N1  UNL     1      23.367   6.898  20.263  0.00  0.00    -0.240 NA
ATOM     23  C3  UNL     1      22.423   6.155  20.874  0.00  0.00    +0.143 A 
ATOM     24  C4  UNL     1      22.582   6.248  22.241  0.00  0.00    +0.121 A 
ATOM     25  N4  UNL     1      23.633   7.049  22.493  0.00  0.00    -0.338 N 
ATOM     26  H19 UNL     1      24.029   7.331  23.417  0.00  0.00    +0.167 HD
ENDBRANCH  16  24
ENDBRANCH   1  18
TORSDOF 3
ENDMDL
MODEL 4
REMARK VINA RESULT:    -6.272      3.410      9.636
REMARK INTER + INTRA:          -7.772
REMARK INTER:                  -7.447
REMARK INTRA:                  -0.324
REMARK UNBOUND:                -0.399
REMARK  Name = /home/qwerty/github/datacon2025hack/step_04_hit_selection/docking/ligands/lig_766.pdb
REMARK  5 active torsions:
REMARK  status: ('A' for Active; 'I' for Inactive)
REMARK    1  A    between atoms: C1_1  and  C2_2
REMARK    2  A    between atoms: C4_5  and  C5_6
REMARK    3  A    between atoms: N2_8  and  C6_9
REMARK    4  A    between atoms: C9_13  and  C10_15
REMARK    5  A    between atoms: C13_18  and  C14_19
REMARK                            x       y       z     vdW  Elec       q    Type
REMARK                         _______ _______ _______ _____ _____    ______ ____
ROOT
ATOM      1  C6  UNL     1      21.224   2.450  26.852  0.00  0.00    +0.092 C 
ATOM      2  C7  UNL     1      22.637   2.910  26.478  0.00  0.00    +0.043 C 
ATOM      3  C8  UNL     1      22.485   3.615  25.137  0.00  0.00    +0.110 C 
ATOM      4  N3  UNL     1      21.079   3.984  25.049  0.00  0.00    -0.296 N 
ATOM      5  C9  UNL     1      20.566   4.997  24.165  0.00  0.00    +0.247 C 
ATOM      6  O2  UNL     1      19.491   5.589  24.457  0.00  0.00    -0.270 OA
ATOM      7  C17 UNL     1      20.291   3.426  26.136  0.00  0.00    +0.130 C 
ENDROOT
BRANCH   5   8
ATOM      8  C10 UNL     1      21.278   5.382  22.929  0.00  0.00    +0.040 A 
ATOM      9  C11 UNL     1      20.896   4.853  21.687  0.00  0.00    +0.013 A 
ATOM     10  C12 UNL     1      21.569   5.231  20.521  0.00  0.00    +0.007 A 
ATOM     11  C13 UNL     1      22.620   6.159  20.577  0.00  0.00    -0.015 A 
ATOM     12  C14 UNL     1      23.356   6.554  19.329  0.00  0.00    +0.047 C 
ATOM     13  C15 UNL     1      22.994   6.699  21.818  0.00  0.00    +0.127 A 
ATOM     14  F1  UNL     1      24.013   7.594  21.901  0.00  0.00    -0.205 F 
ATOM     15  C16 UNL     1      22.320   6.320  22.983  0.00  0.00    +0.051 A 
ENDBRANCH   5   8
BRANCH   1  18
ATOM     16  C5  UNL     1      21.314   1.308  29.114  0.00  0.00    +0.262 C 
ATOM     17  O1  UNL     1      21.863   0.300  28.590  0.00  0.00    -0.269 OA
ATOM     18  N2  UNL     1      21.001   2.452  28.302  0.00  0.00    -0.306 N 
ATOM     19  H5  UNL     1      20.662   3.324  28.763  0.00  0.00    +0.149 HD
BRANCH  16  24
ATOM     20  C1  UNL     1      21.003   2.556  33.903  0.00  0.00    +0.086 C 
ATOM     21  C2  UNL     1      20.837   1.815  32.618  0.00  0.00    +0.104 A 
ATOM     22  N1  UNL     1      20.255   0.600  32.535  0.00  0.00    -0.240 NA
ATOM     23  C3  UNL     1      20.357   0.274  31.231  0.00  0.00    +0.143 A 
ATOM     24  C4  UNL     1      21.009   1.287  30.558  0.00  0.00    +0.121 A 
ATOM     25  N4  UNL     1      21.315   2.256  31.438  0.00  0.00    -0.338 N 
ATOM     26  H19 UNL     1      21.807   3.160  31.266  0.00  0.00    +0.167 HD
ENDBRANCH  16  24
ENDBRANCH   1  18
TORSDOF 3
ENDMDL
MODEL 5
REMARK VINA RESULT:    -6.250     12.921     15.547
REMARK INTER + INTRA:          -7.745
REMARK INTER:                  -7.428
REMARK INTRA:                  -0.317
REMARK UNBOUND:                -0.399
REMARK  Name = /home/qwerty/github/datacon2025hack/step_04_hit_selection/docking/ligands/lig_766.pdb
REMARK  5 active torsions:
REMARK  status: ('A' for Active; 'I' for Inactive)
REMARK    1  A    between atoms: C1_1  and  C2_2
REMARK    2  A    between atoms: C4_5  and  C5_6
REMARK    3  A    between atoms: N2_8  and  C6_9
REMARK    4  A    between atoms: C9_13  and  C10_15
REMARK    5  A    between atoms: C13_18  and  C14_19
REMARK                            x       y       z     vdW  Elec       q    Type
REMARK                         _______ _______ _______ _____ _____    ______ ____
ROOT
ATOM      1  C6  UNL     1      17.541  10.914  36.321  0.00  0.00    +0.092 C 
ATOM      2  C7  UNL     1      16.748  11.427  37.527  0.00  0.00    +0.043 C 
ATOM      3  C8  UNL     1      15.405  11.869  36.962  0.00  0.00    +0.110 C 
ATOM      4  N3  UNL     1      15.270  11.172  35.690  0.00  0.00    -0.296 N 
ATOM      5  C9  UNL     1      14.017  10.971  35.011  0.00  0.00    +0.247 C 
ATOM      6  O2  UNL     1      13.891   9.999  34.217  0.00  0.00    -0.270 OA
ATOM      7  C17 UNL     1      16.482  10.461  35.318  0.00  0.00    +0.130 C 
ENDROOT
BRANCH   5   8
ATOM      8  C10 UNL     1      12.860  11.863  35.235  0.00  0.00    +0.040 A 
ATOM      9  C11 UNL     1      12.541  12.870  34.311  0.00  0.00    +0.013 A 
ATOM     10  C12 UNL     1      11.439  13.702  34.526  0.00  0.00    +0.007 A 
ATOM     11  C13 UNL     1      10.627  13.528  35.658  0.00  0.00    -0.015 A 
ATOM     12  C14 UNL     1       9.453  14.431  35.901  0.00  0.00    +0.047 C 
ATOM     13  C15 UNL     1      10.939  12.512  36.577  0.00  0.00    +0.127 A 
ATOM     14  F1  UNL     1      10.173  12.327  37.683  0.00  0.00    -0.205 F 
ATOM     15  C16 UNL     1      12.041  11.680  36.360  0.00  0.00    +0.051 A 
ENDBRANCH   5   8
BRANCH   1  18
ATOM     16  C5  UNL     1      19.826   9.818  36.248  0.00  0.00    +0.262 C 
ATOM     17  O1  UNL     1      20.288  10.808  35.616  0.00  0.00    -0.269 OA
ATOM     18  N2  UNL     1      18.455   9.822  36.676  0.00  0.00    -0.306 N 
ATOM     19  H5  UNL     1      18.116   9.060  37.302  0.00  0.00    +0.149 HD
BRANCH  16  24
ATOM     20  C1  UNL     1      22.889   6.673  38.554  0.00  0.00    +0.086 C 
ATOM     21  C2  UNL     1      22.012   7.294  37.518  0.00  0.00    +0.104 A 
ATOM     22  N1  UNL     1      21.886   6.804  36.266  0.00  0.00    -0.240 NA
ATOM     23  C3  UNL     1      21.059   7.675  35.654  0.00  0.00    +0.143 A 
ATOM     24  C4  UNL     1      20.716   8.677  36.538  0.00  0.00    +0.121 A 
ATOM     25  N4  UNL     1      21.324   8.434  37.713  0.00  0.00    -0.338 N 
ATOM     26  H19 UNL     1      21.280   8.991  38.595  0.00  0.00    +0.167 HD
ENDBRANCH  16  24
ENDBRANCH   1  18
TORSDOF 3
ENDMDL
MODEL 6
REMARK VINA RESULT:    -6.209     10.733     12.370
REMARK INTER + INTRA:          -7.696
REMARK INTER:                  -7.836
REMARK INTRA:                   0.139
REMARK UNBOUND:                -0.399
REMARK  Name = /home/qwerty/github/datacon2025hack/step_04_hit_selection/docking/ligands/lig_766.pdb
REMARK  5 active torsions:
REMARK  status: ('A' for Active; 'I' for Inactive)
REMARK    1  A    between atoms: C1_1  and  C2_2
REMARK    2  A    between atoms: C4_5  and  C5_6
REMARK    3  A    between atoms: N2_8  and  C6_9
REMARK    4  A    between atoms: C9_13  and  C10_15
REMARK    5  A    between atoms: C13_18  and  C14_19
REMARK                            x       y       z     vdW  Elec       q    Type
REMARK                         _______ _______ _______ _____ _____    ______ ____
ROOT
ATOM      1  C6  UNL     1      13.866   4.757  19.502  0.00  0.00    +0.092 C 
ATOM      2  C7  UNL     1      14.101   5.514  20.813  0.00  0.00    +0.043 C 
ATOM      3  C8  UNL     1      12.779   6.205  21.116  0.00  0.00    +0.110 C 
ATOM      4  N3  UNL     1      11.774   5.472  20.359  0.00  0.00    -0.296 N 
ATOM      5  C9  UNL     1      10.364   5.510  20.644  0.00  0.00    +0.247 C 
ATOM      6  O2  UNL     1       9.635   4.540  20.300  0.00  0.00    -0.270 OA
ATOM      7  C17 UNL     1      12.363   4.485  19.469  0.00  0.00    +0.130 C 
ENDROOT
BRANCH   5   8
ATOM      8  C10 UNL     1       9.746   6.651  21.352  0.00  0.00    +0.040 A 
ATOM      9  C11 UNL     1       9.428   6.562  22.715  0.00  0.00    +0.013 A 
ATOM     10  C12 UNL     1       8.854   7.650  23.379  0.00  0.00    +0.007 A 
ATOM     11  C13 UNL     1       8.606   8.850  22.694  0.00  0.00    -0.015 A 
ATOM     12  C14 UNL     1       7.973  10.014  23.399  0.00  0.00    +0.047 C 
ATOM     13  C15 UNL     1       8.936   8.944  21.332  0.00  0.00    +0.127 A 
ATOM     14  F1  UNL     1       8.700  10.091  20.644  0.00  0.00    -0.205 F 
ATOM     15  C16 UNL     1       9.511   7.855  20.670  0.00  0.00    +0.051 A 
ENDBRANCH   5   8
BRANCH   1  18
ATOM     16  C5  UNL     1      14.373   2.402  20.292  0.00  0.00    +0.262 C 
ATOM     17  O1  UNL     1      13.397   2.453  21.090  0.00  0.00    -0.269 OA
ATOM     18  N2  UNL     1      14.644   3.515  19.426  0.00  0.00    -0.306 N 
ATOM     19  H5  UNL     1      15.373   3.417  18.686  0.00  0.00    +0.149 HD
BRANCH  16  24
ATOM     20  C1  UNL     1      16.985  -1.513  18.728  0.00  0.00    +0.086 C 
ATOM     21  C2  UNL     1      16.366  -0.485  19.617  0.00  0.00    +0.104 A 
ATOM     22  N1  UNL     1      16.440  -0.531  20.964  0.00  0.00    -0.240 NA
ATOM     23  C3  UNL     1      15.719   0.532  21.370  0.00  0.00    +0.143 A 
ATOM     24  C4  UNL     1      15.213   1.189  20.266  0.00  0.00    +0.121 A 
ATOM     25  N4  UNL     1      15.621   0.540  19.161  0.00  0.00    -0.338 N 
ATOM     26  H19 UNL     1      15.421   0.767  18.162  0.00  0.00    +0.167 HD
ENDBRANCH  16  24
ENDBRANCH   1  18
TORSDOF 3
ENDMDL
MODEL 7
REMARK VINA RESULT:    -6.098     12.097     14.052
REMARK INTER + INTRA:          -7.567
REMARK INTER:                  -7.225
REMARK INTRA:                  -0.341
REMARK UNBOUND:                -0.399
REMARK  Name = /home/qwerty/github/datacon2025hack/step_04_hit_selection/docking/ligands/lig_766.pdb
REMARK  5 active torsions:
REMARK  status: ('A' for Active; 'I' for Inactive)
REMARK    1  A    between atoms: C1_1  and  C2_2
REMARK    2  A    between atoms: C4_5  and  C5_6
REMARK    3  A    between atoms: N2_8  and  C6_9
REMARK    4  A    between atoms: C9_13  and  C10_15
REMARK    5  A    between atoms: C13_18  and  C14_19
REMARK                            x       y       z     vdW  Elec       q    Type
REMARK                         _______ _______ _______ _____ _____    ______ ____
ROOT
ATOM      1  C6  UNL     1      19.055  11.646  36.368  0.00  0.00    +0.092 C 
ATOM      2  C7  UNL     1      20.451  12.018  35.858  0.00  0.00    +0.043 C 
ATOM      3  C8  UNL     1      21.031  10.724  35.303  0.00  0.00    +0.110 C 
ATOM      4  N3  UNL     1      19.884   9.867  35.036  0.00  0.00    -0.296 N 
ATOM      5  C9  UNL     1      19.915   8.732  34.152  0.00  0.00    +0.247 C 
ATOM      6  O2  UNL     1      18.847   8.343  33.604  0.00  0.00    -0.270 OA
ATOM      7  C17 UNL     1      18.641  10.436  35.531  0.00  0.00    +0.130 C 
ENDROOT
BRANCH   5   8
ATOM      8  C10 UNL     1      21.173   8.019  33.848  0.00  0.00    +0.040 A 
ATOM      9  C11 UNL     1      21.734   7.128  34.776  0.00  0.00    +0.013 A 
ATOM     10  C12 UNL     1      22.919   6.449  34.476  0.00  0.00    +0.007 A 
ATOM     11  C13 UNL     1      23.550   6.636  33.236  0.00  0.00    -0.015 A 
ATOM     12  C14 UNL     1      24.831   5.922  32.917  0.00  0.00    +0.047 C 
ATOM     13  C15 UNL     1      22.982   7.518  32.302  0.00  0.00    +0.127 A 
ATOM     14  F1  UNL     1      23.576   7.722  31.098  0.00  0.00    -0.205 F 
ATOM     15  C16 UNL     1      21.797   8.196  32.604  0.00  0.00    +0.051 A 
ENDBRANCH   5   8
BRANCH   1  18
ATOM     16  C5  UNL     1      16.799  12.700  36.847  0.00  0.00    +0.262 C 
ATOM     17  O1  UNL     1      16.490  11.721  37.581  0.00  0.00    -0.269 OA
ATOM     18  N2  UNL     1      18.098  12.750  36.235  0.00  0.00    -0.306 N 
ATOM     19  H5  UNL     1      18.390  13.617  35.733  0.00  0.00    +0.149 HD
BRANCH  16  24
ATOM     20  C1  UNL     1      14.664  17.165  36.536  0.00  0.00    +0.086 C 
ATOM     21  C2  UNL     1      14.879  15.689  36.471  0.00  0.00    +0.104 A 
ATOM     22  N1  UNL     1      13.896  14.811  36.178  0.00  0.00    -0.240 NA
ATOM     23  C3  UNL     1      14.493  13.606  36.276  0.00  0.00    +0.143 A 
ATOM     24  C4  UNL     1      15.813  13.778  36.639  0.00  0.00    +0.121 A 
ATOM     25  N4  UNL     1      16.051  15.095  36.765  0.00  0.00    -0.338 N 
ATOM     26  H19 UNL     1      16.941  15.573  37.026  0.00  0.00    +0.167 HD
ENDBRANCH  16  24
ENDBRANCH   1  18
TORSDOF 3
ENDMDL
MODEL 8
REMARK VINA RESULT:    -6.048      5.508      6.344
REMARK INTER + INTRA:          -7.508
REMARK INTER:                  -7.195
REMARK INTRA:                  -0.312
REMARK UNBOUND:                -0.399
REMARK  Name = /home/qwerty/github/datacon2025hack/step_04_hit_selection/docking/ligands/lig_766.pdb
REMARK  5 active torsions:
REMARK  status: ('A' for Active; 'I' for Inactive)
REMARK    1  A    between atoms: C1_1  and  C2_2
REMARK    2  A    between atoms: C4_5  and  C5_6
REMARK    3  A    between atoms: N2_8  and  C6_9
REMARK    4  A    between atoms: C9_13  and  C10_15
REMARK    5  A    between atoms: C13_18  and  C14_19
REMARK                            x       y       z     vdW  Elec       q    Type
REMARK                         _______ _______ _______ _____ _____    ______ ____
ROOT
ATOM      1  C6  UNL     1      18.291   0.191  25.806  0.00  0.00    +0.092 C 
ATOM      2  C7  UNL     1      17.520   1.064  26.801  0.00  0.00    +0.043 C 
ATOM      3  C8  UNL     1      18.499   1.332  27.937  0.00  0.00    +0.110 C 
ATOM      4  N3  UNL     1      19.821   1.098  27.374  0.00  0.00    -0.296 N 
ATOM      5  C9  UNL     1      21.041   1.606  27.945  0.00  0.00    +0.247 C 
ATOM      6  O2  UNL     1      22.046   1.785  27.204  0.00  0.00    -0.270 OA
ATOM      7  C17 UNL     1      19.761   0.540  26.033  0.00  0.00    +0.130 C 
ENDROOT
BRANCH   5   8
ATOM      8  C10 UNL     1      21.144   1.946  29.380  0.00  0.00    +0.040 A 
ATOM      9  C11 UNL     1      21.485   3.245  29.786  0.00  0.00    +0.013 A 
ATOM     10  C12 UNL     1      21.570   3.561  31.145  0.00  0.00    +0.007 A 
ATOM     11  C13 UNL     1      21.294   2.588  32.118  0.00  0.00    -0.015 A 
ATOM     12  C14 UNL     1      21.401   2.919  33.579  0.00  0.00    +0.047 C 
ATOM     13  C15 UNL     1      20.940   1.291  31.712  0.00  0.00    +0.127 A 
ATOM     14  F1  UNL     1      20.675   0.329  32.634  0.00  0.00    -0.205 F 
ATOM     15  C16 UNL     1      20.856   0.977  30.352  0.00  0.00    +0.051 A 
ENDBRANCH   5   8
BRANCH   1  18
ATOM     16  C5  UNL     1      17.189  -0.563  23.651  0.00  0.00    +0.262 C 
ATOM     17  O1  UNL     1      16.849  -1.649  24.197  0.00  0.00    -0.269 OA
ATOM     18  N2  UNL     1      17.884   0.434  24.417  0.00  0.00    -0.306 N 
ATOM     19  H5  UNL     1      18.052   1.373  23.995  0.00  0.00    +0.149 HD
BRANCH  16  24
ATOM     20  C1  UNL     1      16.605  -1.225  18.771  0.00  0.00    +0.086 C 
ATOM     21  C2  UNL     1      16.570  -0.613  20.133  0.00  0.00    +0.104 A 
ATOM     22  N1  UNL     1      16.160   0.652  20.365  0.00  0.00    -0.240 NA
ATOM     23  C3  UNL     1      16.335   0.815  21.691  0.00  0.00    +0.143 A 
ATOM     24  C4  UNL     1      16.858  -0.343  22.229  0.00  0.00    +0.121 A 
ATOM     25  N4  UNL     1      17.010  -1.241  21.240  0.00  0.00    -0.338 N 
ATOM     26  H19 UNL     1      17.378  -2.216  21.297  0.00  0.00    +0.167 HD
ENDBRANCH  16  24
ENDBRANCH   1  18
TORSDOF 3
ENDMDL
MODEL 9
REMARK VINA RESULT:    -6.024     10.168     12.417
REMARK INTER + INTRA:          -7.480
REMARK INTER:                  -7.057
REMARK INTRA:                  -0.423
REMARK UNBOUND:                -0.399
REMARK  Name = /home/qwerty/github/datacon2025hack/step_04_hit_selection/docking/ligands/lig_766.pdb
REMARK  5 active torsions:
REMARK  status: ('A' for Active; 'I' for Inactive)
REMARK    1  A    between atoms: C1_1  and  C2_2
REMARK    2  A    between atoms: C4_5  and  C5_6
REMARK    3  A    between atoms: N2_8  and  C6_9
REMARK    4  A    between atoms: C9_13  and  C10_15
REMARK    5  A    between atoms: C13_18  and  C14_19
REMARK                            x       y       z     vdW  Elec       q    Type
REMARK                         _______ _______ _______ _____ _____    ______ ____
ROOT
ATOM      1  C6  UNL     1      12.912   3.291  21.536  0.00  0.00    +0.092 C 
ATOM      2  C7  UNL     1      11.784   3.577  20.539  0.00  0.00    +0.043 C 
ATOM      3  C8  UNL     1      11.355   5.010  20.825  0.00  0.00    +0.110 C 
ATOM      4  N3  UNL     1      12.479   5.622  21.519  0.00  0.00    -0.296 N 
ATOM      5  C9  UNL     1      12.683   7.043  21.625  0.00  0.00    +0.247 C 
ATOM      6  O2  UNL     1      13.850   7.491  21.794  0.00  0.00    -0.270 OA
ATOM      7  C17 UNL     1      13.516   4.658  21.850  0.00  0.00    +0.130 C 
ENDROOT
BRANCH   5   8
ATOM      8  C10 UNL     1      11.561   7.999  21.518  0.00  0.00    +0.040 A 
ATOM      9  C11 UNL     1      10.602   8.095  22.537  0.00  0.00    +0.013 A 
ATOM     10  C12 UNL     1       9.550   9.010  22.433  0.00  0.00    +0.007 A 
ATOM     11  C13 UNL     1       9.453   9.856  21.317  0.00  0.00    -0.015 A 
ATOM     12  C14 UNL     1       8.315  10.827  21.193  0.00  0.00    +0.047 C 
ATOM     13  C15 UNL     1      10.420   9.768  20.302  0.00  0.00    +0.127 A 
ATOM     14  F1  UNL     1      10.345  10.570  19.209  0.00  0.00    -0.205 F 
ATOM     15  C16 UNL     1      11.472   8.853  20.409  0.00  0.00    +0.051 A 
ENDBRANCH   5   8
BRANCH   1  18
ATOM     16  C5  UNL     1      14.247   1.139  21.665  0.00  0.00    +0.262 C 
ATOM     17  O1  UNL     1      13.616   0.802  22.705  0.00  0.00    -0.269 OA
ATOM     18  N2  UNL     1      13.914   2.366  20.995  0.00  0.00    -0.306 N 
ATOM     19  H5  UNL     1      14.354   2.576  20.073  0.00  0.00    +0.149 HD
BRANCH  16  24
ATOM     20  C1  UNL     1      17.218  -1.447  18.653  0.00  0.00    +0.086 C 
ATOM     21  C2  UNL     1      16.625  -0.843  19.883  0.00  0.00    +0.104 A 
ATOM     22  N1  UNL     1      17.055  -1.132  21.129  0.00  0.00    -0.240 NA
ATOM     23  C3  UNL     1      16.232  -0.429  21.932  0.00  0.00    +0.143 A 
ATOM     24  C4  UNL     1      15.316   0.256  21.159  0.00  0.00    +0.121 A 
ATOM     25  N4  UNL     1      15.566  -0.012  19.865  0.00  0.00    -0.338 N 
ATOM     26  H19 UNL     1      15.065   0.340  19.020  0.00  0.00    +0.167 HD
ENDBRANCH  16  24
ENDBRANCH   1  18
TORSDOF 3
ENDMDL
