REMARK  Name = /home/qwerty/github/datacon2025hack/step_04_hit_selection/docking/ligands/lig_161.pdb
REMARK  8 active torsions:
REMARK  status: ('A' for Active; 'I' for Inactive)
REMARK    1  A    between atoms: C2_2  and  C3_3
REMARK    2  A    between atoms: C2_2  and  C4_4
REMARK    3  A    between atoms: C4_4  and  C5_5
REMARK    4  A    between atoms: C5_5  and  C6_6
REMARK    5  A    between atoms: C9_11  and  N2_12
REMARK    6  A    between atoms: C10_13  and  C11_15
REMARK    7  A    between atoms: C13_17  and  C14_18
REMARK    8  A    between atoms: C15_21  and  O3_22
REMARK                            x       y       z     vdW  Elec       q    Type
REMARK                         _______ _______ _______ _____ _____    ______ ____
ROOT
ATOM      1  C6  UNL     1       2.317   0.205   1.363  0.00  0.00    +0.216 C 
ATOM      2  O1  UNL     1       2.501   0.590   2.550  0.00  0.00    -0.276 OA
ATOM      3  N1  UNL     1       1.086   0.536   0.691  0.00  0.00    -0.299 N 
ATOM      4  C7  UNL     1       0.350  -0.488  -0.062  0.00  0.00    +0.110 C 
ATOM      5  C8  UNL     1      -0.274   0.130  -1.315  0.00  0.00    +0.044 C 
ATOM      6  C9  UNL     1      -1.135   1.358  -0.966  0.00  0.00    +0.105 C 
ATOM      7  C15 UNL     1      -0.297   2.390  -0.171  0.00  0.00    +0.152 C 
ATOM      8  C16 UNL     1       0.368   1.760   1.064  0.00  0.00    +0.141 C 
ENDROOT
BRANCH   6   9
ATOM      9  N2  UNL     1      -2.342   0.955  -0.229  0.00  0.00    -0.305 N 
ATOM     10  C10 UNL     1      -3.441   0.285  -0.867  0.00  0.00    +0.263 C 
ATOM     11  O2  UNL     1      -3.430   0.105  -2.114  0.00  0.00    -0.268 OA
ATOM     12  H15 UNL     1      -2.432   1.201   0.782  0.00  0.00    +0.149 HD
BRANCH  10  13
ATOM     13  C11 UNL     1      -4.587  -0.196  -0.072  0.00  0.00    +0.135 A 
ATOM     14  C12 UNL     1      -5.716  -0.817  -0.658  0.00  0.00    +0.045 A 
ATOM     15  C13 UNL     1      -6.663  -1.214   0.276  0.00  0.00    +0.007 A 
ATOM     16  C14 UNL     1      -8.005  -1.804   0.008  0.00  0.00    +0.053 C 
ATOM     17  S1  UNL     1      -6.064  -0.735   1.753  0.00  0.00    +0.007 S 
ATOM     18  N3  UNL     1      -4.618  -0.067   1.283  0.00  0.00    -0.206 NA
ENDBRANCH  10  13
ENDBRANCH   6   9
BRANCH   7  19
ATOM     19  O3  UNL     1      -1.100   3.468   0.233  0.00  0.00    -0.388 OA
ATOM     20  H21 UNL     1      -1.279   4.011  -0.578  0.00  0.00    +0.210 HD
ENDBRANCH   7  19
BRANCH   1  21
ATOM     21  C5  UNL     1       3.377  -0.617   0.678  0.00  0.00    +0.100 C 
BRANCH  21  22
ATOM     22  C4  UNL     1       4.784  -0.071   0.956  0.00  0.00    +0.039 C 
BRANCH  22  24
ATOM     23  C1  UNL     1       6.182  -2.091   0.660  0.00  0.00    +0.007 C 
ATOM     24  C2  UNL     1       5.830  -0.874   0.217  0.00  0.00    -0.079 C 
ATOM     25  C3  UNL     1       6.494  -0.313  -1.013  0.00  0.00    +0.038 C 
ENDBRANCH  22  24
ENDBRANCH  21  22
ENDBRANCH   1  21
TORSDOF 6
