REMARK  Name = /home/qwerty/github/datacon2025hack/step_04_hit_selection/docking/ligands/lig_437.pdb
REMARK  5 active torsions:
REMARK  status: ('A' for Active; 'I' for Inactive)
REMARK    1  A    between atoms: C1_1  and  C2_2
REMARK    2  A    between atoms: C2_2  and  C3_3
REMARK    3  A    between atoms: C2_2  and  N3_14
REMARK    4  A    between atoms: C4_5  and  C5_6
REMARK    5  A    between atoms: C13_17  and  N4_18
REMARK                            x       y       z     vdW  Elec       q    Type
REMARK                         _______ _______ _______ _____ _____    ______ ____
ROOT
ATOM      1  C1  UNL     1      -0.153   1.189   2.071  0.00  0.00    +0.034 C 
ATOM      2  C2  UNL     1      -0.388  -0.234   1.547  0.00  0.00    +0.143 C 
ENDROOT
BRANCH   2   3
ATOM      3  N3  UNL     1       0.490  -0.528   0.385  0.00  0.00    -0.291 NA
ATOM      4  C11 UNL     1       0.623  -1.980   0.143  0.00  0.00    +0.086 C 
ATOM      5  C12 UNL     1       1.680  -2.277  -0.947  0.00  0.00    +0.034 C 
ATOM      6  C13 UNL     1       2.314  -0.986  -1.536  0.00  0.00    +0.059 C 
ATOM      7  C19 UNL     1       1.129  -0.108  -2.005  0.00  0.00    +0.034 C 
ATOM      8  C20 UNL     1       0.129   0.190  -0.862  0.00  0.00    +0.086 C 
BRANCH   6   9
ATOM      9  N4  UNL     1       3.171  -0.227  -0.571  0.00  0.00    -0.299 NA
ATOM     10  C14 UNL     1       4.054   0.734  -1.271  0.00  0.00    +0.084 C 
ATOM     11  C15 UNL     1       4.621   1.760  -0.273  0.00  0.00    +0.015 C 
ATOM     12  C16 UNL     1       4.747   1.185   1.146  0.00  0.00    +0.002 C 
ATOM     13  C17 UNL     1       5.069  -0.308   1.100  0.00  0.00    +0.015 C 
ATOM     14  C18 UNL     1       3.993  -1.094   0.314  0.00  0.00    +0.084 C 
ENDBRANCH   6   9
ENDBRANCH   2   3
BRANCH   2  15
ATOM     15  C3  UNL     1      -1.848  -0.490   1.269  0.00  0.00    +0.245 A 
ATOM     16  N1  UNL     1      -2.683   0.391   0.683  0.00  0.00    -0.190 NA
ATOM     17  C4  UNL     1      -3.834  -0.313   0.644  0.00  0.00    +0.202 A 
ATOM     18  N2  UNL     1      -3.698  -1.546   1.174  0.00  0.00    -0.056 NA
ATOM     19  O1  UNL     1      -2.457  -1.616   1.547  0.00  0.00    -0.336 OA
BRANCH  17  20
ATOM     20  C5  UNL     1      -5.094   0.201   0.067  0.00  0.00    +0.022 A 
ATOM     21  C6  UNL     1      -5.134   1.470  -0.538  0.00  0.00    +0.012 A 
ATOM     22  C7  UNL     1      -6.324   1.951  -1.093  0.00  0.00    +0.001 A 
ATOM     23  C8  UNL     1      -7.483   1.173  -1.048  0.00  0.00    +0.000 A 
ATOM     24  C9  UNL     1      -7.455  -0.088  -0.448  0.00  0.00    +0.001 A 
ATOM     25  C10 UNL     1      -6.267  -0.574   0.107  0.00  0.00    +0.012 A 
ENDBRANCH  17  20
ENDBRANCH   2  15
TORSDOF 4
