MODEL 1
REMARK VINA RESULT:    -7.293      0.000      0.000
REMARK INTER + INTRA:         -10.614
REMARK INTER:                  -9.424
REMARK INTRA:                  -1.190
REMARK UNBOUND:                -1.190
REMARK  Name = /home/qwerty/github/datacon2025hack/step_04_hit_selection/docking/ligands/lig_97.pdb
REMARK  7 active torsions:
REMARK  status: ('A' for Active; 'I' for Inactive)
REMARK    1  A    between atoms: C1_1  and  C2_2
REMARK    2  A    between atoms: C2_2  and  C3_3
REMARK    3  A    between atoms: C3_3  and  N1_4
REMARK    4  A    between atoms: C3_3  and  C18_22
REMARK    5  A    between atoms: C4_5  and  C5_7
REMARK    6  A    between atoms: C9_11  and  C10_12
REMARK    7  A    between atoms: C22_27  and  C23_28
REMARK                            x       y       z     vdW  Elec       q    Type
REMARK                         _______ _______ _______ _____ _____    ______ ____
ROOT
ATOM      1  C5  UNL     1      11.781  14.214  31.099  0.00  0.00    +0.037 A 
ATOM      2  C6  UNL     1      12.489  14.851  30.066  0.00  0.00    +0.013 A 
ATOM      3  C7  UNL     1      12.232  14.531  28.732  0.00  0.00    +0.001 A 
ATOM      4  C8  UNL     1      11.272  13.570  28.410  0.00  0.00    +0.008 A 
ATOM      5  C9  UNL     1      10.560  12.909  29.425  0.00  0.00    -0.017 A 
ATOM      6  C17 UNL     1      10.824  13.235  30.769  0.00  0.00    +0.021 A 
ENDROOT
BRANCH   5   7
ATOM      7  C10 UNL     1       9.544  11.881  29.086  0.00  0.00    -0.017 A 
ATOM      8  C11 UNL     1       8.949  11.854  27.793  0.00  0.00    +0.010 A 
ATOM      9  C12 UNL     1       7.984  10.883  27.460  0.00  0.00    +0.028 A 
ATOM     10  C13 UNL     1       7.637   9.959  28.439  0.00  0.00    +0.066 A 
ATOM     11  N2  UNL     1       6.757   8.950  28.361  0.00  0.00    -0.277 N 
ATOM     12  N3  UNL     1       6.742   8.317  29.529  0.00  0.00    -0.181 NA
ATOM     13  C14 UNL     1       7.621   8.927  30.360  0.00  0.00    +0.142 A 
ATOM     14  C15 UNL     1       8.199   9.976  29.680  0.00  0.00    +0.020 A 
ATOM     15  C16 UNL     1       9.155  10.917  30.049  0.00  0.00    +0.020 A 
ATOM     16  H13 UNL     1       6.173   8.689  27.535  0.00  0.00    +0.189 HD
ENDBRANCH   5   7
BRANCH   1  18
ATOM     17  N1  UNL     1      11.891  13.548  33.549  0.00  0.00    -0.303 N 
ATOM     18  C4  UNL     1      12.048  14.540  32.520  0.00  0.00    +0.245 C 
ATOM     19  O1  UNL     1      12.432  15.701  32.827  0.00  0.00    -0.270 OA
ATOM     20  H7  UNL     1      11.846  12.545  33.261  0.00  0.00    +0.150 HD
BRANCH  17  21
ATOM     21  C3  UNL     1      11.861  13.902  34.976  0.00  0.00    +0.122 C 
BRANCH  21  22
ATOM     22  C18 UNL     1      13.020  13.268  35.734  0.00  0.00    +0.064 A 
ATOM     23  N4  UNL     1      12.975  11.932  36.005  0.00  0.00    -0.258 NA
ATOM     24  C19 UNL     1      13.946  11.291  36.703  0.00  0.00    +0.111 A 
ATOM     25  C20 UNL     1      15.044  12.002  37.180  0.00  0.00    +0.020 A 
ATOM     26  C21 UNL     1      15.125  13.371  36.942  0.00  0.00    +0.006 A 
ATOM     27  C22 UNL     1      14.111  14.031  36.229  0.00  0.00    -0.027 A 
ATOM     28  C23 UNL     1      14.231  15.514  35.988  0.00  0.00    +0.045 C 
ENDBRANCH  21  22
BRANCH  21  30
ATOM     29  C1  UNL     1       9.475  14.648  35.598  0.00  0.00    +0.006 C 
ATOM     30  C2  UNL     1      10.506  13.517  35.610  0.00  0.00    +0.025 C 
ENDBRANCH  21  30
ENDBRANCH  17  21
ENDBRANCH   1  18
TORSDOF 5
ENDMDL
MODEL 2
REMARK VINA RESULT:    -7.146     12.890     14.434
REMARK INTER + INTRA:         -10.424
REMARK INTER:                  -9.277
REMARK INTRA:                  -1.147
REMARK UNBOUND:                -1.190
REMARK  Name = /home/qwerty/github/datacon2025hack/step_04_hit_selection/docking/ligands/lig_97.pdb
REMARK  7 active torsions:
REMARK  status: ('A' for Active; 'I' for Inactive)
REMARK    1  A    between atoms: C1_1  and  C2_2
REMARK    2  A    between atoms: C2_2  and  C3_3
REMARK    3  A    between atoms: C3_3  and  N1_4
REMARK    4  A    between atoms: C3_3  and  C18_22
REMARK    5  A    between atoms: C4_5  and  C5_7
REMARK    6  A    between atoms: C9_11  and  C10_12
REMARK    7  A    between atoms: C22_27  and  C23_28
REMARK                            x       y       z     vdW  Elec       q    Type
REMARK                         _______ _______ _______ _____ _____    ______ ____
ROOT
ATOM      1  C5  UNL     1      21.325   2.493  31.991  0.00  0.00    +0.037 A 
ATOM      2  C6  UNL     1      20.668   1.315  32.383  0.00  0.00    +0.013 A 
ATOM      3  C7  UNL     1      20.218   0.405  31.425  0.00  0.00    +0.001 A 
ATOM      4  C8  UNL     1      20.412   0.660  30.066  0.00  0.00    +0.008 A 
ATOM      5  C9  UNL     1      21.054   1.836  29.647  0.00  0.00    -0.017 A 
ATOM      6  C17 UNL     1      21.505   2.751  30.619  0.00  0.00    +0.021 A 
ENDROOT
BRANCH   5   7
ATOM      7  C10 UNL     1      21.255   2.113  28.202  0.00  0.00    -0.017 A 
ATOM      8  C11 UNL     1      22.347   2.917  27.768  0.00  0.00    +0.010 A 
ATOM      9  C12 UNL     1      22.547   3.185  26.399  0.00  0.00    +0.028 A 
ATOM     10  C13 UNL     1      21.642   2.638  25.497  0.00  0.00    +0.066 A 
ATOM     11  N2  UNL     1      21.624   2.748  24.160  0.00  0.00    -0.277 N 
ATOM     12  N3  UNL     1      20.584   2.063  23.697  0.00  0.00    -0.181 NA
ATOM     13  C14 UNL     1      19.932   1.511  24.749  0.00  0.00    +0.142 A 
ATOM     14  C15 UNL     1      20.593   1.869  25.902  0.00  0.00    +0.020 A 
ATOM     15  C16 UNL     1      20.359   1.580  27.243  0.00  0.00    +0.020 A 
ATOM     16  H13 UNL     1      22.302   3.276  23.565  0.00  0.00    +0.189 HD
ENDBRANCH   5   7
BRANCH   1  18
ATOM     17  N1  UNL     1      22.267   4.773  32.603  0.00  0.00    -0.303 N 
ATOM     18  C4  UNL     1      21.803   3.471  32.998  0.00  0.00    +0.245 C 
ATOM     19  O1  UNL     1      21.787   3.159  34.219  0.00  0.00    -0.270 OA
ATOM     20  H7  UNL     1      22.019   5.114  31.647  0.00  0.00    +0.150 HD
BRANCH  17  21
ATOM     21  C3  UNL     1      23.011   5.648  33.522  0.00  0.00    +0.122 C 
BRANCH  21  22
ATOM     22  C18 UNL     1      22.109   6.712  34.134  0.00  0.00    +0.064 A 
ATOM     23  N4  UNL     1      21.164   7.303  33.348  0.00  0.00    -0.258 NA
ATOM     24  C19 UNL     1      20.340   8.282  33.800  0.00  0.00    +0.111 A 
ATOM     25  C20 UNL     1      20.445   8.727  35.115  0.00  0.00    +0.020 A 
ATOM     26  C21 UNL     1      21.407   8.164  35.950  0.00  0.00    +0.006 A 
ATOM     27  C22 UNL     1      22.264   7.159  35.473  0.00  0.00    -0.027 A 
ATOM     28  C23 UNL     1      23.293   6.571  36.404  0.00  0.00    +0.045 C 
ENDBRANCH  21  22
BRANCH  21  30
ATOM     29  C1  UNL     1      25.539   5.544  33.040  0.00  0.00    +0.006 C 
ATOM     30  C2  UNL     1      24.222   6.290  32.810  0.00  0.00    +0.025 C 
ENDBRANCH  21  30
ENDBRANCH  17  21
ENDBRANCH   1  18
TORSDOF 5
ENDMDL
MODEL 3
REMARK VINA RESULT:    -7.116     14.344     17.291
REMARK INTER + INTRA:         -10.385
REMARK INTER:                  -9.239
REMARK INTRA:                  -1.146
REMARK UNBOUND:                -1.190
REMARK  Name = /home/qwerty/github/datacon2025hack/step_04_hit_selection/docking/ligands/lig_97.pdb
REMARK  7 active torsions:
REMARK  status: ('A' for Active; 'I' for Inactive)
REMARK    1  A    between atoms: C1_1  and  C2_2
REMARK    2  A    between atoms: C2_2  and  C3_3
REMARK    3  A    between atoms: C3_3  and  N1_4
REMARK    4  A    between atoms: C3_3  and  C18_22
REMARK    5  A    between atoms: C4_5  and  C5_7
REMARK    6  A    between atoms: C9_11  and  C10_12
REMARK    7  A    between atoms: C22_27  and  C23_28
REMARK                            x       y       z     vdW  Elec       q    Type
REMARK                         _______ _______ _______ _____ _____    ______ ____
ROOT
ATOM      1  C5  UNL     1      20.648   1.678  25.893  0.00  0.00    +0.037 A 
ATOM      2  C6  UNL     1      21.685   2.528  25.472  0.00  0.00    +0.013 A 
ATOM      3  C7  UNL     1      22.523   3.136  26.407  0.00  0.00    +0.001 A 
ATOM      4  C8  UNL     1      22.336   2.912  27.772  0.00  0.00    +0.008 A 
ATOM      5  C9  UNL     1      21.298   2.078  28.220  0.00  0.00    -0.017 A 
ATOM      6  C17 UNL     1      20.455   1.467  27.271  0.00  0.00    +0.021 A 
ENDROOT
BRANCH   5   7
ATOM      7  C10 UNL     1      21.092   1.843  29.671  0.00  0.00    -0.017 A 
ATOM      8  C11 UNL     1      20.433   0.665  30.124  0.00  0.00    +0.010 A 
ATOM      9  C12 UNL     1      20.233   0.433  31.499  0.00  0.00    +0.028 A 
ATOM     10  C13 UNL     1      20.699   1.393  32.390  0.00  0.00    +0.066 A 
ATOM     11  N2  UNL     1      20.630   1.394  33.729  0.00  0.00    -0.277 N 
ATOM     12  N3  UNL     1      21.205   2.506  34.177  0.00  0.00    -0.181 NA
ATOM     13  C14 UNL     1      21.645   3.219  33.113  0.00  0.00    +0.142 A 
ATOM     14  C15 UNL     1      21.330   2.524  31.967  0.00  0.00    +0.020 A 
ATOM     15  C16 UNL     1      21.548   2.793  30.619  0.00  0.00    +0.020 A 
ATOM     16  H13 UNL     1      20.203   0.660  34.336  0.00  0.00    +0.189 HD
ENDBRANCH   5   7
BRANCH   1  18
ATOM     17  N1  UNL     1      18.544   0.368  25.334  0.00  0.00    -0.303 N 
ATOM     18  C4  UNL     1      19.747   1.030  24.910  0.00  0.00    +0.245 C 
ATOM     19  O1  UNL     1      20.035   1.074  23.683  0.00  0.00    -0.270 OA
ATOM     20  H7  UNL     1      18.180   0.575  26.291  0.00  0.00    +0.150 HD
BRANCH  17  21
ATOM     21  C3  UNL     1      17.788  -0.524  24.441  0.00  0.00    +0.122 C 
BRANCH  21  22
ATOM     22  C18 UNL     1      16.683   0.224  23.707  0.00  0.00    +0.064 A 
ATOM     23  N4  UNL     1      15.985   1.185  24.376  0.00  0.00    -0.258 NA
ATOM     24  C19 UNL     1      14.963   1.878  23.811  0.00  0.00    +0.111 A 
ATOM     25  C20 UNL     1      14.586   1.612  22.497  0.00  0.00    +0.020 A 
ATOM     26  C21 UNL     1      15.260   0.627  21.780  0.00  0.00    +0.006 A 
ATOM     27  C22 UNL     1      16.309  -0.094  22.374  0.00  0.00    -0.027 A 
ATOM     28  C23 UNL     1      17.017  -1.153  21.570  0.00  0.00    +0.045 C 
ENDBRANCH  21  22
BRANCH  21  30
ATOM     29  C1  UNL     1      17.715  -3.085  24.714  0.00  0.00    +0.006 C 
ATOM     30  C2  UNL     1      17.218  -1.730  25.222  0.00  0.00    +0.025 C 
ENDBRANCH  21  30
ENDBRANCH  17  21
ENDBRANCH   1  18
TORSDOF 5
ENDMDL
MODEL 4
REMARK VINA RESULT:    -6.895      5.049     11.225
REMARK INTER + INTRA:         -10.100
REMARK INTER:                  -8.963
REMARK INTRA:                  -1.137
REMARK UNBOUND:                -1.190
REMARK  Name = /home/qwerty/github/datacon2025hack/step_04_hit_selection/docking/ligands/lig_97.pdb
REMARK  7 active torsions:
REMARK  status: ('A' for Active; 'I' for Inactive)
REMARK    1  A    between atoms: C1_1  and  C2_2
REMARK    2  A    between atoms: C2_2  and  C3_3
REMARK    3  A    between atoms: C3_3  and  N1_4
REMARK    4  A    between atoms: C3_3  and  C18_22
REMARK    5  A    between atoms: C4_5  and  C5_7
REMARK    6  A    between atoms: C9_11  and  C10_12
REMARK    7  A    between atoms: C22_27  and  C23_28
REMARK                            x       y       z     vdW  Elec       q    Type
REMARK                         _______ _______ _______ _____ _____    ______ ____
ROOT
ATOM      1  C5  UNL     1       7.987   9.841  26.429  0.00  0.00    +0.037 A 
ATOM      2  C6  UNL     1       7.280   9.172  27.442  0.00  0.00    +0.013 A 
ATOM      3  C7  UNL     1       7.431   9.551  28.777  0.00  0.00    +0.001 A 
ATOM      4  C8  UNL     1       8.290  10.597  29.120  0.00  0.00    +0.008 A 
ATOM      5  C9  UNL     1       9.018  11.273  28.127  0.00  0.00    -0.017 A 
ATOM      6  C17 UNL     1       8.862  10.886  26.782  0.00  0.00    +0.021 A 
ENDROOT
BRANCH   5   7
ATOM      7  C10 UNL     1       9.938  12.381  28.489  0.00  0.00    -0.017 A 
ATOM      8  C11 UNL     1      10.386  13.299  27.498  0.00  0.00    +0.010 A 
ATOM      9  C12 UNL     1      11.258  14.353  27.831  0.00  0.00    +0.028 A 
ATOM     10  C13 UNL     1      11.663  14.461  29.157  0.00  0.00    +0.066 A 
ATOM     11  N2  UNL     1      12.477  15.370  29.712  0.00  0.00    -0.277 N 
ATOM     12  N3  UNL     1      12.587  15.099  31.008  0.00  0.00    -0.181 NA
ATOM     13  C14 UNL     1      11.836  14.005  31.283  0.00  0.00    +0.142 A 
ATOM     14  C15 UNL     1      11.241  13.587  30.114  0.00  0.00    +0.020 A 
ATOM     15  C16 UNL     1      10.380  12.531  29.827  0.00  0.00    +0.020 A 
ATOM     16  H13 UNL     1      12.953  16.164  29.228  0.00  0.00    +0.189 HD
ENDBRANCH   5   7
BRANCH   1  18
ATOM     17  N1  UNL     1       8.525   8.292  24.488  0.00  0.00    -0.303 N 
ATOM     18  C4  UNL     1       7.841   9.445  25.008  0.00  0.00    +0.245 C 
ATOM     19  O1  UNL     1       7.094  10.121  24.250  0.00  0.00    -0.270 OA
ATOM     20  H7  UNL     1       8.905   7.598  25.169  0.00  0.00    +0.150 HD
BRANCH  17  21
ATOM     21  C3  UNL     1       8.639   8.039  23.043  0.00  0.00    +0.122 C 
BRANCH  21  22
ATOM     22  C18 UNL     1       8.637   6.548  22.735  0.00  0.00    +0.064 A 
ATOM     23  N4  UNL     1       9.552   5.748  23.352  0.00  0.00    -0.258 NA
ATOM     24  C19 UNL     1       9.643   4.415  23.113  0.00  0.00    +0.111 A 
ATOM     25  C20 UNL     1       8.784   3.813  22.198  0.00  0.00    +0.020 A 
ATOM     26  C21 UNL     1       7.843   4.593  21.531  0.00  0.00    +0.006 A 
ATOM     27  C22 UNL     1       7.761   5.973  21.775  0.00  0.00    -0.027 A 
ATOM     28  C23 UNL     1       6.731   6.788  21.035  0.00  0.00    +0.045 C 
ENDBRANCH  21  22
BRANCH  21  30
ATOM     29  C1  UNL     1       9.600  10.020  21.706  0.00  0.00    +0.006 C 
ATOM     30  C2  UNL     1       9.897   8.724  22.463  0.00  0.00    +0.025 C 
ENDBRANCH  21  30
ENDBRANCH  17  21
ENDBRANCH   1  18
TORSDOF 5
ENDMDL
MODEL 5
REMARK VINA RESULT:    -6.864     12.737     14.358
REMARK INTER + INTRA:         -10.061
REMARK INTER:                  -9.015
REMARK INTRA:                  -1.045
REMARK UNBOUND:                -1.190
REMARK  Name = /home/qwerty/github/datacon2025hack/step_04_hit_selection/docking/ligands/lig_97.pdb
REMARK  7 active torsions:
REMARK  status: ('A' for Active; 'I' for Inactive)
REMARK    1  A    between atoms: C1_1  and  C2_2
REMARK    2  A    between atoms: C2_2  and  C3_3
REMARK    3  A    between atoms: C3_3  and  N1_4
REMARK    4  A    between atoms: C3_3  and  C18_22
REMARK    5  A    between atoms: C4_5  and  C5_7
REMARK    6  A    between atoms: C9_11  and  C10_12
REMARK    7  A    between atoms: C22_27  and  C23_28
REMARK                            x       y       z     vdW  Elec       q    Type
REMARK                         _______ _______ _______ _____ _____    ______ ____
ROOT
ATOM      1  C5  UNL     1      20.834   3.050  32.598  0.00  0.00    +0.037 A 
ATOM      2  C6  UNL     1      20.497   1.807  33.162  0.00  0.00    +0.013 A 
ATOM      3  C7  UNL     1      20.385   0.673  32.356  0.00  0.00    +0.001 A 
ATOM      4  C8  UNL     1      20.601   0.763  30.979  0.00  0.00    +0.008 A 
ATOM      5  C9  UNL     1      20.926   1.996  30.389  0.00  0.00    -0.017 A 
ATOM      6  C17 UNL     1      21.036   3.136  31.208  0.00  0.00    +0.021 A 
ENDROOT
BRANCH   5   7
ATOM      7  C10 UNL     1      21.148   2.095  28.925  0.00  0.00    -0.017 A 
ATOM      8  C11 UNL     1      20.709   1.056  28.057  0.00  0.00    +0.010 A 
ATOM      9  C12 UNL     1      20.915   1.141  26.666  0.00  0.00    +0.028 A 
ATOM     10  C13 UNL     1      21.562   2.271  26.178  0.00  0.00    +0.066 A 
ATOM     11  N2  UNL     1      21.866   2.577  24.908  0.00  0.00    -0.277 N 
ATOM     12  N3  UNL     1      22.480   3.756  24.897  0.00  0.00    -0.181 NA
ATOM     13  C14 UNL     1      22.567   4.206  26.172  0.00  0.00    +0.142 A 
ATOM     14  C15 UNL     1      21.987   3.271  27.000  0.00  0.00    +0.020 A 
ATOM     15  C16 UNL     1      21.804   3.227  28.379  0.00  0.00    +0.020 A 
ATOM     16  H13 UNL     1      21.665   2.004  24.059  0.00  0.00    +0.189 HD
ENDBRANCH   5   7
BRANCH   1  18
ATOM     17  N1  UNL     1      21.932   5.273  33.154  0.00  0.00    -0.303 N 
ATOM     18  C4  UNL     1      20.950   4.263  33.442  0.00  0.00    +0.245 C 
ATOM     19  O1  UNL     1      20.165   4.417  34.416  0.00  0.00    -0.270 OA
ATOM     20  H7  UNL     1      22.375   5.272  32.208  0.00  0.00    +0.150 HD
BRANCH  17  21
ATOM     21  C3  UNL     1      22.271   6.329  34.120  0.00  0.00    +0.122 C 
BRANCH  21  22
ATOM     22  C18 UNL     1      23.041   7.465  33.459  0.00  0.00    +0.064 A 
ATOM     23  N4  UNL     1      24.387   7.334  33.289  0.00  0.00    -0.258 NA
ATOM     24  C19 UNL     1      25.157   8.309  32.740  0.00  0.00    +0.111 A 
ATOM     25  C20 UNL     1      24.575   9.505  32.331  0.00  0.00    +0.020 A 
ATOM     26  C21 UNL     1      23.206   9.691  32.501  0.00  0.00    +0.006 A 
ATOM     27  C22 UNL     1      22.417   8.683  33.079  0.00  0.00    -0.027 A 
ATOM     28  C23 UNL     1      20.938   8.917  33.247  0.00  0.00    +0.045 C 
ENDBRANCH  21  22
BRANCH  21  30
ATOM     29  C1  UNL     1      23.187   6.714  36.497  0.00  0.00    +0.006 C 
ATOM     30  C2  UNL     1      23.057   5.748  35.317  0.00  0.00    +0.025 C 
ENDBRANCH  21  30
ENDBRANCH  17  21
ENDBRANCH   1  18
TORSDOF 5
ENDMDL
MODEL 6
REMARK VINA RESULT:    -6.784      4.181      8.673
REMARK INTER + INTRA:          -9.957
REMARK INTER:                  -8.948
REMARK INTRA:                  -1.009
REMARK UNBOUND:                -1.190
REMARK  Name = /home/qwerty/github/datacon2025hack/step_04_hit_selection/docking/ligands/lig_97.pdb
REMARK  7 active torsions:
REMARK  status: ('A' for Active; 'I' for Inactive)
REMARK    1  A    between atoms: C1_1  and  C2_2
REMARK    2  A    between atoms: C2_2  and  C3_3
REMARK    3  A    between atoms: C3_3  and  N1_4
REMARK    4  A    between atoms: C3_3  and  C18_22
REMARK    5  A    between atoms: C4_5  and  C5_7
REMARK    6  A    between atoms: C9_11  and  C10_12
REMARK    7  A    between atoms: C22_27  and  C23_28
REMARK                            x       y       z     vdW  Elec       q    Type
REMARK                         _______ _______ _______ _____ _____    ______ ____
ROOT
ATOM      1  C5  UNL     1      12.353  14.278  28.640  0.00  0.00    +0.037 A 
ATOM      2  C6  UNL     1      12.200  14.420  27.250  0.00  0.00    +0.013 A 
ATOM      3  C7  UNL     1      13.251  14.903  26.470  0.00  0.00    +0.001 A 
ATOM      4  C8  UNL     1      14.464  15.258  27.063  0.00  0.00    +0.008 A 
ATOM      5  C9  UNL     1      14.638  15.139  28.452  0.00  0.00    -0.017 A 
ATOM      6  C17 UNL     1      13.574  14.651  29.234  0.00  0.00    +0.021 A 
ENDROOT
BRANCH   5   7
ATOM      7  C10 UNL     1      15.925  15.522  29.086  0.00  0.00    -0.017 A 
ATOM      8  C11 UNL     1      16.510  16.792  28.819  0.00  0.00    +0.010 A 
ATOM      9  C12 UNL     1      17.730  17.165  29.416  0.00  0.00    +0.028 A 
ATOM     10  C13 UNL     1      18.337  16.250  30.269  0.00  0.00    +0.066 A 
ATOM     11  N2  UNL     1      19.486  16.375  30.949  0.00  0.00    -0.277 N 
ATOM     12  N3  UNL     1      19.686  15.260  31.644  0.00  0.00    -0.181 NA
ATOM     13  C14 UNL     1      18.653  14.416  31.405  0.00  0.00    +0.142 A 
ATOM     14  C15 UNL     1      17.786  15.031  30.530  0.00  0.00    +0.020 A 
ATOM     15  C16 UNL     1      16.583  14.623  29.962  0.00  0.00    +0.020 A 
ATOM     16  H13 UNL     1      20.129  17.199  30.948  0.00  0.00    +0.189 HD
ENDBRANCH   5   7
BRANCH   1  18
ATOM     17  N1  UNL     1      10.231  12.911  28.931  0.00  0.00    -0.303 N 
ATOM     18  C4  UNL     1      11.243  13.772  29.482  0.00  0.00    +0.245 C 
ATOM     19  O1  UNL     1      11.195  14.089  30.701  0.00  0.00    -0.270 OA
ATOM     20  H7  UNL     1      10.429  12.440  28.020  0.00  0.00    +0.150 HD
BRANCH  17  21
ATOM     21  C3  UNL     1       8.975  12.630  29.643  0.00  0.00    +0.122 C 
BRANCH  21  22
ATOM     22  C18 UNL     1       8.611  11.153  29.573  0.00  0.00    +0.064 A 
ATOM     23  N4  UNL     1       7.545  10.774  28.811  0.00  0.00    -0.258 NA
ATOM     24  C19 UNL     1       7.131   9.485  28.717  0.00  0.00    +0.111 A 
ATOM     25  C20 UNL     1       7.797   8.487  29.422  0.00  0.00    +0.020 A 
ATOM     26  C21 UNL     1       8.882   8.829  30.226  0.00  0.00    +0.006 A 
ATOM     27  C22 UNL     1       9.300  10.165  30.328  0.00  0.00    -0.027 A 
ATOM     28  C23 UNL     1      10.477  10.500  31.207  0.00  0.00    +0.045 C 
ENDBRANCH  21  22
BRANCH  21  30
ATOM     29  C1  UNL     1       8.040  13.984  27.661  0.00  0.00    +0.006 C 
ATOM     30  C2  UNL     1       7.827  13.510  29.101  0.00  0.00    +0.025 C 
ENDBRANCH  21  30
ENDBRANCH  17  21
ENDBRANCH   1  18
TORSDOF 5
ENDMDL
MODEL 7
REMARK VINA RESULT:    -6.678     11.314     15.131
REMARK INTER + INTRA:          -9.819
REMARK INTER:                  -8.689
REMARK INTRA:                  -1.130
REMARK UNBOUND:                -1.190
REMARK  Name = /home/qwerty/github/datacon2025hack/step_04_hit_selection/docking/ligands/lig_97.pdb
REMARK  7 active torsions:
REMARK  status: ('A' for Active; 'I' for Inactive)
REMARK    1  A    between atoms: C1_1  and  C2_2
REMARK    2  A    between atoms: C2_2  and  C3_3
REMARK    3  A    between atoms: C3_3  and  N1_4
REMARK    4  A    between atoms: C3_3  and  C18_22
REMARK    5  A    between atoms: C4_5  and  C5_7
REMARK    6  A    between atoms: C9_11  and  C10_12
REMARK    7  A    between atoms: C22_27  and  C23_28
REMARK                            x       y       z     vdW  Elec       q    Type
REMARK                         _______ _______ _______ _____ _____    ______ ____
ROOT
ATOM      1  C5  UNL     1      11.148   3.217  21.531  0.00  0.00    +0.037 A 
ATOM      2  C6  UNL     1      10.026   2.566  22.074  0.00  0.00    +0.013 A 
ATOM      3  C7  UNL     1      10.147   1.284  22.612  0.00  0.00    +0.001 A 
ATOM      4  C8  UNL     1      11.382   0.633  22.613  0.00  0.00    +0.008 A 
ATOM      5  C9  UNL     1      12.515   1.257  22.065  0.00  0.00    -0.017 A 
ATOM      6  C17 UNL     1      12.387   2.550  21.522  0.00  0.00    +0.021 A 
ENDROOT
BRANCH   5   7
ATOM      7  C10 UNL     1      13.828   0.564  22.058  0.00  0.00    -0.017 A 
ATOM      8  C11 UNL     1      14.777   0.829  21.030  0.00  0.00    +0.010 A 
ATOM      9  C12 UNL     1      16.025   0.177  21.014  0.00  0.00    +0.028 A 
ATOM     10  C13 UNL     1      16.292  -0.730  22.034  0.00  0.00    +0.066 A 
ATOM     11  N2  UNL     1      17.397  -1.463  22.233  0.00  0.00    -0.277 N 
ATOM     12  N3  UNL     1      17.224  -2.192  23.330  0.00  0.00    -0.181 NA
ATOM     13  C14 UNL     1      15.997  -1.921  23.837  0.00  0.00    +0.142 A 
ATOM     14  C15 UNL     1      15.390  -0.992  23.021  0.00  0.00    +0.020 A 
ATOM     15  C16 UNL     1      14.146  -0.371  23.074  0.00  0.00    +0.020 A 
ATOM     16  H13 UNL     1      18.257  -1.474  21.640  0.00  0.00    +0.189 HD
ENDBRANCH   5   7
BRANCH   1  18
ATOM     17  N1  UNL     1      10.319   5.617  21.640  0.00  0.00    -0.303 N 
ATOM     18  C4  UNL     1      11.032   4.576  20.951  0.00  0.00    +0.245 C 
ATOM     19  O1  UNL     1      11.581   4.825  19.843  0.00  0.00    -0.270 OA
ATOM     20  H7  UNL     1      10.116   5.484  22.656  0.00  0.00    +0.150 HD
BRANCH  17  21
ATOM     21  C3  UNL     1       9.937   6.873  20.976  0.00  0.00    +0.122 C 
BRANCH  21  22
ATOM     22  C18 UNL     1      10.310   8.087  21.817  0.00  0.00    +0.064 A 
ATOM     23  N4  UNL     1      10.080   8.050  23.160  0.00  0.00    -0.258 NA
ATOM     24  C19 UNL     1      10.351   9.097  23.980  0.00  0.00    +0.111 A 
ATOM     25  C20 UNL     1      10.879  10.273  23.455  0.00  0.00    +0.020 A 
ATOM     26  C21 UNL     1      11.115  10.362  22.086  0.00  0.00    +0.006 A 
ATOM     27  C22 UNL     1      10.823   9.279  21.241  0.00  0.00    -0.027 A 
ATOM     28  C23 UNL     1      11.091   9.410  19.764  0.00  0.00    +0.045 C 
ENDBRANCH  21  22
BRANCH  21  30
ATOM     29  C1  UNL     1       7.602   5.908  21.479  0.00  0.00    +0.006 C 
ATOM     30  C2  UNL     1       8.431   6.877  20.633  0.00  0.00    +0.025 C 
ENDBRANCH  21  30
ENDBRANCH  17  21
ENDBRANCH   1  18
TORSDOF 5
ENDMDL
MODEL 8
REMARK VINA RESULT:    -6.610     14.027     17.005
REMARK INTER + INTRA:          -9.732
REMARK INTER:                  -8.591
REMARK INTRA:                  -1.142
REMARK UNBOUND:                -1.190
REMARK  Name = /home/qwerty/github/datacon2025hack/step_04_hit_selection/docking/ligands/lig_97.pdb
REMARK  7 active torsions:
REMARK  status: ('A' for Active; 'I' for Inactive)
REMARK    1  A    between atoms: C1_1  and  C2_2
REMARK    2  A    between atoms: C2_2  and  C3_3
REMARK    3  A    between atoms: C3_3  and  N1_4
REMARK    4  A    between atoms: C3_3  and  C18_22
REMARK    5  A    between atoms: C4_5  and  C5_7
REMARK    6  A    between atoms: C9_11  and  C10_12
REMARK    7  A    between atoms: C22_27  and  C23_28
REMARK                            x       y       z     vdW  Elec       q    Type
REMARK                         _______ _______ _______ _____ _____    ______ ____
ROOT
ATOM      1  C5  UNL     1      20.488   2.074  25.340  0.00  0.00    +0.037 A 
ATOM      2  C6  UNL     1      21.600   2.781  24.852  0.00  0.00    +0.013 A 
ATOM      3  C7  UNL     1      22.587   3.236  25.728  0.00  0.00    +0.001 A 
ATOM      4  C8  UNL     1      22.476   2.998  27.100  0.00  0.00    +0.008 A 
ATOM      5  C9  UNL     1      21.367   2.305  27.613  0.00  0.00    -0.017 A 
ATOM      6  C17 UNL     1      20.375   1.849  26.725  0.00  0.00    +0.021 A 
ENDROOT
BRANCH   5   7
ATOM      7  C10 UNL     1      21.243   2.056  29.072  0.00  0.00    -0.017 A 
ATOM      8  C11 UNL     1      20.738   0.815  29.551  0.00  0.00    +0.010 A 
ATOM      9  C12 UNL     1      20.617   0.568  30.932  0.00  0.00    +0.028 A 
ATOM     10  C13 UNL     1      21.006   1.579  31.804  0.00  0.00    +0.066 A 
ATOM     11  N2  UNL     1      20.987   1.580  33.145  0.00  0.00    -0.277 N 
ATOM     12  N3  UNL     1      21.450   2.752  33.569  0.00  0.00    -0.181 NA
ATOM     13  C14 UNL     1      21.768   3.504  32.488  0.00  0.00    +0.142 A 
ATOM     14  C15 UNL     1      21.490   2.772  31.356  0.00  0.00    +0.020 A 
ATOM     15  C16 UNL     1      21.626   3.056  30.000  0.00  0.00    +0.020 A 
ATOM     16  H13 UNL     1      20.668   0.806  33.768  0.00  0.00    +0.189 HD
ENDBRANCH   5   7
BRANCH   1  18
ATOM     17  N1  UNL     1      18.600   2.516  23.697  0.00  0.00    -0.303 N 
ATOM     18  C4  UNL     1      19.430   1.591  24.421  0.00  0.00    +0.245 C 
ATOM     19  O1  UNL     1      19.266   0.351  24.262  0.00  0.00    -0.270 OA
ATOM     20  H7  UNL     1      18.920   3.507  23.621  0.00  0.00    +0.150 HD
BRANCH  17  21
ATOM     21  C3  UNL     1      17.369   2.090  23.014  0.00  0.00    +0.122 C 
BRANCH  21  22
ATOM     22  C18 UNL     1      17.057   2.978  21.817  0.00  0.00    +0.064 A 
ATOM     23  N4  UNL     1      17.283   4.319  21.917  0.00  0.00    -0.258 NA
ATOM     24  C19 UNL     1      17.004   5.188  20.913  0.00  0.00    +0.111 A 
ATOM     25  C20 UNL     1      16.457   4.721  19.721  0.00  0.00    +0.020 A 
ATOM     26  C21 UNL     1      16.194   3.361  19.579  0.00  0.00    +0.006 A 
ATOM     27  C22 UNL     1      16.475   2.468  20.626  0.00  0.00    -0.027 A 
ATOM     28  C23 UNL     1      16.178   1.003  20.438  0.00  0.00    +0.045 C 
ENDBRANCH  21  22
BRANCH  21  30
ATOM     29  C1  UNL     1      15.620   0.644  24.234  0.00  0.00    +0.006 C 
ATOM     30  C2  UNL     1      16.180   2.049  24.000  0.00  0.00    +0.025 C 
ENDBRANCH  21  30
ENDBRANCH  17  21
ENDBRANCH   1  18
TORSDOF 5
ENDMDL
MODEL 9
REMARK VINA RESULT:    -6.473     13.958     15.253
REMARK INTER + INTRA:          -9.554
REMARK INTER:                  -8.445
REMARK INTRA:                  -1.109
REMARK UNBOUND:                -1.190
REMARK  Name = /home/qwerty/github/datacon2025hack/step_04_hit_selection/docking/ligands/lig_97.pdb
REMARK  7 active torsions:
REMARK  status: ('A' for Active; 'I' for Inactive)
REMARK    1  A    between atoms: C1_1  and  C2_2
REMARK    2  A    between atoms: C2_2  and  C3_3
REMARK    3  A    between atoms: C3_3  and  N1_4
REMARK    4  A    between atoms: C3_3  and  C18_22
REMARK    5  A    between atoms: C4_5  and  C5_7
REMARK    6  A    between atoms: C9_11  and  C10_12
REMARK    7  A    between atoms: C22_27  and  C23_28
REMARK                            x       y       z     vdW  Elec       q    Type
REMARK                         _______ _______ _______ _____ _____    ______ ____
ROOT
ATOM      1  C5  UNL     1      18.080   0.327  24.321  0.00  0.00    +0.037 A 
ATOM      2  C6  UNL     1      17.593  -0.988  24.409  0.00  0.00    +0.013 A 
ATOM      3  C7  UNL     1      16.549  -1.411  23.585  0.00  0.00    +0.001 A 
ATOM      4  C8  UNL     1      15.973  -0.530  22.669  0.00  0.00    +0.008 A 
ATOM      5  C9  UNL     1      16.433   0.794  22.570  0.00  0.00    -0.017 A 
ATOM      6  C17 UNL     1      17.486   1.215  23.405  0.00  0.00    +0.021 A 
ENDROOT
BRANCH   5   7
ATOM      7  C10 UNL     1      15.817   1.736  21.601  0.00  0.00    -0.017 A 
ATOM      8  C11 UNL     1      16.629   2.447  20.673  0.00  0.00    +0.010 A 
ATOM      9  C12 UNL     1      16.055   3.342  19.749  0.00  0.00    +0.028 A 
ATOM     10  C13 UNL     1      14.675   3.504  19.781  0.00  0.00    +0.066 A 
ATOM     11  N2  UNL     1      13.907   4.287  19.009  0.00  0.00    -0.277 N 
ATOM     12  N3  UNL     1      12.641   4.130  19.381  0.00  0.00    -0.181 NA
ATOM     13  C14 UNL     1      12.601   3.236  20.399  0.00  0.00    +0.142 A 
ATOM     14  C15 UNL     1      13.889   2.829  20.666  0.00  0.00    +0.020 A 
ATOM     15  C16 UNL     1      14.414   1.936  21.595  0.00  0.00    +0.020 A 
ATOM     16  H13 UNL     1      14.227   4.920  18.242  0.00  0.00    +0.189 HD
ENDBRANCH   5   7
BRANCH   1  18
ATOM     17  N1  UNL     1      18.973   1.014  26.599  0.00  0.00    -0.303 N 
ATOM     18  C4  UNL     1      19.184   0.791  25.194  0.00  0.00    +0.245 C 
ATOM     19  O1  UNL     1      20.328   0.979  24.699  0.00  0.00    -0.270 OA
ATOM     20  H7  UNL     1      18.122   0.598  27.040  0.00  0.00    +0.150 HD
BRANCH  17  21
ATOM     21  C3  UNL     1      19.945   1.742  27.428  0.00  0.00    +0.122 C 
BRANCH  21  22
ATOM     22  C18 UNL     1      19.889   1.290  28.882  0.00  0.00    +0.064 A 
ATOM     23  N4  UNL     1      18.696   1.342  29.540  0.00  0.00    -0.258 NA
ATOM     24  C19 UNL     1      18.561   0.991  30.844  0.00  0.00    +0.111 A 
ATOM     25  C20 UNL     1      19.670   0.563  31.568  0.00  0.00    +0.020 A 
ATOM     26  C21 UNL     1      20.913   0.510  30.942  0.00  0.00    +0.006 A 
ATOM     27  C22 UNL     1      21.049   0.885  29.595  0.00  0.00    -0.027 A 
ATOM     28  C23 UNL     1      22.408   0.815  28.949  0.00  0.00    +0.045 C 
ENDBRANCH  21  22
BRANCH  21  30
ATOM     29  C1  UNL     1      21.034   4.064  27.187  0.00  0.00    +0.006 C 
ATOM     30  C2  UNL     1      19.733   3.268  27.313  0.00  0.00    +0.025 C 
ENDBRANCH  21  30
ENDBRANCH  17  21
ENDBRANCH   1  18
TORSDOF 5
ENDMDL
