MODEL 1
REMARK VINA RESULT:    -6.678      0.000      0.000
REMARK INTER + INTRA:         -11.044
REMARK INTER:                  -9.216
REMARK INTRA:                  -1.829
REMARK UNBOUND:                -1.829
REMARK  Name = /home/qwerty/github/datacon2025hack/step_04_hit_selection/docking/ligands/lig_336.pdb
REMARK  9 active torsions:
REMARK  status: ('A' for Active; 'I' for Inactive)
REMARK    1  A    between atoms: C1_1  and  C2_2
REMARK    2  A    between atoms: C2_2  and  C3_3
REMARK    3  A    between atoms: C3_3  and  C4_4
REMARK    4  A    between atoms: C3_3  and  N1_5
REMARK    5  A    between atoms: C6_8  and  C7_9
REMARK    6  A    between atoms: N3_11  and  C8_12
REMARK    7  A    between atoms: C12_16  and  O2_17
REMARK    8  A    between atoms: C14_19  and  C15_20
REMARK    9  A    between atoms: C18_24  and  C19_26
REMARK                            x       y       z     vdW  Elec       q    Type
REMARK                         _______ _______ _______ _____ _____    ______ ____
ROOT
ATOM      1  N1  UNL     1      20.440   7.367  36.282  0.00  0.00    -0.265 N 
ATOM      2  N2  UNL     1      19.935   7.358  37.506  0.00  0.00    -0.178 NA
ATOM      3  C5  UNL     1      19.093   6.320  37.621  0.00  0.00    +0.147 A 
ATOM      4  C6  UNL     1      19.045   5.638  36.427  0.00  0.00    +0.078 A 
ATOM      5  C14 UNL     1      19.931   6.312  35.579  0.00  0.00    +0.055 A 
ENDROOT
BRANCH   5   6
ATOM      6  C15 UNL     1      20.299   5.940  34.148  0.00  0.00    +0.041 C 
ATOM      7  C16 UNL     1      19.077   5.973  33.208  0.00  0.00    +0.029 C 
ATOM      8  C17 UNL     1      19.516   5.700  31.765  0.00  0.00    +0.109 C 
ATOM      9  N4  UNL     1      20.265   4.439  31.710  0.00  0.00    -0.297 N 
ATOM     10  C18 UNL     1      19.754   3.321  30.956  0.00  0.00    +0.247 C 
ATOM     11  O3  UNL     1      18.508   3.150  30.872  0.00  0.00    -0.270 OA
ATOM     12  C25 UNL     1      21.436   4.297  32.589  0.00  0.00    +0.109 C 
ATOM     13  C26 UNL     1      21.042   4.593  34.042  0.00  0.00    +0.029 C 
BRANCH  10  14
ATOM     14  C19 UNL     1      20.658   2.375  30.256  0.00  0.00    +0.040 A 
ATOM     15  C20 UNL     1      20.738   1.029  30.655  0.00  0.00    +0.013 A 
ATOM     16  C21 UNL     1      21.584   0.141  29.981  0.00  0.00    +0.004 A 
ATOM     17  C22 UNL     1      22.359   0.586  28.908  0.00  0.00    +0.038 A 
ATOM     18  C23 UNL     1      22.301   1.926  28.518  0.00  0.00    +0.124 A 
ATOM     19  F1  UNL     1      23.064   2.362  27.490  0.00  0.00    -0.205 F 
ATOM     20  C24 UNL     1      21.460   2.820  29.191  0.00  0.00    +0.051 A 
ENDBRANCH  10  14
ENDBRANCH   5   6
BRANCH   4  21
ATOM     21  C7  UNL     1      18.202   4.455  36.182  0.00  0.00    +0.252 C 
ATOM     22  O1  UNL     1      16.965   4.598  35.985  0.00  0.00    -0.270 OA
ATOM     23  N3  UNL     1      18.763   3.138  36.285  0.00  0.00    -0.281 N 
ATOM     24  H11 UNL     1      19.677   3.025  36.779  0.00  0.00    +0.155 HD
BRANCH  23  25
ATOM     25  C8  UNL     1      18.099   1.949  35.819  0.00  0.00    +0.037 A 
ATOM     26  C9  UNL     1      17.472   1.101  36.744  0.00  0.00    +0.023 A 
ATOM     27  C10 UNL     1      16.851  -0.080  36.318  0.00  0.00    +0.005 A 
ATOM     28  C11 UNL     1      16.859  -0.428  34.967  0.00  0.00    +0.045 A 
ATOM     29  C12 UNL     1      17.492   0.404  34.031  0.00  0.00    +0.119 A 
ATOM     30  C13 UNL     1      18.116   1.586  34.458  0.00  0.00    +0.068 A 
BRANCH  29  31
ATOM     31  O2  UNL     1      17.508   0.064  32.680  0.00  0.00    -0.507 OA
ATOM     32  H15 UNL     1      18.282   0.323  32.077  0.00  0.00    +0.292 HD
ENDBRANCH  29  31
ENDBRANCH  23  25
ENDBRANCH   4  21
BRANCH   1  33
ATOM     33  C3  UNL     1      21.414   8.404  35.891  0.00  0.00    +0.104 C 
ATOM     34  C4  UNL     1      20.855   9.366  34.831  0.00  0.00    +0.032 C 
BRANCH  33  36
ATOM     35  C1  UNL     1      23.306   6.822  36.545  0.00  0.00    +0.006 C 
ATOM     36  C2  UNL     1      22.789   7.815  35.502  0.00  0.00    +0.023 C 
ENDBRANCH  33  36
ENDBRANCH   1  33
TORSDOF 7
ENDMDL
MODEL 2
REMARK VINA RESULT:    -6.643     10.531     14.245
REMARK INTER + INTRA:         -10.996
REMARK INTER:                  -9.521
REMARK INTRA:                  -1.476
REMARK UNBOUND:                -1.829
REMARK  Name = /home/qwerty/github/datacon2025hack/step_04_hit_selection/docking/ligands/lig_336.pdb
REMARK  9 active torsions:
REMARK  status: ('A' for Active; 'I' for Inactive)
REMARK    1  A    between atoms: C1_1  and  C2_2
REMARK    2  A    between atoms: C2_2  and  C3_3
REMARK    3  A    between atoms: C3_3  and  C4_4
REMARK    4  A    between atoms: C3_3  and  N1_5
REMARK    5  A    between atoms: C6_8  and  C7_9
REMARK    6  A    between atoms: N3_11  and  C8_12
REMARK    7  A    between atoms: C12_16  and  O2_17
REMARK    8  A    between atoms: C14_19  and  C15_20
REMARK    9  A    between atoms: C18_24  and  C19_26
REMARK                            x       y       z     vdW  Elec       q    Type
REMARK                         _______ _______ _______ _____ _____    ______ ____
ROOT
ATOM      1  N1  UNL     1      10.377  13.484  29.362  0.00  0.00    -0.265 N 
ATOM      2  N2  UNL     1      10.529  14.086  28.192  0.00  0.00    -0.178 NA
ATOM      3  C5  UNL     1      11.671  14.788  28.210  0.00  0.00    +0.147 A 
ATOM      4  C6  UNL     1      12.276  14.642  29.437  0.00  0.00    +0.078 A 
ATOM      5  C14 UNL     1      11.441  13.785  30.162  0.00  0.00    +0.055 A 
ENDROOT
BRANCH   5   6
ATOM      6  C15 UNL     1      11.671  13.249  31.571  0.00  0.00    +0.041 C 
ATOM      7  C16 UNL     1      11.250  14.263  32.653  0.00  0.00    +0.029 C 
ATOM      8  C17 UNL     1      11.396  13.638  34.045  0.00  0.00    +0.109 C 
ATOM      9  N4  UNL     1      12.764  13.133  34.214  0.00  0.00    -0.297 N 
ATOM     10  C18 UNL     1      13.630  13.700  35.217  0.00  0.00    +0.247 C 
ATOM     11  O3  UNL     1      13.526  14.922  35.505  0.00  0.00    -0.270 OA
ATOM     12  C25 UNL     1      13.270  12.176  33.218  0.00  0.00    +0.109 C 
ATOM     13  C26 UNL     1      13.112  12.755  31.805  0.00  0.00    +0.029 C 
BRANCH  10  14
ATOM     14  C19 UNL     1      14.631  12.874  35.937  0.00  0.00    +0.040 A 
ATOM     15  C20 UNL     1      14.227  11.796  36.743  0.00  0.00    +0.013 A 
ATOM     16  C21 UNL     1      15.179  11.014  37.410  0.00  0.00    +0.004 A 
ATOM     17  C22 UNL     1      16.539  11.303  37.280  0.00  0.00    +0.038 A 
ATOM     18  C23 UNL     1      16.949  12.385  36.497  0.00  0.00    +0.124 A 
ATOM     19  F1  UNL     1      18.265  12.675  36.386  0.00  0.00    -0.205 F 
ATOM     20  C24 UNL     1      16.001  13.172  35.833  0.00  0.00    +0.051 A 
ENDBRANCH  10  14
ENDBRANCH   5   6
BRANCH   4  21
ATOM     21  C7  UNL     1      13.540  15.294  29.821  0.00  0.00    +0.252 C 
ATOM     22  O1  UNL     1      13.572  16.052  30.829  0.00  0.00    -0.270 OA
ATOM     23  N3  UNL     1      14.700  15.164  28.986  0.00  0.00    -0.281 N 
ATOM     24  H11 UNL     1      14.569  14.836  28.003  0.00  0.00    +0.155 HD
BRANCH  23  25
ATOM     25  C8  UNL     1      16.026  15.542  29.398  0.00  0.00    +0.037 A 
ATOM     26  C9  UNL     1      16.540  16.790  29.016  0.00  0.00    +0.023 A 
ATOM     27  C10 UNL     1      17.841  17.163  29.374  0.00  0.00    +0.005 A 
ATOM     28  C11 UNL     1      18.643  16.289  30.109  0.00  0.00    +0.045 A 
ATOM     29  C12 UNL     1      18.149  15.033  30.489  0.00  0.00    +0.119 A 
ATOM     30  C13 UNL     1      16.845  14.657  30.128  0.00  0.00    +0.068 A 
BRANCH  29  31
ATOM     31  O2  UNL     1      18.943  14.151  31.220  0.00  0.00    -0.507 OA
ATOM     32  H15 UNL     1      18.653  13.194  31.392  0.00  0.00    +0.292 HD
ENDBRANCH  29  31
ENDBRANCH  23  25
ENDBRANCH   4  21
BRANCH   1  33
ATOM     33  C3  UNL     1       9.199  12.628  29.605  0.00  0.00    +0.104 C 
ATOM     34  C4  UNL     1       9.452  11.161  29.223  0.00  0.00    +0.032 C 
BRANCH  33  36
ATOM     35  C1  UNL     1       7.183  14.159  29.925  0.00  0.00    +0.006 C 
ATOM     36  C2  UNL     1       7.907  13.199  28.979  0.00  0.00    +0.023 C 
ENDBRANCH  33  36
ENDBRANCH   1  33
TORSDOF 7
ENDMDL
MODEL 3
REMARK VINA RESULT:    -6.613      7.195     12.113
REMARK INTER + INTRA:         -10.955
REMARK INTER:                  -9.021
REMARK INTRA:                  -1.934
REMARK UNBOUND:                -1.829
REMARK  Name = /home/qwerty/github/datacon2025hack/step_04_hit_selection/docking/ligands/lig_336.pdb
REMARK  9 active torsions:
REMARK  status: ('A' for Active; 'I' for Inactive)
REMARK    1  A    between atoms: C1_1  and  C2_2
REMARK    2  A    between atoms: C2_2  and  C3_3
REMARK    3  A    between atoms: C3_3  and  C4_4
REMARK    4  A    between atoms: C3_3  and  N1_5
REMARK    5  A    between atoms: C6_8  and  C7_9
REMARK    6  A    between atoms: N3_11  and  C8_12
REMARK    7  A    between atoms: C12_16  and  O2_17
REMARK    8  A    between atoms: C14_19  and  C15_20
REMARK    9  A    between atoms: C18_24  and  C19_26
REMARK                            x       y       z     vdW  Elec       q    Type
REMARK                         _______ _______ _______ _____ _____    ______ ____
ROOT
ATOM      1  N1  UNL     1      15.563   1.122  22.031  0.00  0.00    -0.265 N 
ATOM      2  N2  UNL     1      15.465   1.489  20.762  0.00  0.00    -0.178 NA
ATOM      3  C5  UNL     1      16.320   2.496  20.533  0.00  0.00    +0.147 A 
ATOM      4  C6  UNL     1      16.990   2.797  21.697  0.00  0.00    +0.078 A 
ATOM      5  C14 UNL     1      16.506   1.892  22.649  0.00  0.00    +0.055 A 
ENDROOT
BRANCH   5   6
ATOM      6  C15 UNL     1      16.954   1.753  24.099  0.00  0.00    +0.041 C 
ATOM      7  C16 UNL     1      16.871   3.090  24.862  0.00  0.00    +0.029 C 
ATOM      8  C17 UNL     1      17.225   2.875  26.338  0.00  0.00    +0.109 C 
ATOM      9  N4  UNL     1      18.536   2.223  26.438  0.00  0.00    -0.297 N 
ATOM     10  C18 UNL     1      19.642   2.904  27.063  0.00  0.00    +0.247 C 
ATOM     11  O3  UNL     1      19.730   4.158  26.968  0.00  0.00    -0.270 OA
ATOM     12  C25 UNL     1      18.726   0.951  25.724  0.00  0.00    +0.109 C 
ATOM     13  C26 UNL     1      18.352   1.118  24.245  0.00  0.00    +0.029 C 
BRANCH  10  14
ATOM     14  C19 UNL     1      20.672   2.168  27.838  0.00  0.00    +0.040 A 
ATOM     15  C20 UNL     1      22.031   2.250  27.485  0.00  0.00    +0.013 A 
ATOM     16  C21 UNL     1      22.998   1.563  28.229  0.00  0.00    +0.004 A 
ATOM     17  C22 UNL     1      22.618   0.787  29.327  0.00  0.00    +0.038 A 
ATOM     18  C23 UNL     1      21.269   0.684  29.672  0.00  0.00    +0.124 A 
ATOM     19  F1  UNL     1      20.900  -0.081  30.724  0.00  0.00    -0.205 F 
ATOM     20  C24 UNL     1      20.298   1.365  28.929  0.00  0.00    +0.051 A 
ENDBRANCH  10  14
ENDBRANCH   5   6
BRANCH   4  21
ATOM     21  C7  UNL     1      17.991   3.870  21.823  0.00  0.00    +0.252 C 
ATOM     22  O1  UNL     1      17.633   5.075  21.727  0.00  0.00    -0.270 OA
ATOM     23  N3  UNL     1      19.385   3.545  21.935  0.00  0.00    -0.281 N 
ATOM     24  H11 UNL     1      19.694   2.583  21.667  0.00  0.00    +0.155 HD
BRANCH  23  25
ATOM     25  C8  UNL     1      20.398   4.494  22.316  0.00  0.00    +0.037 A 
ATOM     26  C9  UNL     1      21.159   5.128  21.322  0.00  0.00    +0.023 A 
ATOM     27  C10 UNL     1      22.174   6.028  21.670  0.00  0.00    +0.005 A 
ATOM     28  C11 UNL     1      22.444   6.294  23.014  0.00  0.00    +0.045 A 
ATOM     29  C12 UNL     1      21.700   5.659  24.019  0.00  0.00    +0.119 A 
ATOM     30  C13 UNL     1      20.684   4.756  23.671  0.00  0.00    +0.068 A 
BRANCH  29  31
ATOM     31  O2  UNL     1      21.964   5.915  25.363  0.00  0.00    -0.507 OA
ATOM     32  H15 UNL     1      22.009   6.863  25.724  0.00  0.00    +0.292 HD
ENDBRANCH  29  31
ENDBRANCH  23  25
ENDBRANCH   4  21
BRANCH   1  33
ATOM     33  C3  UNL     1      14.735   0.014  22.546  0.00  0.00    +0.104 C 
ATOM     34  C4  UNL     1      13.764   0.470  23.646  0.00  0.00    +0.032 C 
BRANCH  33  36
ATOM     35  C1  UNL     1      15.313  -1.636  24.405  0.00  0.00    +0.006 C 
ATOM     36  C2  UNL     1      15.575  -1.217  22.958  0.00  0.00    +0.023 C 
ENDBRANCH  33  36
ENDBRANCH   1  33
TORSDOF 7
ENDMDL
MODEL 4
REMARK VINA RESULT:    -6.462      6.959     10.024
REMARK INTER + INTRA:         -10.746
REMARK INTER:                  -9.275
REMARK INTRA:                  -1.472
REMARK UNBOUND:                -1.829
REMARK  Name = /home/qwerty/github/datacon2025hack/step_04_hit_selection/docking/ligands/lig_336.pdb
REMARK  9 active torsions:
REMARK  status: ('A' for Active; 'I' for Inactive)
REMARK    1  A    between atoms: C1_1  and  C2_2
REMARK    2  A    between atoms: C2_2  and  C3_3
REMARK    3  A    between atoms: C3_3  and  C4_4
REMARK    4  A    between atoms: C3_3  and  N1_5
REMARK    5  A    between atoms: C6_8  and  C7_9
REMARK    6  A    between atoms: N3_11  and  C8_12
REMARK    7  A    between atoms: C12_16  and  O2_17
REMARK    8  A    between atoms: C14_19  and  C15_20
REMARK    9  A    between atoms: C18_24  and  C19_26
REMARK                            x       y       z     vdW  Elec       q    Type
REMARK                         _______ _______ _______ _____ _____    ______ ____
ROOT
ATOM      1  N1  UNL     1      21.029   5.315  23.065  0.00  0.00    -0.265 N 
ATOM      2  N2  UNL     1      22.222   5.832  23.316  0.00  0.00    -0.178 NA
ATOM      3  C5  UNL     1      22.617   5.441  24.537  0.00  0.00    +0.147 A 
ATOM      4  C6  UNL     1      21.641   4.650  25.099  0.00  0.00    +0.078 A 
ATOM      5  C14 UNL     1      20.633   4.562  24.133  0.00  0.00    +0.055 A 
ENDROOT
BRANCH   5   6
ATOM      6  C15 UNL     1      19.341   3.757  24.220  0.00  0.00    +0.041 C 
ATOM      7  C16 UNL     1      18.639   3.935  25.581  0.00  0.00    +0.029 C 
ATOM      8  C17 UNL     1      17.295   3.198  25.579  0.00  0.00    +0.109 C 
ATOM      9  N4  UNL     1      17.507   1.793  25.208  0.00  0.00    -0.297 N 
ATOM     10  C18 UNL     1      17.215   0.740  26.148  0.00  0.00    +0.247 C 
ATOM     11  O3  UNL     1      17.382   0.946  27.380  0.00  0.00    -0.270 OA
ATOM     12  C25 UNL     1      18.192   1.516  23.936  0.00  0.00    +0.109 C 
ATOM     13  C26 UNL     1      19.532   2.263  23.888  0.00  0.00    +0.029 C 
BRANCH  10  14
ATOM     14  C19 UNL     1      16.700  -0.579  25.703  0.00  0.00    +0.040 A 
ATOM     15  C20 UNL     1      17.561  -1.529  25.125  0.00  0.00    +0.013 A 
ATOM     16  C21 UNL     1      17.070  -2.776  24.720  0.00  0.00    +0.004 A 
ATOM     17  C22 UNL     1      15.718  -3.085  24.885  0.00  0.00    +0.038 A 
ATOM     18  C23 UNL     1      14.852  -2.140  25.440  0.00  0.00    +0.124 A 
ATOM     19  F1  UNL     1      13.539  -2.433  25.584  0.00  0.00    -0.205 F 
ATOM     20  C24 UNL     1      15.337  -0.891  25.842  0.00  0.00    +0.051 A 
ENDBRANCH  10  14
ENDBRANCH   5   6
BRANCH   4  21
ATOM     21  C7  UNL     1      21.726   4.062  26.447  0.00  0.00    +0.252 C 
ATOM     22  O1  UNL     1      21.784   4.817  27.455  0.00  0.00    -0.270 OA
ATOM     23  N3  UNL     1      21.862   2.642  26.606  0.00  0.00    -0.281 N 
ATOM     24  H11 UNL     1      22.158   2.076  25.780  0.00  0.00    +0.155 HD
BRANCH  23  25
ATOM     25  C8  UNL     1      21.695   1.960  27.863  0.00  0.00    +0.037 A 
ATOM     26  C9  UNL     1      22.815   1.415  28.507  0.00  0.00    +0.023 A 
ATOM     27  C10 UNL     1      22.672   0.715  29.712  0.00  0.00    +0.005 A 
ATOM     28  C11 UNL     1      21.408   0.548  30.279  0.00  0.00    +0.045 A 
ATOM     29  C12 UNL     1      20.276   1.078  29.641  0.00  0.00    +0.119 A 
ATOM     30  C13 UNL     1      20.419   1.777  28.433  0.00  0.00    +0.068 A 
BRANCH  29  31
ATOM     31  O2  UNL     1      19.009   0.914  30.198  0.00  0.00    -0.507 OA
ATOM     32  H15 UNL     1      18.428   1.711  30.438  0.00  0.00    +0.292 HD
ENDBRANCH  29  31
ENDBRANCH  23  25
ENDBRANCH   4  21
BRANCH   1  33
ATOM     33  C3  UNL     1      20.366   5.577  21.772  0.00  0.00    +0.104 C 
ATOM     34  C4  UNL     1      21.329   5.450  20.582  0.00  0.00    +0.032 C 
BRANCH  33  36
ATOM     35  C1  UNL     1      20.317   8.016  21.022  0.00  0.00    +0.006 C 
ATOM     36  C2  UNL     1      19.575   6.905  21.767  0.00  0.00    +0.023 C 
ENDBRANCH  33  36
ENDBRANCH   1  33
TORSDOF 7
ENDMDL
MODEL 5
REMARK VINA RESULT:    -6.435      5.182      8.740
REMARK INTER + INTRA:         -10.709
REMARK INTER:                  -8.986
REMARK INTRA:                  -1.723
REMARK UNBOUND:                -1.829
REMARK  Name = /home/qwerty/github/datacon2025hack/step_04_hit_selection/docking/ligands/lig_336.pdb
REMARK  9 active torsions:
REMARK  status: ('A' for Active; 'I' for Inactive)
REMARK    1  A    between atoms: C1_1  and  C2_2
REMARK    2  A    between atoms: C2_2  and  C3_3
REMARK    3  A    between atoms: C3_3  and  C4_4
REMARK    4  A    between atoms: C3_3  and  N1_5
REMARK    5  A    between atoms: C6_8  and  C7_9
REMARK    6  A    between atoms: N3_11  and  C8_12
REMARK    7  A    between atoms: C12_16  and  O2_17
REMARK    8  A    between atoms: C14_19  and  C15_20
REMARK    9  A    between atoms: C18_24  and  C19_26
REMARK                            x       y       z     vdW  Elec       q    Type
REMARK                         _______ _______ _______ _____ _____    ______ ____
ROOT
ATOM      1  N1  UNL     1      16.614  13.252  35.176  0.00  0.00    -0.265 N 
ATOM      2  N2  UNL     1      17.177  14.120  34.350  0.00  0.00    -0.178 NA
ATOM      3  C5  UNL     1      18.435  13.730  34.101  0.00  0.00    +0.147 A 
ATOM      4  C6  UNL     1      18.699  12.572  34.797  0.00  0.00    +0.078 A 
ATOM      5  C14 UNL     1      17.511  12.266  35.471  0.00  0.00    +0.055 A 
ENDROOT
BRANCH   5   6
ATOM      6  C15 UNL     1      17.236  11.050  36.348  0.00  0.00    +0.041 C 
ATOM      7  C16 UNL     1      18.342  10.833  37.400  0.00  0.00    +0.029 C 
ATOM      8  C17 UNL     1      17.966   9.670  38.325  0.00  0.00    +0.109 C 
ATOM      9  N4  UNL     1      17.681   8.476  37.519  0.00  0.00    -0.297 N 
ATOM     10  C18 UNL     1      18.508   7.302  37.640  0.00  0.00    +0.247 C 
ATOM     11  O3  UNL     1      19.735   7.432  37.894  0.00  0.00    -0.270 OA
ATOM     12  C25 UNL     1      16.657   8.586  36.469  0.00  0.00    +0.109 C 
ATOM     13  C26 UNL     1      16.983   9.762  35.538  0.00  0.00    +0.029 C 
BRANCH  10  14
ATOM     14  C19 UNL     1      17.946   5.935  37.494  0.00  0.00    +0.040 A 
ATOM     15  C20 UNL     1      16.899   5.497  38.323  0.00  0.00    +0.013 A 
ATOM     16  C21 UNL     1      16.366   4.211  38.170  0.00  0.00    +0.004 A 
ATOM     17  C22 UNL     1      16.874   3.353  37.193  0.00  0.00    +0.038 A 
ATOM     18  C23 UNL     1      17.928   3.773  36.378  0.00  0.00    +0.124 A 
ATOM     19  F1  UNL     1      18.431   2.935  35.443  0.00  0.00    -0.205 F 
ATOM     20  C24 UNL     1      18.467   5.055  36.530  0.00  0.00    +0.051 A 
ENDBRANCH  10  14
ENDBRANCH   5   6
BRANCH   4  21
ATOM     21  C7  UNL     1      19.994  11.871  34.780  0.00  0.00    +0.252 C 
ATOM     22  O1  UNL     1      21.014  12.430  35.265  0.00  0.00    -0.270 OA
ATOM     23  N3  UNL     1      20.121  10.609  34.107  0.00  0.00    -0.281 N 
ATOM     24  H11 UNL     1      19.377  10.332  33.427  0.00  0.00    +0.155 HD
BRANCH  23  25
ATOM     25  C8  UNL     1      21.257   9.738  34.252  0.00  0.00    +0.037 A 
ATOM     26  C9  UNL     1      22.118   9.538  33.163  0.00  0.00    +0.023 A 
ATOM     27  C10 UNL     1      23.209   8.667  33.269  0.00  0.00    +0.005 A 
ATOM     28  C11 UNL     1      23.445   7.982  34.462  0.00  0.00    +0.045 A 
ATOM     29  C12 UNL     1      22.587   8.162  35.557  0.00  0.00    +0.119 A 
ATOM     30  C13 UNL     1      21.492   9.033  35.450  0.00  0.00    +0.068 A 
BRANCH  29  31
ATOM     31  O2  UNL     1      22.811   7.480  36.751  0.00  0.00    -0.507 OA
ATOM     32  H15 UNL     1      22.121   7.470  37.495  0.00  0.00    +0.292 HD
ENDBRANCH  29  31
ENDBRANCH  23  25
ENDBRANCH   4  21
BRANCH   1  33
ATOM     33  C3  UNL     1      15.213  13.439  35.604  0.00  0.00    +0.104 C 
ATOM     34  C4  UNL     1      14.248  13.562  34.414  0.00  0.00    +0.032 C 
BRANCH  33  36
ATOM     35  C1  UNL     1      14.267  15.765  36.058  0.00  0.00    +0.006 C 
ATOM     36  C2  UNL     1      15.051  14.583  36.631  0.00  0.00    +0.023 C 
ENDBRANCH  33  36
ENDBRANCH   1  33
TORSDOF 7
ENDMDL
MODEL 6
REMARK VINA RESULT:    -6.379     13.490     16.376
REMARK INTER + INTRA:         -10.632
REMARK INTER:                  -9.159
REMARK INTRA:                  -1.474
REMARK UNBOUND:                -1.829
REMARK  Name = /home/qwerty/github/datacon2025hack/step_04_hit_selection/docking/ligands/lig_336.pdb
REMARK  9 active torsions:
REMARK  status: ('A' for Active; 'I' for Inactive)
REMARK    1  A    between atoms: C1_1  and  C2_2
REMARK    2  A    between atoms: C2_2  and  C3_3
REMARK    3  A    between atoms: C3_3  and  C4_4
REMARK    4  A    between atoms: C3_3  and  N1_5
REMARK    5  A    between atoms: C6_8  and  C7_9
REMARK    6  A    between atoms: N3_11  and  C8_12
REMARK    7  A    between atoms: C12_16  and  O2_17
REMARK    8  A    between atoms: C14_19  and  C15_20
REMARK    9  A    between atoms: C18_24  and  C19_26
REMARK                            x       y       z     vdW  Elec       q    Type
REMARK                         _______ _______ _______ _____ _____    ______ ____
ROOT
ATOM      1  N1  UNL     1      14.227   2.876  20.632  0.00  0.00    -0.265 N 
ATOM      2  N2  UNL     1      14.841   3.577  19.692  0.00  0.00    -0.178 NA
ATOM      3  C5  UNL     1      14.134   4.689  19.446  0.00  0.00    +0.147 A 
ATOM      4  C6  UNL     1      13.017   4.705  20.250  0.00  0.00    +0.078 A 
ATOM      5  C14 UNL     1      13.099   3.540  21.021  0.00  0.00    +0.055 A 
ENDROOT
BRANCH   5   6
ATOM      6  C15 UNL     1      12.140   3.092  22.118  0.00  0.00    +0.041 C 
ATOM      7  C16 UNL     1      10.810   2.563  21.544  0.00  0.00    +0.029 C 
ATOM      8  C17 UNL     1       9.927   2.024  22.675  0.00  0.00    +0.109 C 
ATOM      9  N4  UNL     1       9.753   3.062  23.698  0.00  0.00    -0.297 N 
ATOM     10  C18 UNL     1       8.445   3.605  23.969  0.00  0.00    +0.247 C 
ATOM     11  O3  UNL     1       7.610   3.706  23.030  0.00  0.00    -0.270 OA
ATOM     12  C25 UNL     1      10.964   3.649  24.292  0.00  0.00    +0.109 C 
ATOM     13  C26 UNL     1      11.890   4.175  23.186  0.00  0.00    +0.029 C 
BRANCH  10  14
ATOM     14  C19 UNL     1       8.047   4.032  25.333  0.00  0.00    +0.040 A 
ATOM     15  C20 UNL     1       7.724   3.081  26.317  0.00  0.00    +0.013 A 
ATOM     16  C21 UNL     1       7.361   3.492  27.606  0.00  0.00    +0.004 A 
ATOM     17  C22 UNL     1       7.316   4.852  27.922  0.00  0.00    +0.038 A 
ATOM     18  C23 UNL     1       7.615   5.803  26.945  0.00  0.00    +0.124 A 
ATOM     19  F1  UNL     1       7.554   7.120  27.247  0.00  0.00    -0.205 F 
ATOM     20  C24 UNL     1       7.974   5.398  25.655  0.00  0.00    +0.051 A 
ENDBRANCH  10  14
ENDBRANCH   5   6
BRANCH   4  21
ATOM     21  C7  UNL     1      11.997   5.767  20.231  0.00  0.00    +0.252 C 
ATOM     22  O1  UNL     1      10.852   5.527  19.763  0.00  0.00    -0.270 OA
ATOM     23  N3  UNL     1      12.341   7.102  20.633  0.00  0.00    -0.281 N 
ATOM     24  H11 UNL     1      13.352   7.361  20.682  0.00  0.00    +0.155 HD
BRANCH  23  25
ATOM     25  C8  UNL     1      11.370   8.133  20.892  0.00  0.00    +0.037 A 
ATOM     26  C9  UNL     1      10.596   8.075  22.060  0.00  0.00    +0.023 A 
ATOM     27  C10 UNL     1       9.620   9.046  22.315  0.00  0.00    +0.005 A 
ATOM     28  C11 UNL     1       9.404  10.079  21.401  0.00  0.00    +0.045 A 
ATOM     29  C12 UNL     1      10.162  10.144  20.223  0.00  0.00    +0.119 A 
ATOM     30  C13 UNL     1      11.138   9.170  19.966  0.00  0.00    +0.068 A 
BRANCH  29  31
ATOM     31  O2  UNL     1       9.951  11.169  19.302  0.00  0.00    -0.507 OA
ATOM     32  H15 UNL     1       9.873  10.982  18.308  0.00  0.00    +0.292 HD
ENDBRANCH  29  31
ENDBRANCH  23  25
ENDBRANCH   4  21
BRANCH   1  33
ATOM     33  C3  UNL     1      14.807   1.603  21.104  0.00  0.00    +0.104 C 
ATOM     34  C4  UNL     1      15.564   1.760  22.432  0.00  0.00    +0.032 C 
BRANCH  33  36
ATOM     35  C1  UNL     1      16.352  -0.353  20.559  0.00  0.00    +0.006 C 
ATOM     36  C2  UNL     1      15.641   0.888  20.017  0.00  0.00    +0.023 C 
ENDBRANCH  33  36
ENDBRANCH   1  33
TORSDOF 7
ENDMDL
MODEL 7
REMARK VINA RESULT:    -6.343      2.997      6.759
REMARK INTER + INTRA:         -10.581
REMARK INTER:                  -9.180
REMARK INTRA:                  -1.402
REMARK UNBOUND:                -1.829
REMARK  Name = /home/qwerty/github/datacon2025hack/step_04_hit_selection/docking/ligands/lig_336.pdb
REMARK  9 active torsions:
REMARK  status: ('A' for Active; 'I' for Inactive)
REMARK    1  A    between atoms: C1_1  and  C2_2
REMARK    2  A    between atoms: C2_2  and  C3_3
REMARK    3  A    between atoms: C3_3  and  C4_4
REMARK    4  A    between atoms: C3_3  and  N1_5
REMARK    5  A    between atoms: C6_8  and  C7_9
REMARK    6  A    between atoms: N3_11  and  C8_12
REMARK    7  A    between atoms: C12_16  and  O2_17
REMARK    8  A    between atoms: C14_19  and  C15_20
REMARK    9  A    between atoms: C18_24  and  C19_26
REMARK                            x       y       z     vdW  Elec       q    Type
REMARK                         _______ _______ _______ _____ _____    ______ ____
ROOT
ATOM      1  N1  UNL     1      18.022   1.658  34.786  0.00  0.00    -0.265 N 
ATOM      2  N2  UNL     1      17.684   0.423  34.449  0.00  0.00    -0.178 NA
ATOM      3  C5  UNL     1      18.056   0.201  33.180  0.00  0.00    +0.147 A 
ATOM      4  C6  UNL     1      18.648   1.336  32.674  0.00  0.00    +0.078 A 
ATOM      5  C14 UNL     1      18.635   2.260  33.725  0.00  0.00    +0.055 A 
ENDROOT
BRANCH   5   6
ATOM      6  C15 UNL     1      19.220   3.668  33.720  0.00  0.00    +0.041 C 
ATOM      7  C16 UNL     1      18.751   4.485  32.500  0.00  0.00    +0.029 C 
ATOM      8  C17 UNL     1      19.275   5.923  32.598  0.00  0.00    +0.109 C 
ATOM      9  N4  UNL     1      20.733   5.903  32.767  0.00  0.00    -0.297 N 
ATOM     10  C18 UNL     1      21.590   6.472  31.757  0.00  0.00    +0.247 C 
ATOM     11  O3  UNL     1      21.241   6.419  30.547  0.00  0.00    -0.270 OA
ATOM     12  C25 UNL     1      21.283   5.129  33.890  0.00  0.00    +0.109 C 
ATOM     13  C26 UNL     1      20.757   3.688  33.843  0.00  0.00    +0.029 C 
BRANCH  10  14
ATOM     14  C19 UNL     1      22.868   7.142  32.108  0.00  0.00    +0.040 A 
ATOM     15  C20 UNL     1      23.906   6.427  32.729  0.00  0.00    +0.013 A 
ATOM     16  C21 UNL     1      25.113   7.063  33.045  0.00  0.00    +0.004 A 
ATOM     17  C22 UNL     1      25.293   8.416  32.746  0.00  0.00    +0.038 A 
ATOM     18  C23 UNL     1      24.258   9.139  32.148  0.00  0.00    +0.124 A 
ATOM     19  F1  UNL     1      24.426  10.452  31.875  0.00  0.00    -0.205 F 
ATOM     20  C24 UNL     1      23.049   8.509  31.834  0.00  0.00    +0.051 A 
ENDBRANCH  10  14
ENDBRANCH   5   6
BRANCH   4  21
ATOM     21  C7  UNL     1      19.156   1.462  31.298  0.00  0.00    +0.252 C 
ATOM     22  O1  UNL     1      18.362   1.356  30.325  0.00  0.00    -0.270 OA
ATOM     23  N3  UNL     1      20.567   1.585  31.060  0.00  0.00    -0.281 N 
ATOM     24  H11 UNL     1      21.225   1.325  31.829  0.00  0.00    +0.155 HD
BRANCH  23  25
ATOM     25  C8  UNL     1      21.133   1.967  29.793  0.00  0.00    +0.037 A 
ATOM     26  C9  UNL     1      21.740   0.993  28.986  0.00  0.00    +0.023 A 
ATOM     27  C10 UNL     1      22.329   1.348  27.766  0.00  0.00    +0.005 A 
ATOM     28  C11 UNL     1      22.323   2.678  27.346  0.00  0.00    +0.045 A 
ATOM     29  C12 UNL     1      21.730   3.665  28.147  0.00  0.00    +0.119 A 
ATOM     30  C13 UNL     1      21.141   3.311  29.370  0.00  0.00    +0.068 A 
BRANCH  29  31
ATOM     31  O2  UNL     1      21.722   4.998  27.738  0.00  0.00    -0.507 OA
ATOM     32  H15 UNL     1      21.393   5.739  28.349  0.00  0.00    +0.292 HD
ENDBRANCH  29  31
ENDBRANCH  23  25
ENDBRANCH   4  21
BRANCH   1  33
ATOM     33  C3  UNL     1      17.738   2.158  36.146  0.00  0.00    +0.104 C 
ATOM     34  C4  UNL     1      17.716   1.033  37.192  0.00  0.00    +0.032 C 
BRANCH  33  36
ATOM     35  C1  UNL     1      16.458   3.939  37.450  0.00  0.00    +0.006 C 
ATOM     36  C2  UNL     1      16.482   3.056  36.201  0.00  0.00    +0.023 C 
ENDBRANCH  33  36
ENDBRANCH   1  33
TORSDOF 7
ENDMDL
MODEL 8
REMARK VINA RESULT:    -6.231      7.131     11.965
REMARK INTER + INTRA:         -10.428
REMARK INTER:                  -9.069
REMARK INTRA:                  -1.359
REMARK UNBOUND:                -1.829
REMARK  Name = /home/qwerty/github/datacon2025hack/step_04_hit_selection/docking/ligands/lig_336.pdb
REMARK  9 active torsions:
REMARK  status: ('A' for Active; 'I' for Inactive)
REMARK    1  A    between atoms: C1_1  and  C2_2
REMARK    2  A    between atoms: C2_2  and  C3_3
REMARK    3  A    between atoms: C3_3  and  C4_4
REMARK    4  A    between atoms: C3_3  and  N1_5
REMARK    5  A    between atoms: C6_8  and  C7_9
REMARK    6  A    between atoms: N3_11  and  C8_12
REMARK    7  A    between atoms: C12_16  and  O2_17
REMARK    8  A    between atoms: C14_19  and  C15_20
REMARK    9  A    between atoms: C18_24  and  C19_26
REMARK                            x       y       z     vdW  Elec       q    Type
REMARK                         _______ _______ _______ _____ _____    ______ ____
ROOT
ATOM      1  N1  UNL     1      16.934   0.055  24.361  0.00  0.00    -0.265 N 
ATOM      2  N2  UNL     1      16.134  -0.078  23.314  0.00  0.00    -0.178 NA
ATOM      3  C5  UNL     1      16.141   1.065  22.613  0.00  0.00    +0.147 A 
ATOM      4  C6  UNL     1      16.968   1.974  23.233  0.00  0.00    +0.078 A 
ATOM      5  C14 UNL     1      17.486   1.304  24.347  0.00  0.00    +0.055 A 
ENDROOT
BRANCH   5   6
ATOM      6  C15 UNL     1      18.502   1.836  25.351  0.00  0.00    +0.041 C 
ATOM      7  C16 UNL     1      19.908   1.245  25.122  0.00  0.00    +0.029 C 
ATOM      8  C17 UNL     1      20.913   1.892  26.082  0.00  0.00    +0.109 C 
ATOM      9  N4  UNL     1      20.434   1.750  27.462  0.00  0.00    -0.297 N 
ATOM     10  C18 UNL     1      21.184   0.973  28.417  0.00  0.00    +0.247 C 
ATOM     11  O3  UNL     1      21.832  -0.034  28.023  0.00  0.00    -0.270 OA
ATOM     12  C25 UNL     1      19.091   2.262  27.778  0.00  0.00    +0.109 C 
ATOM     13  C26 UNL     1      18.059   1.658  26.817  0.00  0.00    +0.029 C 
BRANCH  10  14
ATOM     14  C19 UNL     1      21.232   1.341  29.854  0.00  0.00    +0.040 A 
ATOM     15  C20 UNL     1      21.957   2.466  30.283  0.00  0.00    +0.013 A 
ATOM     16  C21 UNL     1      21.986   2.814  31.640  0.00  0.00    +0.004 A 
ATOM     17  C22 UNL     1      21.297   2.041  32.577  0.00  0.00    +0.038 A 
ATOM     18  C23 UNL     1      20.592   0.909  32.162  0.00  0.00    +0.124 A 
ATOM     19  F1  UNL     1      19.939   0.152  33.072  0.00  0.00    -0.205 F 
ATOM     20  C24 UNL     1      20.563   0.555  30.808  0.00  0.00    +0.051 A 
ENDBRANCH  10  14
ENDBRANCH   5   6
BRANCH   4  21
ATOM     21  C7  UNL     1      17.196   3.348  22.753  0.00  0.00    +0.252 C 
ATOM     22  O1  UNL     1      16.956   4.324  23.513  0.00  0.00    -0.270 OA
ATOM     23  N3  UNL     1      17.577   3.579  21.388  0.00  0.00    -0.281 N 
ATOM     24  H11 UNL     1      17.435   2.810  20.696  0.00  0.00    +0.155 HD
BRANCH  23  25
ATOM     25  C8  UNL     1      18.066   4.842  20.900  0.00  0.00    +0.037 A 
ATOM     26  C9  UNL     1      19.353   5.270  21.259  0.00  0.00    +0.023 A 
ATOM     27  C10 UNL     1      19.837   6.511  20.825  0.00  0.00    +0.005 A 
ATOM     28  C11 UNL     1      19.036   7.337  20.036  0.00  0.00    +0.045 A 
ATOM     29  C12 UNL     1      17.742   6.929  19.678  0.00  0.00    +0.119 A 
ATOM     30  C13 UNL     1      17.257   5.686  20.114  0.00  0.00    +0.068 A 
BRANCH  29  31
ATOM     31  O2  UNL     1      16.933   7.749  18.893  0.00  0.00    -0.507 OA
ATOM     32  H15 UNL     1      16.069   8.141  19.252  0.00  0.00    +0.292 HD
ENDBRANCH  29  31
ENDBRANCH  23  25
ENDBRANCH   4  21
BRANCH   1  33
ATOM     33  C3  UNL     1      17.123  -1.071  25.297  0.00  0.00    +0.104 C 
ATOM     34  C4  UNL     1      17.978  -2.197  24.695  0.00  0.00    +0.032 C 
BRANCH  33  36
ATOM     35  C1  UNL     1      15.068  -0.497  26.697  0.00  0.00    +0.006 C 
ATOM     36  C2  UNL     1      15.790  -1.579  25.893  0.00  0.00    +0.023 C 
ENDBRANCH  33  36
ENDBRANCH   1  33
TORSDOF 7
ENDMDL
MODEL 9
REMARK VINA RESULT:    -6.218     12.357     14.310
REMARK INTER + INTRA:         -10.409
REMARK INTER:                  -8.550
REMARK INTRA:                  -1.859
REMARK UNBOUND:                -1.829
REMARK  Name = /home/qwerty/github/datacon2025hack/step_04_hit_selection/docking/ligands/lig_336.pdb
REMARK  9 active torsions:
REMARK  status: ('A' for Active; 'I' for Inactive)
REMARK    1  A    between atoms: C1_1  and  C2_2
REMARK    2  A    between atoms: C2_2  and  C3_3
REMARK    3  A    between atoms: C3_3  and  C4_4
REMARK    4  A    between atoms: C3_3  and  N1_5
REMARK    5  A    between atoms: C6_8  and  C7_9
REMARK    6  A    between atoms: N3_11  and  C8_12
REMARK    7  A    between atoms: C12_16  and  O2_17
REMARK    8  A    between atoms: C14_19  and  C15_20
REMARK    9  A    between atoms: C18_24  and  C19_26
REMARK                            x       y       z     vdW  Elec       q    Type
REMARK                         _______ _______ _______ _____ _____    ______ ____
ROOT
ATOM      1  N1  UNL     1       9.147   4.516  22.992  0.00  0.00    -0.265 N 
ATOM      2  N2  UNL     1       8.394   3.821  23.830  0.00  0.00    -0.178 NA
ATOM      3  C5  UNL     1       8.975   2.633  24.052  0.00  0.00    +0.147 A 
ATOM      4  C6  UNL     1      10.140   2.552  23.325  0.00  0.00    +0.078 A 
ATOM      5  C14 UNL     1      10.248   3.780  22.661  0.00  0.00    +0.055 A 
ENDROOT
BRANCH   5   6
ATOM      6  C15 UNL     1      11.387   4.242  21.760  0.00  0.00    +0.041 C 
ATOM      7  C16 UNL     1      11.704   3.215  20.654  0.00  0.00    +0.029 C 
ATOM      8  C17 UNL     1      12.776   3.773  19.711  0.00  0.00    +0.109 C 
ATOM      9  N4  UNL     1      13.952   4.178  20.490  0.00  0.00    -0.297 N 
ATOM     10  C18 UNL     1      15.217   3.514  20.297  0.00  0.00    +0.247 C 
ATOM     11  O3  UNL     1      15.234   2.290  19.995  0.00  0.00    -0.270 OA
ATOM     12  C25 UNL     1      13.751   5.138  21.586  0.00  0.00    +0.109 C 
ATOM     13  C26 UNL     1      12.661   4.628  22.538  0.00  0.00    +0.029 C 
BRANCH  10  14
ATOM     14  C19 UNL     1      16.505   4.240  20.425  0.00  0.00    +0.040 A 
ATOM     15  C20 UNL     1      17.442   3.874  21.407  0.00  0.00    +0.013 A 
ATOM     16  C21 UNL     1      18.660   4.557  21.512  0.00  0.00    +0.004 A 
ATOM     17  C22 UNL     1      18.952   5.610  20.642  0.00  0.00    +0.038 A 
ATOM     18  C23 UNL     1      18.018   5.993  19.677  0.00  0.00    +0.124 A 
ATOM     19  F1  UNL     1      18.294   7.024  18.846  0.00  0.00    -0.205 F 
ATOM     20  C24 UNL     1      16.797   5.318  19.571  0.00  0.00    +0.051 A 
ENDBRANCH  10  14
ENDBRANCH   5   6
BRANCH   4  21
ATOM     21  C7  UNL     1      11.027   1.376  23.307  0.00  0.00    +0.252 C 
ATOM     22  O1  UNL     1      10.625   0.298  22.791  0.00  0.00    -0.270 OA
ATOM     23  N3  UNL     1      12.295   1.420  23.979  0.00  0.00    -0.281 N 
ATOM     24  H11 UNL     1      12.459   2.177  24.680  0.00  0.00    +0.155 HD
BRANCH  23  25
ATOM     25  C8  UNL     1      13.325   0.431  23.804  0.00  0.00    +0.037 A 
ATOM     26  C9  UNL     1      13.647  -0.427  24.866  0.00  0.00    +0.023 A 
ATOM     27  C10 UNL     1      14.671  -1.373  24.730  0.00  0.00    +0.005 A 
ATOM     28  C11 UNL     1      15.387  -1.464  23.536  0.00  0.00    +0.045 A 
ATOM     29  C12 UNL     1      15.085  -0.605  22.469  0.00  0.00    +0.119 A 
ATOM     30  C13 UNL     1      14.061   0.344  22.605  0.00  0.00    +0.068 A 
BRANCH  29  31
ATOM     31  O2  UNL     1      15.797  -0.686  21.273  0.00  0.00    -0.507 OA
ATOM     32  H15 UNL     1      15.668  -1.460  20.630  0.00  0.00    +0.292 HD
ENDBRANCH  29  31
ENDBRANCH  23  25
ENDBRANCH   4  21
BRANCH   1  33
ATOM     33  C3  UNL     1       8.742   5.878  22.589  0.00  0.00    +0.104 C 
ATOM     34  C4  UNL     1       8.671   6.846  23.781  0.00  0.00    +0.032 C 
BRANCH  33  36
ATOM     35  C1  UNL     1       7.527   4.880  20.580  0.00  0.00    +0.006 C 
ATOM     36  C2  UNL     1       7.459   5.888  21.728  0.00  0.00    +0.023 C 
ENDBRANCH  33  36
ENDBRANCH   1  33
TORSDOF 7
ENDMDL
