REMARK  Name = /home/qwerty/github/datacon2025hack/step_04_hit_selection/docking/ligands/lig_187.pdb
REMARK  1 active torsions:
REMARK  status: ('A' for Active; 'I' for Inactive)
REMARK    1  A    between atoms: N1_3  and  C2_4
REMARK                            x       y       z     vdW  Elec       q    Type
REMARK                         _______ _______ _______ _____ _____    ______ ____
ROOT
ATOM      1  O1  UNL     1      -0.363   0.157   0.989  0.00  0.00    -0.252 OA
ATOM      2  C1  UNL     1      -0.261   0.282  -0.262  0.00  0.00    +0.309 C 
ATOM      3  N1  UNL     1       1.036   0.352  -0.875  0.00  0.00    -0.269 N 
ATOM      4  N2  UNL     1      -1.436   0.409  -1.080  0.00  0.00    -0.252 N 
ATOM      5  C8  UNL     1      -2.786   0.293  -0.586  0.00  0.00    +0.163 A 
ATOM      6  N3  UNL     1      -3.017  -0.091   0.700  0.00  0.00    -0.234 NA
ATOM      7  C9  UNL     1      -4.275  -0.221   1.196  0.00  0.00    +0.153 A 
ATOM      8  C10 UNL     1      -5.365   0.044   0.369  0.00  0.00    +0.149 A 
ATOM      9 CL1  UNL     1      -7.002  -0.113   0.973  0.00  0.00    -0.060 Cl
ATOM     10  N4  UNL     1      -5.150   0.426  -0.915  0.00  0.00    -0.219 NA
ATOM     11  C11 UNL     1      -3.894   0.557  -1.418  0.00  0.00    +0.171 A 
ATOM     12 CL2  UNL     1      -3.713   1.065  -3.091  0.00  0.00    -0.058 Cl
ATOM     13  H1  UNL     1       1.094   0.743  -1.843  0.00  0.00    +0.156 HD
ATOM     14  H6  UNL     1      -1.282   0.583  -2.098  0.00  0.00    +0.158 HD
ENDROOT
BRANCH   3  15
ATOM     15  C2  UNL     1       2.265   0.028  -0.204  0.00  0.00    +0.035 A 
ATOM     16  C3  UNL     1       3.441   0.713  -0.552  0.00  0.00    +0.026 A 
ATOM     17  C4  UNL     1       4.653   0.400   0.071  0.00  0.00    +0.040 A 
ATOM     18  C5  UNL     1       4.706  -0.610   1.035  0.00  0.00    +0.124 A 
ATOM     19  F1  UNL     1       5.882  -0.914   1.635  0.00  0.00    -0.205 F 
ATOM     20  C6  UNL     1       3.546  -1.314   1.371  0.00  0.00    +0.040 A 
ATOM     21  C7  UNL     1       2.331  -1.004   0.752  0.00  0.00    +0.026 A 
ENDBRANCH   3  15
TORSDOF 1
