REMARK  Name = /home/qwerty/github/datacon2025hack/step_04_hit_selection/docking/ligands/lig_527.pdb
REMARK  2 active torsions:
REMARK  status: ('A' for Active; 'I' for Inactive)
REMARK    1  A    between atoms: C1_2  and  C11_16
REMARK    2  A    between atoms: N1_3  and  C2_4
REMARK                            x       y       z     vdW  Elec       q    Type
REMARK                         _______ _______ _______ _____ _____    ______ ____
ROOT
ATOM      1  C2  UNL     1      -0.066   0.394   0.266  0.00  0.00    +0.056 A 
ATOM      2  C3  UNL     1      -0.948  -0.673   0.055  0.00  0.00    +0.074 A 
ATOM      3  C4  UNL     1      -2.319  -0.446  -0.103  0.00  0.00    +0.164 A 
ATOM      4  C5  UNL     1      -2.830   0.861   0.052  0.00  0.00    +0.163 A 
ATOM      5  C6  UNL     1      -1.948   1.928   0.248  0.00  0.00    +0.071 A 
ATOM      6  C7  UNL     1      -0.572   1.704   0.364  0.00  0.00    +0.066 A 
ATOM      7 CL1  UNL     1       0.477   3.068   0.730  0.00  0.00    -0.081 Cl
ATOM      8  O2  UNL     1      -4.207   1.122   0.062  0.00  0.00    -0.488 OA
ATOM      9  C8  UNL     1      -5.164   0.188   0.556  0.00  0.00    +0.232 C 
ATOM     10  C9  UNL     1      -5.508  -0.886  -0.478  0.00  0.00    +0.082 C 
ATOM     11  C10 UNL     1      -4.297  -1.382  -1.272  0.00  0.00    +0.232 C 
ATOM     12  O3  UNL     1      -3.140  -1.527  -0.450  0.00  0.00    -0.488 OA
ENDROOT
BRANCH   1  15
ATOM     13  O1  UNL     1       1.955   1.389  -1.470  0.00  0.00    -0.270 OA
ATOM     14  C1  UNL     1       2.304   0.608  -0.544  0.00  0.00    +0.249 C 
ATOM     15  N1  UNL     1       1.335   0.123   0.398  0.00  0.00    -0.280 N 
ATOM     16  H1  UNL     1       1.632  -0.562   1.128  0.00  0.00    +0.155 HD
BRANCH  14  17
ATOM     17  C11 UNL     1       3.723   0.226  -0.421  0.00  0.00    +0.051 A 
ATOM     18  C12 UNL     1       4.696   1.239  -0.388  0.00  0.00    +0.014 A 
ATOM     19  C13 UNL     1       6.049   0.917  -0.255  0.00  0.00    +0.001 A 
ATOM     20  C14 UNL     1       6.445  -0.418  -0.165  0.00  0.00    +0.001 A 
ATOM     21  C15 UNL     1       5.489  -1.436  -0.219  0.00  0.00    +0.016 A 
ATOM     22  C16 UNL     1       4.130  -1.126  -0.351  0.00  0.00    +0.030 A 
ATOM     23 BR1  UNL     1       2.892  -2.582  -0.532  0.00  0.00    -0.050 Br
ENDBRANCH  14  17
ENDBRANCH   1  15
TORSDOF 2
