REMARK  Name = /home/qwerty/github/datacon2025hack/step_04_hit_selection/docking/ligands/lig_301.pdb
REMARK  2 active torsions:
REMARK  status: ('A' for Active; 'I' for Inactive)
REMARK    1  A    between atoms: C1_2  and  C8_12
REMARK    2  A    between atoms: C11_15  and  C12_16
REMARK                            x       y       z     vdW  Elec       q    Type
REMARK                         _______ _______ _______ _____ _____    ______ ____
ROOT
ATOM      1  C8  UNL     1      -1.706  -0.151   0.935  0.00  0.00    +0.046 A 
ATOM      2  C9  UNL     1      -2.402  -0.678   2.032  0.00  0.00    +0.014 A 
ATOM      3  C10 UNL     1      -3.789  -0.815   2.003  0.00  0.00    +0.015 A 
ATOM      4  C11 UNL     1      -4.527  -0.426   0.873  0.00  0.00    +0.081 A 
ATOM      5  C13 UNL     1      -3.846   0.139  -0.227  0.00  0.00    +0.083 A 
ATOM      6  N3  UNL     1      -4.547   0.557  -1.319  0.00  0.00    -0.254 NA
ATOM      7  C14 UNL     1      -3.945   1.132  -2.391  0.00  0.00    +0.111 A 
ATOM      8  C15 UNL     1      -2.567   1.328  -2.396  0.00  0.00    +0.020 A 
ATOM      9  C16 UNL     1      -1.812   0.916  -1.299  0.00  0.00    +0.012 A 
ATOM     10  C17 UNL     1      -2.434   0.290  -0.199  0.00  0.00    +0.013 A 
ENDROOT
BRANCH   1  12
ATOM     11  O1  UNL     1       0.318   0.396   2.031  0.00  0.00    -0.270 OA
ATOM     12  C1  UNL     1      -0.230  -0.100   1.009  0.00  0.00    +0.250 C 
ATOM     13  N1  UNL     1       0.569  -0.676  -0.038  0.00  0.00    -0.261 N 
ATOM     14  C2  UNL     1       1.993  -0.540  -0.122  0.00  0.00    +0.165 A 
ATOM     15  N2  UNL     1       2.734   0.196   0.749  0.00  0.00    -0.229 NA
ATOM     16  C3  UNL     1       4.036   0.131   0.387  0.00  0.00    +0.054 A 
ATOM     17  C4  UNL     1       4.325  -0.600  -0.699  0.00  0.00    +0.014 A 
ATOM     18  S1  UNL     1       2.931  -1.265  -1.347  0.00  0.00    -0.057 S 
ATOM     19  C5  UNL     1       5.754  -0.610  -1.049  0.00  0.00    +0.045 C 
ATOM     20  C6  UNL     1       6.371   0.278   0.065  0.00  0.00    +0.011 C 
ATOM     21  C7  UNL     1       5.221   0.763   0.991  0.00  0.00    +0.056 C 
ATOM     22  H1  UNL     1       0.089  -1.229  -0.783  0.00  0.00    +0.157 HD
ENDBRANCH   1  12
BRANCH   4  23
ATOM     23  C12 UNL     1      -6.033  -0.581   0.846  0.00  0.00    +0.419 C 
ATOM     24  F1  UNL     1      -6.508  -1.202   1.989  0.00  0.00    -0.166 F 
ATOM     25  F2  UNL     1      -6.402  -1.344  -0.247  0.00  0.00    -0.166 F 
ATOM     26  F3  UNL     1      -6.623   0.666   0.747  0.00  0.00    -0.166 F 
ENDBRANCH   4  23
TORSDOF 2
