REMARK  Name = /home/qwerty/github/datacon2025hack/step_04_hit_selection/docking/ligands/lig_226.pdb
REMARK  6 active torsions:
REMARK  status: ('A' for Active; 'I' for Inactive)
REMARK    1  A    between atoms: C1_1  and  O1_2
REMARK    2  A    between atoms: O1_2  and  C2_3
REMARK    3  A    between atoms: C2_3  and  C3_5
REMARK    4  A    between atoms: C5_7  and  N1_8
REMARK    5  A    between atoms: C10_15  and  C11_16
REMARK    6  A    between atoms: C17_23  and  C18_24
REMARK                            x       y       z     vdW  Elec       q    Type
REMARK                         _______ _______ _______ _____ _____    ______ ____
ROOT
ATOM      1  N1  UNL     1       1.701  -0.502   0.022  0.00  0.00    -0.269 N 
ATOM      2  C6  UNL     1       1.124  -0.642   1.329  0.00  0.00    +0.306 C 
ATOM      3  O3  UNL     1       1.874  -0.638   2.345  0.00  0.00    -0.252 OA
ATOM      4  N2  UNL     1      -0.298  -0.815   1.488  0.00  0.00    -0.285 N 
ATOM      5  C7  UNL     1      -0.846  -1.255   2.777  0.00  0.00    +0.109 C 
ATOM      6  C8  UNL     1      -2.079  -2.124   2.541  0.00  0.00    +0.019 C 
ATOM      7  C9  UNL     1      -3.163  -1.400   1.718  0.00  0.00    +0.007 C 
ATOM      8  C10 UNL     1      -2.647  -0.182   0.904  0.00  0.00    +0.010 C 
ATOM      9  C16 UNL     1      -1.208  -0.439   0.393  0.00  0.00    +0.113 C 
ATOM     10  H5  UNL     1       1.208  -0.939  -0.788  0.00  0.00    +0.156 HD
ENDROOT
BRANCH   1  13
ATOM     11  C3  UNL     1       5.140   0.049  -1.173  0.00  0.00    +0.098 A 
ATOM     12  C4  UNL     1       3.918  -0.609  -1.083  0.00  0.00    +0.046 A 
ATOM     13  C5  UNL     1       3.024   0.007  -0.197  0.00  0.00    +0.046 A 
ATOM     14  C17 UNL     1       3.528   1.179   0.378  0.00  0.00    +0.009 A 
ATOM     15  C18 UNL     1       2.821   2.113   1.306  0.00  0.00    +0.053 C 
ATOM     16  S1  UNL     1       5.099   1.407  -0.180  0.00  0.00    -0.085 S 
BRANCH  11  17
ATOM     17  C2  UNL     1       6.281  -0.356  -2.002  0.00  0.00    +0.346 C 
ATOM     18  O2  UNL     1       6.205  -1.393  -2.716  0.00  0.00    -0.244 OA
BRANCH  17  20
ATOM     19  C1  UNL     1       8.593   0.082  -2.768  0.00  0.00    +0.280 C 
ATOM     20  O1  UNL     1       7.448   0.414  -1.991  0.00  0.00    -0.464 OA
ENDBRANCH  17  20
ENDBRANCH  11  17
ENDBRANCH   1  13
BRANCH   8  21
ATOM     21  C11 UNL     1      -3.619   0.185  -0.263  0.00  0.00    -0.002 C 
ATOM     22  C12 UNL     1      -5.055   0.453   0.238  0.00  0.00    +0.032 C 
ATOM     23  C13 UNL     1      -5.991   0.872  -0.921  0.00  0.00    +0.160 C 
ATOM     24  O4  UNL     1      -5.299   1.186  -2.117  0.00  0.00    -0.380 OA
ATOM     25  C14 UNL     1      -4.259   2.101  -1.843  0.00  0.00    +0.160 C 
ATOM     26  C15 UNL     1      -3.122   1.415  -1.066  0.00  0.00    +0.032 C 
ENDBRANCH   8  21
TORSDOF 4
