REMARK  Name = /home/qwerty/github/datacon2025hack/step_04_hit_selection/docking/ligands/lig_259.pdb
REMARK  3 active torsions:
REMARK  status: ('A' for Active; 'I' for Inactive)
REMARK    1  A    between atoms: C1_2  and  C17_22
REMARK    2  A    between atoms: N1_3  and  C2_4
REMARK    3  A    between atoms: C7_10  and  C8_11
REMARK                            x       y       z     vdW  Elec       q    Type
REMARK                         _______ _______ _______ _____ _____    ______ ____
ROOT
ATOM      1  C2  UNL     1       2.004  -2.169  -1.091  0.00  0.00    +0.061 A 
ATOM      2  C3  UNL     1       2.437  -3.375  -1.684  0.00  0.00    +0.025 A 
ATOM      3  C4  UNL     1       1.513  -4.396  -1.999  0.00  0.00    +0.004 A 
ATOM      4  C5  UNL     1       0.141  -4.221  -1.743  0.00  0.00    +0.028 A 
ATOM      5  C6  UNL     1      -0.259  -3.013  -1.177  0.00  0.00    +0.068 A 
ATOM      6  N2  UNL     1      -1.501  -2.605  -0.891  0.00  0.00    -0.337 N 
ATOM      7  C7  UNL     1      -1.328  -1.348  -0.410  0.00  0.00    +0.156 A 
ATOM      8  N4  UNL     1      -0.028  -0.951  -0.385  0.00  0.00    -0.224 NA
ATOM      9  C16 UNL     1       0.628  -2.024  -0.866  0.00  0.00    +0.111 A 
ATOM     10  H5  UNL     1      -2.392  -3.134  -1.024  0.00  0.00    +0.167 HD
ENDROOT
BRANCH   7  11
ATOM     11  C8  UNL     1      -2.431  -0.483   0.037  0.00  0.00    +0.083 A 
ATOM     12  C9  UNL     1      -3.783  -0.824   0.033  0.00  0.00    +0.039 A 
ATOM     13  C10 UNL     1      -4.429   0.284   0.534  0.00  0.00    +0.000 A 
ATOM     14  C11 UNL     1      -5.784   0.520   0.758  0.00  0.00    +0.010 A 
ATOM     15  C12 UNL     1      -6.154   1.770   1.288  0.00  0.00    +0.001 A 
ATOM     16  C13 UNL     1      -5.171   2.743   1.578  0.00  0.00    +0.002 A 
ATOM     17  C14 UNL     1      -3.811   2.475   1.340  0.00  0.00    +0.026 A 
ATOM     18  C15 UNL     1      -3.475   1.228   0.814  0.00  0.00    +0.047 A 
ATOM     19  N3  UNL     1      -2.248   0.771   0.515  0.00  0.00    -0.352 N 
ATOM     20  H11 UNL     1      -1.343   1.281   0.630  0.00  0.00    +0.166 HD
ENDBRANCH   7  11
BRANCH   1  23
ATOM     21  O1  UNL     1       2.213  -0.677   1.370  0.00  0.00    -0.270 OA
ATOM     22  C1  UNL     1       2.857  -0.281   0.360  0.00  0.00    +0.248 C 
ATOM     23  N1  UNL     1       2.948  -1.126  -0.799  0.00  0.00    -0.280 N 
ATOM     24  H1  UNL     1       3.816  -1.076  -1.378  0.00  0.00    +0.155 HD
BRANCH  22  25
ATOM     25  C17 UNL     1       3.548   1.031   0.402  0.00  0.00    +0.040 A 
ATOM     26  C18 UNL     1       3.967   1.665  -0.783  0.00  0.00    +0.013 A 
ATOM     27  C19 UNL     1       4.609   2.906  -0.733  0.00  0.00    +0.004 A 
ATOM     28  C20 UNL     1       4.836   3.530   0.496  0.00  0.00    +0.038 A 
ATOM     29  C21 UNL     1       4.416   2.915   1.678  0.00  0.00    +0.124 A 
ATOM     30  F1  UNL     1       4.633   3.523   2.871  0.00  0.00    -0.205 F 
ATOM     31  C22 UNL     1       3.773   1.674   1.633  0.00  0.00    +0.051 A 
ENDBRANCH  22  25
ENDBRANCH   1  23
TORSDOF 3
