REMARK  Name = /home/qwerty/github/datacon2025hack/step_04_hit_selection/docking/ligands/lig_564.pdb
REMARK  8 active torsions:
REMARK  status: ('A' for Active; 'I' for Inactive)
REMARK    1  A    between atoms: C1_1  and  C2_2
REMARK    2  A    between atoms: C2_2  and  C3_3
REMARK    3  A    between atoms: C2_2  and  N2_9
REMARK    4  A    between atoms: N1_5  and  C4_6
REMARK    5  A    between atoms: C9_12  and  N3_13
REMARK    6  A    between atoms: N3_13  and  C10_14
REMARK    7  A    between atoms: C11_15  and  C12_17
REMARK    8  A    between atoms: C12_17  and  C13_18
REMARK                            x       y       z     vdW  Elec       q    Type
REMARK                         _______ _______ _______ _____ _____    ______ ____
ROOT
ATOM      1  N2  UNL     1       2.317   0.101  -1.370  0.00  0.00    -0.292 NA
ATOM      2  C7  UNL     1       1.773   0.406  -2.716  0.00  0.00    +0.087 C 
ATOM      3  C8  UNL     1       0.237   0.392  -2.743  0.00  0.00    +0.038 C 
ATOM      4  C9  UNL     1      -0.324   1.379  -1.704  0.00  0.00    +0.078 C 
ATOM      5  C17 UNL     1       0.290   1.151  -0.310  0.00  0.00    +0.038 C 
ATOM      6  C18 UNL     1       1.826   1.106  -0.392  0.00  0.00    +0.087 C 
ENDROOT
BRANCH   4   7
ATOM      7  N3  UNL     1      -1.803   1.341  -1.662  0.00  0.00    -0.301 N 
ATOM      8  C10 UNL     1      -2.559   2.469  -2.220  0.00  0.00    +0.132 C 
ATOM      9  C11 UNL     1      -2.522   0.229  -1.077  0.00  0.00    +0.216 C 
ATOM     10  O2  UNL     1      -1.994  -0.918  -1.047  0.00  0.00    -0.276 OA
BRANCH   9  11
ATOM     11  C12 UNL     1      -3.927   0.400  -0.547  0.00  0.00    +0.108 C 
BRANCH  11  12
ATOM     12  C13 UNL     1      -4.257  -0.583   0.594  0.00  0.00    +0.085 C 
ATOM     13  C14 UNL     1      -3.418  -0.324   1.870  0.00  0.00    +0.032 C 
ATOM     14  C15 UNL     1      -4.382   0.201   2.953  0.00  0.00    +0.105 C 
ATOM     15  N4  UNL     1      -5.717   0.034   2.418  0.00  0.00    -0.315 N 
ATOM     16  C16 UNL     1      -5.646  -0.386   1.073  0.00  0.00    +0.217 C 
ATOM     17  O3  UNL     1      -6.671  -0.571   0.362  0.00  0.00    -0.276 OA
ATOM     18  H26 UNL     1      -6.599   0.280   2.921  0.00  0.00    +0.149 HD
ENDBRANCH  11  12
ENDBRANCH   9  11
ENDBRANCH   4   7
BRANCH   1  20
ATOM     19  C1  UNL     1       2.639  -2.334  -1.945  0.00  0.00    +0.034 C 
ATOM     20  C2  UNL     1       2.119  -1.310  -0.919  0.00  0.00    +0.140 C 
BRANCH  20  21
ATOM     21  C3  UNL     1       2.844  -1.558   0.382  0.00  0.00    +0.230 C 
ATOM     22  O1  UNL     1       2.236  -2.116   1.335  0.00  0.00    -0.274 OA
ATOM     23  N1  UNL     1       4.221  -1.187   0.527  0.00  0.00    -0.311 N 
ATOM     24  H5  UNL     1       4.737  -0.803  -0.296  0.00  0.00    +0.149 HD
BRANCH  23  25
ATOM     25  C4  UNL     1       4.949  -1.425   1.771  0.00  0.00    +0.073 C 
ATOM     26  C5  UNL     1       5.925  -0.319   2.135  0.00  0.00    +0.024 C 
ATOM     27  C6  UNL     1       4.599  -0.434   2.870  0.00  0.00    +0.024 C 
ENDBRANCH  23  25
ENDBRANCH  20  21
ENDBRANCH   1  20
TORSDOF 6
