REMARK  Name = /home/qwerty/github/datacon2025hack/step_04_hit_selection/docking/ligands/lig_657.pdb
REMARK  7 active torsions:
REMARK  status: ('A' for Active; 'I' for Inactive)
REMARK    1  A    between atoms: C1_1  and  C2_2
REMARK    2  A    between atoms: C2_2  and  C3_3
REMARK    3  A    between atoms: C2_2  and  C4_4
REMARK    4  A    between atoms: N2_8  and  C7_9
REMARK    5  A    between atoms: C7_9  and  C8_10
REMARK    6  A    between atoms: C11_13  and  C12_14
REMARK    7  A    between atoms: N3_26  and  C21_27
REMARK                            x       y       z     vdW  Elec       q    Type
REMARK                         _______ _______ _______ _____ _____    ______ ____
ROOT
ATOM      1  C7  UNL     1      -1.102  -0.646  -1.363  0.00  0.00    +0.158 C 
ENDROOT
BRANCH   1   6
ATOM      2  C4  UNL     1      -2.378  -0.566   0.844  0.00  0.00    +0.113 A 
ATOM      3  N1  UNL     1      -3.235   0.260   1.503  0.00  0.00    -0.235 NA
ATOM      4  C5  UNL     1      -3.164   1.404   0.798  0.00  0.00    +0.089 A 
ATOM      5  C6  UNL     1      -2.359   1.245  -0.274  0.00  0.00    +0.129 A 
ATOM      6  N2  UNL     1      -1.889  -0.013  -0.301  0.00  0.00    -0.319 N 
ATOM      7  C20 UNL     1      -2.876   2.071  -1.338  0.00  0.00    +0.265 C 
ATOM      8  O1  UNL     1      -2.445   2.131  -2.520  0.00  0.00    -0.268 OA
ATOM      9  N3  UNL     1      -4.003   2.797  -0.850  0.00  0.00    -0.293 N 
ATOM     10  C21 UNL     1      -4.810   3.730  -1.624  0.00  0.00    +0.133 C 
ATOM     11  C22 UNL     1      -4.262   2.393   0.539  0.00  0.00    +0.165 C 
BRANCH   2  13
ATOM     12  C1  UNL     1      -3.351  -2.858   0.754  0.00  0.00    +0.015 C 
ATOM     13  C2  UNL     1      -2.177  -2.007   1.246  0.00  0.00    +0.049 C 
ATOM     14  C3  UNL     1      -2.013  -2.132   2.764  0.00  0.00    +0.015 C 
ENDBRANCH   2  13
ENDBRANCH   1   6
BRANCH   1  15
ATOM     15  C8  UNL     1       0.367  -0.538  -1.054  0.00  0.00    -0.028 A 
ATOM     16  C9  UNL     1       0.995   0.717  -1.062  0.00  0.00    +0.006 A 
ATOM     17  C10 UNL     1       2.354   0.829  -0.760  0.00  0.00    +0.009 A 
ATOM     18  C11 UNL     1       3.113  -0.312  -0.444  0.00  0.00    -0.018 A 
ATOM     19  C18 UNL     1       2.480  -1.568  -0.441  0.00  0.00    +0.009 A 
ATOM     20  C19 UNL     1       1.121  -1.680  -0.744  0.00  0.00    +0.006 A 
BRANCH  18  21
ATOM     21  C12 UNL     1       4.557  -0.193  -0.119  0.00  0.00    -0.012 A 
ATOM     22  C13 UNL     1       5.384   0.684  -0.846  0.00  0.00    +0.047 A 
ATOM     23  C14 UNL     1       6.744   0.794  -0.539  0.00  0.00    +0.127 A 
ATOM     24  F1  UNL     1       7.533   1.638  -1.249  0.00  0.00    -0.205 F 
ATOM     25  C15 UNL     1       7.292   0.032   0.496  0.00  0.00    +0.076 A 
ATOM     26  C16 UNL     1       6.482  -0.842   1.225  0.00  0.00    +0.127 A 
ATOM     27  F2  UNL     1       7.015  -1.577   2.232  0.00  0.00    -0.205 F 
ATOM     28  C17 UNL     1       5.122  -0.956   0.920  0.00  0.00    +0.047 A 
ENDBRANCH  18  21
ENDBRANCH   1  15
TORSDOF 4
