MODEL 1
REMARK VINA RESULT:    -5.639      0.000      0.000
REMARK INTER + INTRA:          -7.381
REMARK INTER:                  -6.793
REMARK INTRA:                  -0.588
REMARK UNBOUND:                -0.588
REMARK  Name = /home/qwerty/github/datacon2025hack/step_04_hit_selection/docking/ligands/lig_2.pdb
REMARK  6 active torsions:
REMARK  status: ('A' for Active; 'I' for Inactive)
REMARK    1  A    between atoms: C1_1  and  C2_2
REMARK    2  A    between atoms: C3_3  and  C4_4
REMARK    3  A    between atoms: C8_10  and  C9_11
REMARK    4  A    between atoms: C11_14  and  C12_15
REMARK    5  A    between atoms: C12_15  and  O3_17
REMARK    6  A    between atoms: N4_22  and  C15_23
REMARK                            x       y       z     vdW  Elec       q    Type
REMARK                         _______ _______ _______ _____ _____    ______ ____
ROOT
ATOM      1  C4  UNL     1      19.661   6.999  37.034  0.00  0.00    +0.250 C 
ATOM      2  O1  UNL     1      19.088   6.131  37.749  0.00  0.00    -0.270 OA
ATOM      3  N1  UNL     1      18.905   8.112  36.525  0.00  0.00    -0.297 N 
ATOM      4  C5  UNL     1      17.484   7.954  36.208  0.00  0.00    +0.108 C 
ATOM      5  C6  UNL     1      16.606   8.609  37.292  0.00  0.00    +0.020 C 
ATOM      6  C7  UNL     1      17.403   9.512  38.254  0.00  0.00    +0.013 C 
ATOM      7  C8  UNL     1      18.488  10.351  37.544  0.00  0.00    +0.062 C 
ATOM      8  C13 UNL     1      19.417   9.484  36.649  0.00  0.00    +0.118 C 
ENDROOT
BRANCH   1  11
ATOM      9  C1  UNL     1      21.131   6.373  34.223  0.00  0.00    +0.066 C 
ATOM     10  C2  UNL     1      21.755   6.600  35.569  0.00  0.00    +0.048 A 
ATOM     11  C3  UNL     1      21.105   6.856  36.768  0.00  0.00    +0.077 A 
ATOM     12  C14 UNL     1      22.114   6.913  37.712  0.00  0.00    +0.147 A 
ATOM     13  N3  UNL     1      23.305   6.732  37.109  0.00  0.00    -0.179 NA
ATOM     14  N4  UNL     1      23.082   6.557  35.815  0.00  0.00    -0.271 N 
ATOM     15  C15 UNL     1      24.141   6.287  34.849  0.00  0.00    +0.172 C 
ENDBRANCH   1  11
BRANCH   7  16
ATOM     16  C9  UNL     1      17.874  11.508  36.794  0.00  0.00    +0.084 A 
ATOM     17  N2  UNL     1      18.410  12.011  35.659  0.00  0.00    -0.251 NA
ATOM     18  C10 UNL     1      17.715  13.082  35.191  0.00  0.00    +0.133 A 
ATOM     19  C11 UNL     1      16.620  13.450  35.965  0.00  0.00    +0.116 A 
ATOM     20  S1  UNL     1      16.523  12.400  37.274  0.00  0.00    -0.065 S 
BRANCH  19  21
ATOM     21  C12 UNL     1      15.705  14.566  35.701  0.00  0.00    +0.345 C 
ATOM     22  O2  UNL     1      14.607  14.362  35.119  0.00  0.00    -0.244 OA
BRANCH  21  23
ATOM     23  O3  UNL     1      16.050  15.855  36.097  0.00  0.00    -0.477 OA
ATOM     24  H12 UNL     1      15.520  16.339  36.811  0.00  0.00    +0.295 HD
ENDBRANCH  21  23
ENDBRANCH  19  21
ENDBRANCH   7  16
TORSDOF 4
ENDMDL
MODEL 2
REMARK VINA RESULT:    -5.555     16.542     17.914
REMARK INTER + INTRA:          -7.279
REMARK INTER:                  -6.746
REMARK INTRA:                  -0.533
REMARK UNBOUND:                -0.588
REMARK  Name = /home/qwerty/github/datacon2025hack/step_04_hit_selection/docking/ligands/lig_2.pdb
REMARK  6 active torsions:
REMARK  status: ('A' for Active; 'I' for Inactive)
REMARK    1  A    between atoms: C1_1  and  C2_2
REMARK    2  A    between atoms: C3_3  and  C4_4
REMARK    3  A    between atoms: C8_10  and  C9_11
REMARK    4  A    between atoms: C11_14  and  C12_15
REMARK    5  A    between atoms: C12_15  and  O3_17
REMARK    6  A    between atoms: N4_22  and  C15_23
REMARK                            x       y       z     vdW  Elec       q    Type
REMARK                         _______ _______ _______ _____ _____    ______ ____
ROOT
ATOM      1  C4  UNL     1      15.802   2.342  20.717  0.00  0.00    +0.250 C 
ATOM      2  O1  UNL     1      16.549   3.051  19.988  0.00  0.00    -0.270 OA
ATOM      3  N1  UNL     1      14.580   2.897  21.235  0.00  0.00    -0.297 N 
ATOM      4  C5  UNL     1      14.492   4.327  21.541  0.00  0.00    +0.108 C 
ATOM      5  C6  UNL     1      13.683   5.068  20.459  0.00  0.00    +0.020 C 
ATOM      6  C7  UNL     1      12.921   4.119  19.514  0.00  0.00    +0.013 C 
ATOM      7  C8  UNL     1      12.291   2.910  20.241  0.00  0.00    +0.062 C 
ATOM      8  C13 UNL     1      13.316   2.153  21.132  0.00  0.00    +0.118 C 
ENDROOT
BRANCH   1  11
ATOM      9  C1  UNL     1      16.614   1.004  23.547  0.00  0.00    +0.066 C 
ATOM     10  C2  UNL     1      16.536   0.352  22.198  0.00  0.00    +0.048 A 
ATOM     11  C3  UNL     1      16.196   0.947  20.991  0.00  0.00    +0.077 A 
ATOM     12  C14 UNL     1      16.346  -0.054  20.049  0.00  0.00    +0.147 A 
ATOM     13  N3  UNL     1      16.724  -1.194  20.659  0.00  0.00    -0.179 NA
ATOM     14  N4  UNL     1      16.824  -0.945  21.956  0.00  0.00    -0.271 N 
ATOM     15  C15 UNL     1      17.257  -1.939  22.932  0.00  0.00    +0.172 C 
ENDBRANCH   1  11
BRANCH   7  16
ATOM     16  C9  UNL     1      11.053   3.320  21.001  0.00  0.00    +0.084 A 
ATOM     17  N2  UNL     1      10.571   2.613  22.049  0.00  0.00    -0.251 NA
ATOM     18  C10 UNL     1       9.420   3.143  22.541  0.00  0.00    +0.133 A 
ATOM     19  C11 UNL     1       8.967   4.276  21.875  0.00  0.00    +0.116 A 
ATOM     20  S1  UNL     1      10.044   4.622  20.632  0.00  0.00    -0.065 S 
BRANCH  19  21
ATOM     21  C12 UNL     1       7.756   5.043  22.187  0.00  0.00    +0.345 C 
ATOM     22  O2  UNL     1       7.782   6.302  22.183  0.00  0.00    -0.244 OA
BRANCH  21  23
ATOM     23  O3  UNL     1       6.571   4.377  22.488  0.00  0.00    -0.477 OA
ATOM     24  H12 UNL     1       6.437   3.937  23.390  0.00  0.00    +0.295 HD
ENDBRANCH  21  23
ENDBRANCH  19  21
ENDBRANCH   7  16
TORSDOF 4
ENDMDL
MODEL 3
REMARK VINA RESULT:    -5.467      7.853     11.700
REMARK INTER + INTRA:          -7.173
REMARK INTER:                  -6.578
REMARK INTRA:                  -0.596
REMARK UNBOUND:                -0.588
REMARK  Name = /home/qwerty/github/datacon2025hack/step_04_hit_selection/docking/ligands/lig_2.pdb
REMARK  6 active torsions:
REMARK  status: ('A' for Active; 'I' for Inactive)
REMARK    1  A    between atoms: C1_1  and  C2_2
REMARK    2  A    between atoms: C3_3  and  C4_4
REMARK    3  A    between atoms: C8_10  and  C9_11
REMARK    4  A    between atoms: C11_14  and  C12_15
REMARK    5  A    between atoms: C12_15  and  O3_17
REMARK    6  A    between atoms: N4_22  and  C15_23
REMARK                            x       y       z     vdW  Elec       q    Type
REMARK                         _______ _______ _______ _____ _____    ______ ____
ROOT
ATOM      1  C4  UNL     1      11.278  13.874  28.681  0.00  0.00    +0.250 C 
ATOM      2  O1  UNL     1      11.643  14.937  28.107  0.00  0.00    -0.270 OA
ATOM      3  N1  UNL     1      11.988  13.416  29.846  0.00  0.00    -0.297 N 
ATOM      4  C5  UNL     1      13.421  13.683  29.988  0.00  0.00    +0.108 C 
ATOM      5  C6  UNL     1      13.668  14.815  31.004  0.00  0.00    +0.020 C 
ATOM      6  C7  UNL     1      12.417  15.171  31.831  0.00  0.00    +0.013 C 
ATOM      7  C8  UNL     1      11.594  13.933  32.254  0.00  0.00    +0.062 C 
ATOM      8  C13 UNL     1      11.258  13.005  31.053  0.00  0.00    +0.118 C 
ENDROOT
BRANCH   1  11
ATOM      9  C1  UNL     1      11.231  11.191  26.876  0.00  0.00    +0.066 C 
ATOM     10  C2  UNL     1      10.067  11.990  27.385  0.00  0.00    +0.048 A 
ATOM     11  C3  UNL     1      10.109  13.148  28.150  0.00  0.00    +0.077 A 
ATOM     12  C14 UNL     1       8.787  13.527  28.289  0.00  0.00    +0.147 A 
ATOM     13  N3  UNL     1       7.994  12.632  27.670  0.00  0.00    -0.179 NA
ATOM     14  N4  UNL     1       8.772  11.701  27.138  0.00  0.00    -0.271 N 
ATOM     15  C15 UNL     1       8.263  10.586  26.348  0.00  0.00    +0.172 C 
ENDBRANCH   1  11
BRANCH   7  16
ATOM     16  C9  UNL     1      12.266  13.197  33.388  0.00  0.00    +0.084 A 
ATOM     17  N2  UNL     1      12.235  11.850  33.504  0.00  0.00    -0.251 NA
ATOM     18  C10 UNL     1      12.862  11.415  34.629  0.00  0.00    +0.133 A 
ATOM     19  C11 UNL     1      13.389  12.423  35.429  0.00  0.00    +0.116 A 
ATOM     20  S1  UNL     1      13.058  13.901  34.701  0.00  0.00    -0.065 S 
BRANCH  19  21
ATOM     21  C12 UNL     1      14.106  12.242  36.696  0.00  0.00    +0.345 C 
ATOM     22  O2  UNL     1      14.441  11.089  37.078  0.00  0.00    -0.244 OA
BRANCH  21  23
ATOM     23  O3  UNL     1      14.418  13.348  37.482  0.00  0.00    -0.477 OA
ATOM     24  H12 UNL     1      15.295  13.398  37.984  0.00  0.00    +0.295 HD
ENDBRANCH  21  23
ENDBRANCH  19  21
ENDBRANCH   7  16
TORSDOF 4
ENDMDL
MODEL 4
REMARK VINA RESULT:    -5.432      9.730     12.653
REMARK INTER + INTRA:          -7.132
REMARK INTER:                  -6.505
REMARK INTRA:                  -0.627
REMARK UNBOUND:                -0.588
REMARK  Name = /home/qwerty/github/datacon2025hack/step_04_hit_selection/docking/ligands/lig_2.pdb
REMARK  6 active torsions:
REMARK  status: ('A' for Active; 'I' for Inactive)
REMARK    1  A    between atoms: C1_1  and  C2_2
REMARK    2  A    between atoms: C3_3  and  C4_4
REMARK    3  A    between atoms: C8_10  and  C9_11
REMARK    4  A    between atoms: C11_14  and  C12_15
REMARK    5  A    between atoms: C12_15  and  O3_17
REMARK    6  A    between atoms: N4_22  and  C15_23
REMARK                            x       y       z     vdW  Elec       q    Type
REMARK                         _______ _______ _______ _____ _____    ______ ____
ROOT
ATOM      1  C4  UNL     1      12.059  14.009  28.715  0.00  0.00    +0.250 C 
ATOM      2  O1  UNL     1      11.723  15.211  28.528  0.00  0.00    -0.270 OA
ATOM      3  N1  UNL     1      11.061  13.044  29.093  0.00  0.00    -0.297 N 
ATOM      4  C5  UNL     1       9.910  13.452  29.903  0.00  0.00    +0.108 C 
ATOM      5  C6  UNL     1       8.641  13.554  29.035  0.00  0.00    +0.020 C 
ATOM      6  C7  UNL     1       8.808  12.923  27.639  0.00  0.00    +0.013 C 
ATOM      7  C8  UNL     1       9.614  11.605  27.658  0.00  0.00    +0.062 C 
ATOM      8  C13 UNL     1      10.971  11.750  28.402  0.00  0.00    +0.118 C 
ENDROOT
BRANCH   1  11
ATOM      9  C1  UNL     1      14.230  13.077  30.923  0.00  0.00    +0.066 C 
ATOM     10  C2  UNL     1      14.411  13.213  29.440  0.00  0.00    +0.048 A 
ATOM     11  C3  UNL     1      13.468  13.626  28.509  0.00  0.00    +0.077 A 
ATOM     12  C14 UNL     1      14.148  13.650  27.305  0.00  0.00    +0.147 A 
ATOM     13  N3  UNL     1      15.418  13.245  27.497  0.00  0.00    -0.179 NA
ATOM     14  N4  UNL     1      15.566  12.970  28.784  0.00  0.00    -0.271 N 
ATOM     15  C15 UNL     1      16.830  12.542  29.372  0.00  0.00    +0.172 C 
ENDBRANCH   1  11
BRANCH   7  16
ATOM     16  C9  UNL     1       8.778  10.466  28.190  0.00  0.00    +0.084 A 
ATOM     17  N2  UNL     1       7.768   9.909  27.484  0.00  0.00    -0.251 NA
ATOM     18  C10 UNL     1       7.126   8.937  28.184  0.00  0.00    +0.133 A 
ATOM     19  C11 UNL     1       7.615   8.722  29.468  0.00  0.00    +0.116 A 
ATOM     20  S1  UNL     1       8.891   9.783  29.730  0.00  0.00    -0.065 S 
BRANCH  19  21
ATOM     21  C12 UNL     1       7.108   7.747  30.440  0.00  0.00    +0.345 C 
ATOM     22  O2  UNL     1       6.802   6.582  30.071  0.00  0.00    -0.244 OA
BRANCH  21  23
ATOM     23  O3  UNL     1       6.966   8.109  31.777  0.00  0.00    -0.477 OA
ATOM     24  H12 UNL     1       6.261   7.675  32.360  0.00  0.00    +0.295 HD
ENDBRANCH  21  23
ENDBRANCH  19  21
ENDBRANCH   7  16
TORSDOF 4
ENDMDL
MODEL 5
REMARK VINA RESULT:    -5.417      2.647      3.609
REMARK INTER + INTRA:          -7.113
REMARK INTER:                  -6.728
REMARK INTRA:                  -0.385
REMARK UNBOUND:                -0.588
REMARK  Name = /home/qwerty/github/datacon2025hack/step_04_hit_selection/docking/ligands/lig_2.pdb
REMARK  6 active torsions:
REMARK  status: ('A' for Active; 'I' for Inactive)
REMARK    1  A    between atoms: C1_1  and  C2_2
REMARK    2  A    between atoms: C3_3  and  C4_4
REMARK    3  A    between atoms: C8_10  and  C9_11
REMARK    4  A    between atoms: C11_14  and  C12_15
REMARK    5  A    between atoms: C12_15  and  O3_17
REMARK    6  A    between atoms: N4_22  and  C15_23
REMARK                            x       y       z     vdW  Elec       q    Type
REMARK                         _______ _______ _______ _____ _____    ______ ____
ROOT
ATOM      1  C4  UNL     1      21.910   6.741  34.345  0.00  0.00    +0.250 C 
ATOM      2  O1  UNL     1      22.077   5.503  34.525  0.00  0.00    -0.270 OA
ATOM      3  N1  UNL     1      20.722   7.378  34.846  0.00  0.00    -0.297 N 
ATOM      4  C5  UNL     1      19.463   6.633  34.922  0.00  0.00    +0.108 C 
ATOM      5  C6  UNL     1      19.153   6.230  36.377  0.00  0.00    +0.020 C 
ATOM      6  C7  UNL     1      20.046   6.948  37.408  0.00  0.00    +0.013 C 
ATOM      7  C8  UNL     1      20.297   8.433  37.066  0.00  0.00    +0.062 C 
ATOM      8  C13 UNL     1      20.809   8.630  35.612  0.00  0.00    +0.118 C 
ENDROOT
BRANCH   1  11
ATOM      9  C1  UNL     1      21.578   8.879  31.941  0.00  0.00    +0.066 C 
ATOM     10  C2  UNL     1      22.839   8.433  32.622  0.00  0.00    +0.048 A 
ATOM     11  C3  UNL     1      22.962   7.504  33.645  0.00  0.00    +0.077 A 
ATOM     12  C14 UNL     1      24.323   7.396  33.864  0.00  0.00    +0.147 A 
ATOM     13  N3  UNL     1      24.979   8.236  33.039  0.00  0.00    -0.179 NA
ATOM     14  N4  UNL     1      24.077   8.867  32.303  0.00  0.00    -0.271 N 
ATOM     15  C15 UNL     1      24.422   9.828  31.261  0.00  0.00    +0.172 C 
ENDBRANCH   1  11
BRANCH   7  16
ATOM     16  C9  UNL     1      19.082   9.274  37.373  0.00  0.00    +0.084 A 
ATOM     17  N2  UNL     1      18.084   8.849  38.181  0.00  0.00    -0.251 NA
ATOM     18  C10 UNL     1      17.071   9.752  38.269  0.00  0.00    +0.133 A 
ATOM     19  C11 UNL     1      17.252  10.905  37.514  0.00  0.00    +0.116 A 
ATOM     20  S1  UNL     1      18.726  10.787  36.715  0.00  0.00    -0.065 S 
BRANCH  19  21
ATOM     21  C12 UNL     1      16.321  12.035  37.416  0.00  0.00    +0.345 C 
ATOM     22  O2  UNL     1      15.088  11.830  37.265  0.00  0.00    -0.244 OA
BRANCH  21  23
ATOM     23  O3  UNL     1      16.802  13.339  37.490  0.00  0.00    -0.477 OA
ATOM     24  H12 UNL     1      16.199  14.128  37.290  0.00  0.00    +0.295 HD
ENDBRANCH  21  23
ENDBRANCH  19  21
ENDBRANCH   7  16
TORSDOF 4
ENDMDL
MODEL 6
REMARK VINA RESULT:    -5.384     11.930     12.784
REMARK INTER + INTRA:          -7.073
REMARK INTER:                  -6.449
REMARK INTRA:                  -0.624
REMARK UNBOUND:                -0.588
REMARK  Name = /home/qwerty/github/datacon2025hack/step_04_hit_selection/docking/ligands/lig_2.pdb
REMARK  6 active torsions:
REMARK  status: ('A' for Active; 'I' for Inactive)
REMARK    1  A    between atoms: C1_1  and  C2_2
REMARK    2  A    between atoms: C3_3  and  C4_4
REMARK    3  A    between atoms: C8_10  and  C9_11
REMARK    4  A    between atoms: C11_14  and  C12_15
REMARK    5  A    between atoms: C12_15  and  O3_17
REMARK    6  A    between atoms: N4_22  and  C15_23
REMARK                            x       y       z     vdW  Elec       q    Type
REMARK                         _______ _______ _______ _____ _____    ______ ____
ROOT
ATOM      1  C4  UNL     1       7.963   9.509  28.708  0.00  0.00    +0.250 C 
ATOM      2  O1  UNL     1       6.736   9.737  28.886  0.00  0.00    -0.270 OA
ATOM      3  N1  UNL     1       8.833  10.579  28.300  0.00  0.00    -0.297 N 
ATOM      4  C5  UNL     1       8.323  11.663  27.457  0.00  0.00    +0.108 C 
ATOM      5  C6  UNL     1       8.103  12.943  28.286  0.00  0.00    +0.020 C 
ATOM      6  C7  UNL     1       8.744  12.875  29.687  0.00  0.00    +0.013 C 
ATOM      7  C8  UNL     1      10.131  12.195  29.690  0.00  0.00    +0.062 C 
ATOM      8  C13 UNL     1      10.113  10.808  28.986  0.00  0.00    +0.118 C 
ENDROOT
BRANCH   1  11
ATOM      9  C1  UNL     1       9.470   7.525  26.647  0.00  0.00    +0.066 C 
ATOM     10  C2  UNL     1       9.133   7.285  28.089  0.00  0.00    +0.048 A 
ATOM     11  C3  UNL     1       8.475   8.147  28.955  0.00  0.00    +0.077 A 
ATOM     12  C14 UNL     1       8.348   7.434  30.134  0.00  0.00    +0.147 A 
ATOM     13  N3  UNL     1       8.925   6.225  29.993  0.00  0.00    -0.179 NA
ATOM     14  N4  UNL     1       9.408   6.147  28.762  0.00  0.00    -0.271 N 
ATOM     15  C15 UNL     1      10.067   4.959  28.233  0.00  0.00    +0.172 C 
ENDBRANCH   1  11
BRANCH   7  16
ATOM     16  C9  UNL     1      11.188  13.116  29.132  0.00  0.00    +0.084 A 
ATOM     17  N2  UNL     1      11.606  14.226  29.780  0.00  0.00    -0.251 NA
ATOM     18  C10 UNL     1      12.525  14.926  29.064  0.00  0.00    +0.133 A 
ATOM     19  C11 UNL     1      12.838  14.380  27.824  0.00  0.00    +0.116 A 
ATOM     20  S1  UNL     1      11.933  12.977  27.623  0.00  0.00    -0.065 S 
BRANCH  19  21
ATOM     21  C12 UNL     1      13.785  14.926  26.846  0.00  0.00    +0.345 C 
ATOM     22  O2  UNL     1      14.901  15.372  27.223  0.00  0.00    -0.244 OA
BRANCH  21  23
ATOM     23  O3  UNL     1      13.450  14.953  25.495  0.00  0.00    -0.477 OA
ATOM     24  H12 UNL     1      12.670  14.413  25.142  0.00  0.00    +0.295 HD
ENDBRANCH  21  23
ENDBRANCH  19  21
ENDBRANCH   7  16
TORSDOF 4
ENDMDL
MODEL 7
REMARK VINA RESULT:    -5.332     16.372     17.302
REMARK INTER + INTRA:          -7.011
REMARK INTER:                  -6.411
REMARK INTRA:                  -0.600
REMARK UNBOUND:                -0.588
REMARK  Name = /home/qwerty/github/datacon2025hack/step_04_hit_selection/docking/ligands/lig_2.pdb
REMARK  6 active torsions:
REMARK  status: ('A' for Active; 'I' for Inactive)
REMARK    1  A    between atoms: C1_1  and  C2_2
REMARK    2  A    between atoms: C3_3  and  C4_4
REMARK    3  A    between atoms: C8_10  and  C9_11
REMARK    4  A    between atoms: C11_14  and  C12_15
REMARK    5  A    between atoms: C12_15  and  O3_17
REMARK    6  A    between atoms: N4_22  and  C15_23
REMARK                            x       y       z     vdW  Elec       q    Type
REMARK                         _______ _______ _______ _____ _____    ______ ____
ROOT
ATOM      1  C4  UNL     1      10.295   2.882  21.886  0.00  0.00    +0.250 C 
ATOM      2  O1  UNL     1       9.577   1.905  22.235  0.00  0.00    -0.270 OA
ATOM      3  N1  UNL     1       9.712   4.194  21.790  0.00  0.00    -0.297 N 
ATOM      4  C5  UNL     1       8.306   4.350  21.410  0.00  0.00    +0.108 C 
ATOM      5  C6  UNL     1       7.443   4.696  22.638  0.00  0.00    +0.020 C 
ATOM      6  C7  UNL     1       8.277   5.091  23.873  0.00  0.00    +0.013 C 
ATOM      7  C8  UNL     1       9.498   5.972  23.527  0.00  0.00    +0.062 C 
ATOM      8  C13 UNL     1      10.375   5.355  22.401  0.00  0.00    +0.118 C 
ENDROOT
BRANCH   1  11
ATOM      9  C1  UNL     1      12.563   1.755  23.896  0.00  0.00    +0.066 C 
ATOM     10  C2  UNL     1      12.711   2.156  22.458  0.00  0.00    +0.048 A 
ATOM     11  C3  UNL     1      11.726   2.649  21.614  0.00  0.00    +0.077 A 
ATOM     12  C14 UNL     1      12.383   2.931  20.431  0.00  0.00    +0.147 A 
ATOM     13  N3  UNL     1      13.683   2.597  20.547  0.00  0.00    -0.179 NA
ATOM     14  N4  UNL     1      13.871   2.119  21.767  0.00  0.00    -0.271 N 
ATOM     15  C15 UNL     1      15.173   1.694  22.271  0.00  0.00    +0.172 C 
ENDBRANCH   1  11
BRANCH   7  16
ATOM     16  C9  UNL     1       9.077   7.389  23.224  0.00  0.00    +0.084 A 
ATOM     17  N2  UNL     1       8.543   8.209  24.159  0.00  0.00    -0.251 NA
ATOM     18  C10 UNL     1       8.193   9.418  23.645  0.00  0.00    +0.133 A 
ATOM     19  C11 UNL     1       8.435   9.565  22.283  0.00  0.00    +0.116 A 
ATOM     20  S1  UNL     1       9.108   8.135  21.710  0.00  0.00    -0.065 S 
BRANCH  19  21
ATOM     21  C12 UNL     1       8.149  10.753  21.472  0.00  0.00    +0.345 C 
ATOM     22  O2  UNL     1       7.307  11.604  21.867  0.00  0.00    -0.244 OA
BRANCH  21  23
ATOM     23  O3  UNL     1       8.810  10.944  20.262  0.00  0.00    -0.477 OA
ATOM     24  H12 UNL     1       8.735  11.821  19.762  0.00  0.00    +0.295 HD
ENDBRANCH  21  23
ENDBRANCH  19  21
ENDBRANCH   7  16
TORSDOF 4
ENDMDL
MODEL 8
REMARK VINA RESULT:    -5.249      3.415      7.946
REMARK INTER + INTRA:          -6.910
REMARK INTER:                  -6.280
REMARK INTRA:                  -0.631
REMARK UNBOUND:                -0.588
REMARK  Name = /home/qwerty/github/datacon2025hack/step_04_hit_selection/docking/ligands/lig_2.pdb
REMARK  6 active torsions:
REMARK  status: ('A' for Active; 'I' for Inactive)
REMARK    1  A    between atoms: C1_1  and  C2_2
REMARK    2  A    between atoms: C3_3  and  C4_4
REMARK    3  A    between atoms: C8_10  and  C9_11
REMARK    4  A    between atoms: C11_14  and  C12_15
REMARK    5  A    between atoms: C12_15  and  O3_17
REMARK    6  A    between atoms: N4_22  and  C15_23
REMARK                            x       y       z     vdW  Elec       q    Type
REMARK                         _______ _______ _______ _____ _____    ______ ____
ROOT
ATOM      1  C4  UNL     1      18.687   9.950  37.099  0.00  0.00    +0.250 C 
ATOM      2  O1  UNL     1      18.398   9.778  38.315  0.00  0.00    -0.270 OA
ATOM      3  N1  UNL     1      19.634   9.073  36.463  0.00  0.00    -0.297 N 
ATOM      4  C5  UNL     1      20.730   8.487  37.236  0.00  0.00    +0.108 C 
ATOM      5  C6  UNL     1      20.449   7.003  37.543  0.00  0.00    +0.020 C 
ATOM      6  C7  UNL     1      19.275   6.427  36.727  0.00  0.00    +0.013 C 
ATOM      7  C8  UNL     1      19.251   6.919  35.263  0.00  0.00    +0.062 C 
ATOM      8  C13 UNL     1      19.334   8.468  35.157  0.00  0.00    +0.118 C 
ENDROOT
BRANCH   1  11
ATOM      9  C1  UNL     1      20.009  12.580  35.759  0.00  0.00    +0.066 C 
ATOM     10  C2  UNL     1      18.567  12.165  35.766  0.00  0.00    +0.048 A 
ATOM     11  C3  UNL     1      18.017  11.036  36.358  0.00  0.00    +0.077 A 
ATOM     12  C14 UNL     1      16.656  11.153  36.144  0.00  0.00    +0.147 A 
ATOM     13  N3  UNL     1      16.405  12.272  35.438  0.00  0.00    -0.179 NA
ATOM     14  N4  UNL     1      17.563  12.870  35.202  0.00  0.00    -0.271 N 
ATOM     15  C15 UNL     1      17.680  14.141  34.496  0.00  0.00    +0.172 C 
ENDBRANCH   1  11
BRANCH   7  16
ATOM     16  C9  UNL     1      20.306   6.223  34.439  0.00  0.00    +0.084 A 
ATOM     17  N2  UNL     1      21.278   6.893  33.779  0.00  0.00    -0.251 NA
ATOM     18  C10 UNL     1      22.082   6.063  33.063  0.00  0.00    +0.133 A 
ATOM     19  C11 UNL     1      21.743   4.716  33.138  0.00  0.00    +0.116 A 
ATOM     20  S1  UNL     1      20.396   4.566  34.132  0.00  0.00    -0.065 S 
BRANCH  19  21
ATOM     21  C12 UNL     1      22.429   3.608  32.463  0.00  0.00    +0.345 C 
ATOM     22  O2  UNL     1      21.796   2.855  31.677  0.00  0.00    -0.244 OA
BRANCH  21  23
ATOM     23  O3  UNL     1      23.784   3.387  32.692  0.00  0.00    -0.477 OA
ATOM     24  H12 UNL     1      24.399   3.107  31.939  0.00  0.00    +0.295 HD
ENDBRANCH  21  23
ENDBRANCH  19  21
ENDBRANCH   7  16
TORSDOF 4
ENDMDL
MODEL 9
REMARK VINA RESULT:    -5.199      7.671     10.764
REMARK INTER + INTRA:          -6.851
REMARK INTER:                  -6.335
REMARK INTRA:                  -0.516
REMARK UNBOUND:                -0.588
REMARK  Name = /home/qwerty/github/datacon2025hack/step_04_hit_selection/docking/ligands/lig_2.pdb
REMARK  6 active torsions:
REMARK  status: ('A' for Active; 'I' for Inactive)
REMARK    1  A    between atoms: C1_1  and  C2_2
REMARK    2  A    between atoms: C3_3  and  C4_4
REMARK    3  A    between atoms: C8_10  and  C9_11
REMARK    4  A    between atoms: C11_14  and  C12_15
REMARK    5  A    between atoms: C12_15  and  O3_17
REMARK    6  A    between atoms: N4_22  and  C15_23
REMARK                            x       y       z     vdW  Elec       q    Type
REMARK                         _______ _______ _______ _____ _____    ______ ____
ROOT
ATOM      1  C4  UNL     1      13.124  13.806  34.306  0.00  0.00    +0.250 C 
ATOM      2  O1  UNL     1      14.187  14.464  34.476  0.00  0.00    -0.270 OA
ATOM      3  N1  UNL     1      12.378  13.964  33.086  0.00  0.00    -0.297 N 
ATOM      4  C5  UNL     1      12.375  15.251  32.385  0.00  0.00    +0.108 C 
ATOM      5  C6  UNL     1      13.278  15.195  31.138  0.00  0.00    +0.020 C 
ATOM      6  C7  UNL     1      13.705  13.763  30.761  0.00  0.00    +0.013 C 
ATOM      7  C8  UNL     1      12.572  12.726  30.929  0.00  0.00    +0.062 C 
ATOM      8  C13 UNL     1      11.912  12.790  32.335  0.00  0.00    +0.118 C 
ENDROOT
BRANCH   1  11
ATOM      9  C1  UNL     1      10.368  13.809  35.998  0.00  0.00    +0.066 C 
ATOM     10  C2  UNL     1      11.513  12.844  36.088  0.00  0.00    +0.048 A 
ATOM     11  C3  UNL     1      12.694  12.867  35.359  0.00  0.00    +0.077 A 
ATOM     12  C14 UNL     1      13.441  11.817  35.864  0.00  0.00    +0.147 A 
ATOM     13  N3  UNL     1      12.735  11.182  36.820  0.00  0.00    -0.179 NA
ATOM     14  N4  UNL     1      11.569  11.798  36.940  0.00  0.00    -0.271 N 
ATOM     15  C15 UNL     1      10.556  11.413  37.916  0.00  0.00    +0.172 C 
ENDBRANCH   1  11
BRANCH   7  16
ATOM     16  C9  UNL     1      11.566  12.835  29.809  0.00  0.00    +0.084 A 
ATOM     17  N2  UNL     1      11.864  13.384  28.609  0.00  0.00    -0.251 NA
ATOM     18  C10 UNL     1      10.789  13.422  27.778  0.00  0.00    +0.133 A 
ATOM     19  C11 UNL     1       9.615  12.910  28.320  0.00  0.00    +0.116 A 
ATOM     20  S1  UNL     1       9.938  12.397  29.887  0.00  0.00    -0.065 S 
BRANCH  19  21
ATOM     21  C12 UNL     1       8.311  12.834  27.653  0.00  0.00    +0.345 C 
ATOM     22  O2  UNL     1       7.579  13.856  27.570  0.00  0.00    -0.244 OA
BRANCH  21  23
ATOM     23  O3  UNL     1       7.878  11.628  27.109  0.00  0.00    -0.477 OA
ATOM     24  H12 UNL     1       6.925  11.515  26.788  0.00  0.00    +0.295 HD
ENDBRANCH  21  23
ENDBRANCH  19  21
ENDBRANCH   7  16
TORSDOF 4
ENDMDL
