MODEL 1
REMARK VINA RESULT:    -6.405      0.000      0.000
REMARK INTER + INTRA:          -8.638
REMARK INTER:                  -7.903
REMARK INTRA:                  -0.735
REMARK UNBOUND:                -0.735
REMARK  Name = /home/qwerty/github/datacon2025hack/step_04_hit_selection/docking/ligands/lig_709.pdb
REMARK  6 active torsions:
REMARK  status: ('A' for Active; 'I' for Inactive)
REMARK    1  A    between atoms: C1_1  and  C2_2
REMARK    2  A    between atoms: C4_4  and  C5_5
REMARK    3  A    between atoms: C7_7  and  N1_8
REMARK    4  A    between atoms: C8_9  and  C9_11
REMARK    5  A    between atoms: C9_11  and  N2_12
REMARK    6  A    between atoms: C12_15  and  C13_16
REMARK                            x       y       z     vdW  Elec       q    Type
REMARK                         _______ _______ _______ _____ _____    ______ ____
ROOT
ATOM      1  C9  UNL     1       9.767   3.607  21.484  0.00  0.00    +0.180 C 
ENDROOT
BRANCH   1   2
ATOM      2  N2  UNL     1       9.628   5.045  21.195  0.00  0.00    -0.293 NA
ATOM      3  C10 UNL     1       8.279   5.379  20.733  0.00  0.00    +0.085 C 
ATOM      4  C11 UNL     1       8.046   6.846  21.072  0.00  0.00    +0.025 C 
ATOM      5  C12 UNL     1       9.097   7.191  22.131  0.00  0.00    +0.034 C 
ATOM      6  C19 UNL     1       9.849   5.882  22.380  0.00  0.00    +0.093 C 
BRANCH   5   7
ATOM      7  C13 UNL     1      10.022   8.307  21.676  0.00  0.00    -0.040 A 
ATOM      8  C14 UNL     1      10.816   9.017  22.600  0.00  0.00    +0.004 A 
ATOM      9  C15 UNL     1      11.664  10.039  22.167  0.00  0.00    +0.003 A 
ATOM     10  C16 UNL     1      11.733  10.365  20.810  0.00  0.00    +0.038 A 
ATOM     11  C17 UNL     1      10.954   9.665  19.883  0.00  0.00    +0.124 A 
ATOM     12  F1  UNL     1      11.025   9.980  18.565  0.00  0.00    -0.205 F 
ATOM     13  C18 UNL     1      10.105   8.641  20.312  0.00  0.00    +0.042 A 
ENDBRANCH   5   7
ENDBRANCH   1   2
BRANCH   1  15
ATOM     14  N1  UNL     1      11.909   2.982  20.271  0.00  0.00    -0.284 N 
ATOM     15  C8  UNL     1      11.216   3.224  21.505  0.00  0.00    +0.231 C 
ATOM     16  O1  UNL     1      11.809   3.095  22.611  0.00  0.00    -0.274 OA
ATOM     17  H9  UNL     1      11.339   2.766  19.423  0.00  0.00    +0.155 HD
BRANCH  14  24
ATOM     18  C1  UNL     1      16.136   0.377  20.116  0.00  0.00    +0.044 C 
ATOM     19  C2  UNL     1      15.414   1.691  20.031  0.00  0.00    -0.048 A 
ATOM     20  C3  UNL     1      16.133   2.883  19.859  0.00  0.00    +0.006 A 
ATOM     21  C4  UNL     1      15.466   4.116  19.816  0.00  0.00    -0.048 A 
ATOM     22  C5  UNL     1      16.237   5.378  19.566  0.00  0.00    +0.044 C 
ATOM     23  C6  UNL     1      14.069   4.150  19.941  0.00  0.00    +0.026 A 
ATOM     24  C7  UNL     1      13.342   2.966  20.151  0.00  0.00    +0.034 A 
ATOM     25  C20 UNL     1      14.022   1.740  20.185  0.00  0.00    +0.026 A 
ENDBRANCH  14  24
ENDBRANCH   1  15
TORSDOF 4
ENDMDL
MODEL 2
REMARK VINA RESULT:    -6.346      7.234      9.749
REMARK INTER + INTRA:          -8.565
REMARK INTER:                  -7.952
REMARK INTRA:                  -0.613
REMARK UNBOUND:                -0.735
REMARK  Name = /home/qwerty/github/datacon2025hack/step_04_hit_selection/docking/ligands/lig_709.pdb
REMARK  6 active torsions:
REMARK  status: ('A' for Active; 'I' for Inactive)
REMARK    1  A    between atoms: C1_1  and  C2_2
REMARK    2  A    between atoms: C4_4  and  C5_5
REMARK    3  A    between atoms: C7_7  and  N1_8
REMARK    4  A    between atoms: C8_9  and  C9_11
REMARK    5  A    between atoms: C9_11  and  N2_12
REMARK    6  A    between atoms: C12_15  and  C13_16
REMARK                            x       y       z     vdW  Elec       q    Type
REMARK                         _______ _______ _______ _____ _____    ______ ____
ROOT
ATOM      1  C9  UNL     1       7.252   9.412  29.598  0.00  0.00    +0.180 C 
ENDROOT
BRANCH   1   2
ATOM      2  N2  UNL     1       8.132  10.442  29.018  0.00  0.00    -0.293 NA
ATOM      3  C10 UNL     1       8.009  10.502  27.559  0.00  0.00    +0.085 C 
ATOM      4  C11 UNL     1       8.406  11.912  27.139  0.00  0.00    +0.025 C 
ATOM      5  C12 UNL     1       8.306  12.758  28.412  0.00  0.00    +0.034 C 
ATOM      6  C19 UNL     1       7.806  11.793  29.487  0.00  0.00    +0.093 C 
BRANCH   5   7
ATOM      7  C13 UNL     1       9.636  13.394  28.782  0.00  0.00    -0.040 A 
ATOM      8  C14 UNL     1      10.128  13.335  30.102  0.00  0.00    +0.004 A 
ATOM      9  C15 UNL     1      11.354  13.921  30.427  0.00  0.00    +0.003 A 
ATOM     10  C16 UNL     1      12.104  14.569  29.442  0.00  0.00    +0.038 A 
ATOM     11  C17 UNL     1      11.629  14.630  28.129  0.00  0.00    +0.124 A 
ATOM     12  F1  UNL     1      12.360  15.257  27.173  0.00  0.00    -0.205 F 
ATOM     13  C18 UNL     1      10.402  14.045  27.799  0.00  0.00    +0.042 A 
ENDBRANCH   5   7
ENDBRANCH   1   2
BRANCH   1  15
ATOM     14  N1  UNL     1       6.761   7.226  28.403  0.00  0.00    -0.284 N 
ATOM     15  C8  UNL     1       7.679   8.052  29.137  0.00  0.00    +0.231 C 
ATOM     16  O1  UNL     1       8.835   7.634  29.417  0.00  0.00    -0.274 OA
ATOM     17  H9  UNL     1       5.742   7.442  28.477  0.00  0.00    +0.155 HD
BRANCH  14  24
ATOM     18  C1  UNL     1       8.641   5.426  24.172  0.00  0.00    +0.044 C 
ATOM     19  C2  UNL     1       8.123   5.203  25.564  0.00  0.00    -0.048 A 
ATOM     20  C3  UNL     1       8.012   3.902  26.078  0.00  0.00    +0.006 A 
ATOM     21  C4  UNL     1       7.494   3.687  27.362  0.00  0.00    -0.048 A 
ATOM     22  C5  UNL     1       7.441   2.299  27.927  0.00  0.00    +0.044 C 
ATOM     23  C6  UNL     1       7.090   4.785  28.137  0.00  0.00    +0.026 A 
ATOM     24  C7  UNL     1       7.162   6.089  27.619  0.00  0.00    +0.034 A 
ATOM     25  C20 UNL     1       7.688   6.290  26.335  0.00  0.00    +0.026 A 
ENDBRANCH  14  24
ENDBRANCH   1  15
TORSDOF 4
ENDMDL
MODEL 3
REMARK VINA RESULT:    -6.344     13.009     15.417
REMARK INTER + INTRA:          -8.562
REMARK INTER:                  -7.936
REMARK INTRA:                  -0.626
REMARK UNBOUND:                -0.735
REMARK  Name = /home/qwerty/github/datacon2025hack/step_04_hit_selection/docking/ligands/lig_709.pdb
REMARK  6 active torsions:
REMARK  status: ('A' for Active; 'I' for Inactive)
REMARK    1  A    between atoms: C1_1  and  C2_2
REMARK    2  A    between atoms: C4_4  and  C5_5
REMARK    3  A    between atoms: C7_7  and  N1_8
REMARK    4  A    between atoms: C8_9  and  C9_11
REMARK    5  A    between atoms: C9_11  and  N2_12
REMARK    6  A    between atoms: C12_15  and  C13_16
REMARK                            x       y       z     vdW  Elec       q    Type
REMARK                         _______ _______ _______ _____ _____    ______ ____
ROOT
ATOM      1  C9  UNL     1      21.030   1.887  31.689  0.00  0.00    +0.180 C 
ENDROOT
BRANCH   1   2
ATOM      2  N2  UNL     1      21.586   1.930  30.325  0.00  0.00    -0.293 NA
ATOM      3  C10 UNL     1      22.940   1.374  30.272  0.00  0.00    +0.085 C 
ATOM      4  C11 UNL     1      23.159   0.880  28.847  0.00  0.00    +0.025 C 
ATOM      5  C12 UNL     1      21.759   0.752  28.241  0.00  0.00    +0.034 C 
ATOM      6  C19 UNL     1      20.804   1.134  29.372  0.00  0.00    +0.093 C 
BRANCH   5   7
ATOM      7  C13 UNL     1      21.584   1.637  27.017  0.00  0.00    -0.040 A 
ATOM      8  C14 UNL     1      20.518   1.430  26.116  0.00  0.00    +0.004 A 
ATOM      9  C15 UNL     1      20.368   2.253  24.997  0.00  0.00    +0.003 A 
ATOM     10  C16 UNL     1      21.273   3.291  24.764  0.00  0.00    +0.038 A 
ATOM     11  C17 UNL     1      22.331   3.509  25.652  0.00  0.00    +0.124 A 
ATOM     12  F1  UNL     1      23.207   4.519  25.425  0.00  0.00    -0.205 F 
ATOM     13  C18 UNL     1      22.485   2.688  26.773  0.00  0.00    +0.042 A 
ENDBRANCH   5   7
ENDBRANCH   1   2
BRANCH   1  15
ATOM     14  N1  UNL     1      22.390   3.637  32.931  0.00  0.00    -0.284 N 
ATOM     15  C8  UNL     1      21.147   3.235  32.334  0.00  0.00    +0.231 C 
ATOM     16  O1  UNL     1      20.143   3.998  32.367  0.00  0.00    -0.274 OA
ATOM     17  H9  UNL     1      23.074   2.890  33.186  0.00  0.00    +0.155 HD
BRANCH  14  24
ATOM     18  C1  UNL     1      23.553   8.204  31.362  0.00  0.00    +0.044 C 
ATOM     19  C2  UNL     1      23.249   7.251  32.482  0.00  0.00    -0.048 A 
ATOM     20  C3  UNL     1      23.310   7.685  33.815  0.00  0.00    +0.006 A 
ATOM     21  C4  UNL     1      23.064   6.790  34.866  0.00  0.00    -0.048 A 
ATOM     22  C5  UNL     1      23.067   7.278  36.284  0.00  0.00    +0.044 C 
ATOM     23  C6  UNL     1      22.749   5.454  34.576  0.00  0.00    +0.026 A 
ATOM     24  C7  UNL     1      22.720   5.000  33.246  0.00  0.00    +0.034 A 
ATOM     25  C20 UNL     1      22.963   5.908  32.205  0.00  0.00    +0.026 A 
ENDBRANCH  14  24
ENDBRANCH   1  15
TORSDOF 4
ENDMDL
MODEL 4
REMARK VINA RESULT:    -6.341     15.654     16.898
REMARK INTER + INTRA:          -8.559
REMARK INTER:                  -7.885
REMARK INTRA:                  -0.673
REMARK UNBOUND:                -0.735
REMARK  Name = /home/qwerty/github/datacon2025hack/step_04_hit_selection/docking/ligands/lig_709.pdb
REMARK  6 active torsions:
REMARK  status: ('A' for Active; 'I' for Inactive)
REMARK    1  A    between atoms: C1_1  and  C2_2
REMARK    2  A    between atoms: C4_4  and  C5_5
REMARK    3  A    between atoms: C7_7  and  N1_8
REMARK    4  A    between atoms: C8_9  and  C9_11
REMARK    5  A    between atoms: C9_11  and  N2_12
REMARK    6  A    between atoms: C12_15  and  C13_16
REMARK                            x       y       z     vdW  Elec       q    Type
REMARK                         _______ _______ _______ _____ _____    ______ ____
ROOT
ATOM      1  C9  UNL     1      23.216   6.474  32.758  0.00  0.00    +0.180 C 
ENDROOT
BRANCH   1   2
ATOM      2  N2  UNL     1      22.683   6.568  34.129  0.00  0.00    -0.293 NA
ATOM      3  C10 UNL     1      23.696   6.225  35.130  0.00  0.00    +0.085 C 
ATOM      4  C11 UNL     1      23.300   6.935  36.419  0.00  0.00    +0.025 C 
ATOM      5  C12 UNL     1      22.320   8.033  35.995  0.00  0.00    +0.034 C 
ATOM      6  C19 UNL     1      22.245   7.925  34.472  0.00  0.00    +0.093 C 
BRANCH   5   7
ATOM      7  C13 UNL     1      20.959   7.869  36.651  0.00  0.00    -0.040 A 
ATOM      8  C14 UNL     1      20.430   6.589  36.921  0.00  0.00    +0.004 A 
ATOM      9  C15 UNL     1      19.179   6.454  37.527  0.00  0.00    +0.003 A 
ATOM     10  C16 UNL     1      18.441   7.589  37.874  0.00  0.00    +0.038 A 
ATOM     11  C17 UNL     1      18.957   8.863  37.616  0.00  0.00    +0.124 A 
ATOM     12  F1  UNL     1      18.241   9.964  37.956  0.00  0.00    -0.205 F 
ATOM     13  C18 UNL     1      20.209   9.003  37.010  0.00  0.00    +0.042 A 
ENDBRANCH   5   7
ENDBRANCH   1   2
BRANCH   1  15
ATOM     14  N1  UNL     1      22.832   3.990  32.395  0.00  0.00    -0.284 N 
ATOM     15  C8  UNL     1      22.552   5.348  32.024  0.00  0.00    +0.231 C 
ATOM     16  O1  UNL     1      21.769   5.605  31.070  0.00  0.00    -0.274 OA
ATOM     17  H9  UNL     1      23.707   3.800  32.934  0.00  0.00    +0.155 HD
BRANCH  14  24
ATOM     18  C1  UNL     1      21.905   0.248  29.264  0.00  0.00    +0.044 C 
ATOM     19  C2  UNL     1      21.572   1.011  30.513  0.00  0.00    -0.048 A 
ATOM     20  C3  UNL     1      20.458   0.650  31.286  0.00  0.00    +0.006 A 
ATOM     21  C4  UNL     1      20.121   1.384  32.433  0.00  0.00    -0.048 A 
ATOM     22  C5  UNL     1      18.968   0.951  33.289  0.00  0.00    +0.044 C 
ATOM     23  C6  UNL     1      20.911   2.481  32.808  0.00  0.00    +0.026 A 
ATOM     24  C7  UNL     1      22.007   2.874  32.020  0.00  0.00    +0.034 A 
ATOM     25  C20 UNL     1      22.336   2.127  30.880  0.00  0.00    +0.026 A 
ENDBRANCH  14  24
ENDBRANCH   1  15
TORSDOF 4
ENDMDL
MODEL 5
REMARK VINA RESULT:    -6.327     14.184     16.594
REMARK INTER + INTRA:          -8.542
REMARK INTER:                  -7.987
REMARK INTRA:                  -0.555
REMARK UNBOUND:                -0.735
REMARK  Name = /home/qwerty/github/datacon2025hack/step_04_hit_selection/docking/ligands/lig_709.pdb
REMARK  6 active torsions:
REMARK  status: ('A' for Active; 'I' for Inactive)
REMARK    1  A    between atoms: C1_1  and  C2_2
REMARK    2  A    between atoms: C4_4  and  C5_5
REMARK    3  A    between atoms: C7_7  and  N1_8
REMARK    4  A    between atoms: C8_9  and  C9_11
REMARK    5  A    between atoms: C9_11  and  N2_12
REMARK    6  A    between atoms: C12_15  and  C13_16
REMARK                            x       y       z     vdW  Elec       q    Type
REMARK                         _______ _______ _______ _____ _____    ______ ____
ROOT
ATOM      1  C9  UNL     1      19.548   3.893  31.320  0.00  0.00    +0.180 C 
ENDROOT
BRANCH   1   2
ATOM      2  N2  UNL     1      20.300   2.649  31.083  0.00  0.00    -0.293 NA
ATOM      3  C10 UNL     1      19.617   1.484  31.652  0.00  0.00    +0.085 C 
ATOM      4  C11 UNL     1      20.075   0.270  30.853  0.00  0.00    +0.025 C 
ATOM      5  C12 UNL     1      20.657   0.834  29.554  0.00  0.00    +0.034 C 
ATOM      6  C19 UNL     1      20.456   2.346  29.657  0.00  0.00    +0.093 C 
BRANCH   5   7
ATOM      7  C13 UNL     1      22.119   0.459  29.373  0.00  0.00    -0.040 A 
ATOM      8  C14 UNL     1      23.138   1.427  29.484  0.00  0.00    +0.004 A 
ATOM      9  C15 UNL     1      24.478   1.067  29.318  0.00  0.00    +0.003 A 
ATOM     10  C16 UNL     1      24.818  -0.259  29.043  0.00  0.00    +0.038 A 
ATOM     11  C17 UNL     1      23.817  -1.230  28.935  0.00  0.00    +0.124 A 
ATOM     12  F1  UNL     1      24.150  -2.518  28.671  0.00  0.00    -0.205 F 
ATOM     13  C18 UNL     1      22.475  -0.874  29.100  0.00  0.00    +0.042 A 
ENDBRANCH   5   7
ENDBRANCH   1   2
BRANCH   1  15
ATOM     14  N1  UNL     1      21.658   4.647  32.516  0.00  0.00    -0.284 N 
ATOM     15  C8  UNL     1      20.231   4.715  32.371  0.00  0.00    +0.231 C 
ATOM     16  O1  UNL     1      19.542   5.445  33.135  0.00  0.00    -0.274 OA
ATOM     17  H9  UNL     1      22.151   3.815  32.121  0.00  0.00    +0.155 HD
BRANCH  14  24
ATOM     18  C1  UNL     1      24.563   8.673  32.373  0.00  0.00    +0.044 C 
ATOM     19  C2  UNL     1      23.827   7.628  33.160  0.00  0.00    -0.048 A 
ATOM     20  C3  UNL     1      23.919   7.602  34.560  0.00  0.00    +0.006 A 
ATOM     21  C4  UNL     1      23.262   6.605  35.297  0.00  0.00    -0.048 A 
ATOM     22  C5  UNL     1      23.313   6.624  36.796  0.00  0.00    +0.044 C 
ATOM     23  C6  UNL     1      22.506   5.634  34.625  0.00  0.00    +0.026 A 
ATOM     24  C7  UNL     1      22.437   5.629  33.220  0.00  0.00    +0.034 A 
ATOM     25  C20 UNL     1      23.093   6.635  32.497  0.00  0.00    +0.026 A 
ENDBRANCH  14  24
ENDBRANCH   1  15
TORSDOF 4
ENDMDL
MODEL 6
REMARK VINA RESULT:    -6.321      9.808     12.739
REMARK INTER + INTRA:          -8.535
REMARK INTER:                  -7.956
REMARK INTRA:                  -0.578
REMARK UNBOUND:                -0.735
REMARK  Name = /home/qwerty/github/datacon2025hack/step_04_hit_selection/docking/ligands/lig_709.pdb
REMARK  6 active torsions:
REMARK  status: ('A' for Active; 'I' for Inactive)
REMARK    1  A    between atoms: C1_1  and  C2_2
REMARK    2  A    between atoms: C4_4  and  C5_5
REMARK    3  A    between atoms: C7_7  and  N1_8
REMARK    4  A    between atoms: C8_9  and  C9_11
REMARK    5  A    between atoms: C9_11  and  N2_12
REMARK    6  A    between atoms: C12_15  and  C13_16
REMARK                            x       y       z     vdW  Elec       q    Type
REMARK                         _______ _______ _______ _____ _____    ______ ____
ROOT
ATOM      1  C9  UNL     1      22.681   3.421  26.132  0.00  0.00    +0.180 C 
ENDROOT
BRANCH   1   2
ATOM      2  N2  UNL     1      21.995   2.673  27.200  0.00  0.00    -0.293 NA
ATOM      3  C10 UNL     1      21.151   1.605  26.659  0.00  0.00    +0.085 C 
ATOM      4  C11 UNL     1      21.020   0.550  27.750  0.00  0.00    +0.025 C 
ATOM      5  C12 UNL     1      22.169   0.827  28.724  0.00  0.00    +0.034 C 
ATOM      6  C19 UNL     1      22.930   2.002  28.110  0.00  0.00    +0.093 C 
BRANCH   5   7
ATOM      7  C13 UNL     1      21.668   1.136  30.126  0.00  0.00    -0.040 A 
ATOM      8  C14 UNL     1      22.108   2.282  30.820  0.00  0.00    +0.004 A 
ATOM      9  C15 UNL     1      21.637   2.554  32.107  0.00  0.00    +0.003 A 
ATOM     10  C16 UNL     1      20.721   1.692  32.715  0.00  0.00    +0.038 A 
ATOM     11  C17 UNL     1      20.273   0.555  32.035  0.00  0.00    +0.124 A 
ATOM     12  F1  UNL     1      19.382  -0.279  32.625  0.00  0.00    -0.205 F 
ATOM     13  C18 UNL     1      20.742   0.278  30.747  0.00  0.00    +0.042 A 
ENDBRANCH   5   7
ENDBRANCH   1   2
BRANCH   1  15
ATOM     14  N1  UNL     1      21.534   3.606  23.874  0.00  0.00    -0.284 N 
ATOM     15  C8  UNL     1      21.675   4.065  25.227  0.00  0.00    +0.231 C 
ATOM     16  O1  UNL     1      20.975   5.021  25.656  0.00  0.00    -0.274 OA
ATOM     17  H9  UNL     1      22.327   3.069  23.454  0.00  0.00    +0.155 HD
BRANCH  14  24
ATOM     18  C1  UNL     1      16.778   2.723  22.747  0.00  0.00    +0.044 C 
ATOM     19  C2  UNL     1      18.047   3.492  22.519  0.00  0.00    -0.048 A 
ATOM     20  C3  UNL     1      18.118   4.455  21.502  0.00  0.00    +0.006 A 
ATOM     21  C4  UNL     1      19.312   5.149  21.262  0.00  0.00    -0.048 A 
ATOM     22  C5  UNL     1      19.359   6.223  20.216  0.00  0.00    +0.044 C 
ATOM     23  C6  UNL     1      20.440   4.878  22.051  0.00  0.00    +0.026 A 
ATOM     24  C7  UNL     1      20.391   3.889  23.049  0.00  0.00    +0.034 A 
ATOM     25  C20 UNL     1      19.188   3.208  23.282  0.00  0.00    +0.026 A 
ENDBRANCH  14  24
ENDBRANCH   1  15
TORSDOF 4
ENDMDL
MODEL 7
REMARK VINA RESULT:    -6.230     15.658     16.902
REMARK INTER + INTRA:          -8.423
REMARK INTER:                  -7.742
REMARK INTRA:                  -0.680
REMARK UNBOUND:                -0.735
REMARK  Name = /home/qwerty/github/datacon2025hack/step_04_hit_selection/docking/ligands/lig_709.pdb
REMARK  6 active torsions:
REMARK  status: ('A' for Active; 'I' for Inactive)
REMARK    1  A    between atoms: C1_1  and  C2_2
REMARK    2  A    between atoms: C4_4  and  C5_5
REMARK    3  A    between atoms: C7_7  and  N1_8
REMARK    4  A    between atoms: C8_9  and  C9_11
REMARK    5  A    between atoms: C9_11  and  N2_12
REMARK    6  A    between atoms: C12_15  and  C13_16
REMARK                            x       y       z     vdW  Elec       q    Type
REMARK                         _______ _______ _______ _____ _____    ______ ____
ROOT
ATOM      1  C9  UNL     1      23.211   6.537  32.707  0.00  0.00    +0.180 C 
ENDROOT
BRANCH   1   2
ATOM      2  N2  UNL     1      22.665   6.661  34.070  0.00  0.00    -0.293 NA
ATOM      3  C10 UNL     1      23.636   6.243  35.084  0.00  0.00    +0.085 C 
ATOM      4  C11 UNL     1      23.271   6.971  36.371  0.00  0.00    +0.025 C 
ATOM      5  C12 UNL     1      22.377   8.137  35.940  0.00  0.00    +0.034 C 
ATOM      6  C19 UNL     1      22.318   8.044  34.415  0.00  0.00    +0.093 C 
BRANCH   5   7
ATOM      7  C13 UNL     1      20.998   8.066  36.575  0.00  0.00    -0.040 A 
ATOM      8  C14 UNL     1      20.235   9.232  36.792  0.00  0.00    +0.004 A 
ATOM      9  C15 UNL     1      18.967   9.150  37.374  0.00  0.00    +0.003 A 
ATOM     10  C16 UNL     1      18.444   7.909  37.743  0.00  0.00    +0.038 A 
ATOM     11  C17 UNL     1      19.189   6.744  37.528  0.00  0.00    +0.124 A 
ATOM     12  F1  UNL     1      18.677   5.540  37.883  0.00  0.00    -0.205 F 
ATOM     13  C18 UNL     1      20.458   6.821  36.945  0.00  0.00    +0.042 A 
ENDBRANCH   5   7
ENDBRANCH   1   2
BRANCH   1  15
ATOM     14  N1  UNL     1      22.897   4.039  32.369  0.00  0.00    -0.284 N 
ATOM     15  C8  UNL     1      22.565   5.386  31.996  0.00  0.00    +0.231 C 
ATOM     16  O1  UNL     1      21.751   5.611  31.061  0.00  0.00    -0.274 OA
ATOM     17  H9  UNL     1      23.790   3.881  32.887  0.00  0.00    +0.155 HD
BRANCH  14  24
ATOM     18  C1  UNL     1      19.035   1.083  33.377  0.00  0.00    +0.044 C 
ATOM     19  C2  UNL     1      20.181   1.467  32.486  0.00  0.00    -0.048 A 
ATOM     20  C3  UNL     1      20.477   0.705  31.346  0.00  0.00    +0.006 A 
ATOM     21  C4  UNL     1      21.569   1.039  30.532  0.00  0.00    -0.048 A 
ATOM     22  C5  UNL     1      21.838   0.257  29.281  0.00  0.00    +0.044 C 
ATOM     23  C6  UNL     1      22.364   2.146  30.862  0.00  0.00    +0.026 A 
ATOM     24  C7  UNL     1      22.098   2.895  32.022  0.00  0.00    +0.034 A 
ATOM     25  C20 UNL     1      20.999   2.554  32.823  0.00  0.00    +0.026 A 
ENDBRANCH  14  24
ENDBRANCH   1  15
TORSDOF 4
ENDMDL
MODEL 8
REMARK VINA RESULT:    -6.224     15.015     16.366
REMARK INTER + INTRA:          -8.415
REMARK INTER:                  -7.951
REMARK INTRA:                  -0.464
REMARK UNBOUND:                -0.735
REMARK  Name = /home/qwerty/github/datacon2025hack/step_04_hit_selection/docking/ligands/lig_709.pdb
REMARK  6 active torsions:
REMARK  status: ('A' for Active; 'I' for Inactive)
REMARK    1  A    between atoms: C1_1  and  C2_2
REMARK    2  A    between atoms: C4_4  and  C5_5
REMARK    3  A    between atoms: C7_7  and  N1_8
REMARK    4  A    between atoms: C8_9  and  C9_11
REMARK    5  A    between atoms: C9_11  and  N2_12
REMARK    6  A    between atoms: C12_15  and  C13_16
REMARK                            x       y       z     vdW  Elec       q    Type
REMARK                         _______ _______ _______ _____ _____    ______ ____
ROOT
ATOM      1  C9  UNL     1      21.578   6.797  30.836  0.00  0.00    +0.180 C 
ENDROOT
BRANCH   1   2
ATOM      2  N2  UNL     1      22.213   6.912  32.161  0.00  0.00    -0.293 NA
ATOM      3  C10 UNL     1      23.662   7.099  32.055  0.00  0.00    +0.085 C 
ATOM      4  C11 UNL     1      24.108   7.819  33.321  0.00  0.00    +0.025 C 
ATOM      5  C12 UNL     1      22.835   8.431  33.912  0.00  0.00    +0.034 C 
ATOM      6  C19 UNL     1      21.729   8.070  32.920  0.00  0.00    +0.093 C 
BRANCH   5   7
ATOM      7  C13 UNL     1      22.546   7.911  35.311  0.00  0.00    -0.040 A 
ATOM      8  C14 UNL     1      23.441   7.037  35.962  0.00  0.00    +0.004 A 
ATOM      9  C15 UNL     1      23.164   6.569  37.248  0.00  0.00    +0.003 A 
ATOM     10  C16 UNL     1      21.995   6.968  37.902  0.00  0.00    +0.038 A 
ATOM     11  C17 UNL     1      21.102   7.838  37.269  0.00  0.00    +0.124 A 
ATOM     12  F1  UNL     1      19.970   8.227  37.907  0.00  0.00    -0.205 F 
ATOM     13  C18 UNL     1      21.376   8.309  35.981  0.00  0.00    +0.042 A 
ENDBRANCH   5   7
ENDBRANCH   1   2
BRANCH   1  15
ATOM     14  N1  UNL     1      21.737   4.316  31.357  0.00  0.00    -0.284 N 
ATOM     15  C8  UNL     1      21.574   5.366  30.391  0.00  0.00    +0.231 C 
ATOM     16  O1  UNL     1      21.447   5.096  29.166  0.00  0.00    -0.274 OA
ATOM     17  H9  UNL     1      22.166   4.561  32.278  0.00  0.00    +0.155 HD
BRANCH  14  24
ATOM     18  C1  UNL     1      18.775   0.436  32.272  0.00  0.00    +0.044 C 
ATOM     19  C2  UNL     1      19.922   1.048  31.521  0.00  0.00    -0.048 A 
ATOM     20  C3  UNL     1      20.660   0.279  30.608  0.00  0.00    +0.006 A 
ATOM     21  C4  UNL     1      21.755   0.836  29.932  0.00  0.00    -0.048 A 
ATOM     22  C5  UNL     1      22.497   0.027  28.910  0.00  0.00    +0.044 C 
ATOM     23  C6  UNL     1      22.106   2.173  30.169  0.00  0.00    +0.026 A 
ATOM     24  C7  UNL     1      21.397   2.942  31.109  0.00  0.00    +0.034 A 
ATOM     25  C20 UNL     1      20.300   2.373  31.773  0.00  0.00    +0.026 A 
ENDBRANCH  14  24
ENDBRANCH   1  15
TORSDOF 4
ENDMDL
MODEL 9
REMARK VINA RESULT:    -6.222      6.578      9.387
REMARK INTER + INTRA:          -8.412
REMARK INTER:                  -7.724
REMARK INTRA:                  -0.688
REMARK UNBOUND:                -0.735
REMARK  Name = /home/qwerty/github/datacon2025hack/step_04_hit_selection/docking/ligands/lig_709.pdb
REMARK  6 active torsions:
REMARK  status: ('A' for Active; 'I' for Inactive)
REMARK    1  A    between atoms: C1_1  and  C2_2
REMARK    2  A    between atoms: C4_4  and  C5_5
REMARK    3  A    between atoms: C7_7  and  N1_8
REMARK    4  A    between atoms: C8_9  and  C9_11
REMARK    5  A    between atoms: C9_11  and  N2_12
REMARK    6  A    between atoms: C12_15  and  C13_16
REMARK                            x       y       z     vdW  Elec       q    Type
REMARK                         _______ _______ _______ _____ _____    ______ ____
ROOT
ATOM      1  C9  UNL     1      17.672  -1.001  24.596  0.00  0.00    +0.180 C 
ENDROOT
BRANCH   1   2
ATOM      2  N2  UNL     1      17.458  -0.293  23.322  0.00  0.00    -0.293 NA
ATOM      3  C10 UNL     1      17.282  -1.224  22.205  0.00  0.00    +0.085 C 
ATOM      4  C11 UNL     1      16.470  -0.493  21.144  0.00  0.00    +0.025 C 
ATOM      5  C12 UNL     1      15.812   0.682  21.872  0.00  0.00    +0.034 C 
ATOM      6  C19 UNL     1      16.245   0.532  23.331  0.00  0.00    +0.093 C 
BRANCH   5   7
ATOM      7  C13 UNL     1      16.224   2.022  21.285  0.00  0.00    -0.040 A 
ATOM      8  C14 UNL     1      15.789   2.420  20.004  0.00  0.00    +0.004 A 
ATOM      9  C15 UNL     1      16.174   3.656  19.478  0.00  0.00    +0.003 A 
ATOM     10  C16 UNL     1      16.993   4.510  20.222  0.00  0.00    +0.038 A 
ATOM     11  C17 UNL     1      17.427   4.129  21.495  0.00  0.00    +0.124 A 
ATOM     12  F1  UNL     1      18.218   4.960  22.217  0.00  0.00    -0.205 F 
ATOM     13  C18 UNL     1      17.044   2.893  22.026  0.00  0.00    +0.042 A 
ENDBRANCH   5   7
ENDBRANCH   1   2
BRANCH   1  15
ATOM     14  N1  UNL     1      19.865  -0.074  25.480  0.00  0.00    -0.284 N 
ATOM     15  C8  UNL     1      18.431  -0.128  25.549  0.00  0.00    +0.231 C 
ATOM     16  O1  UNL     1      17.805   0.535  26.418  0.00  0.00    -0.274 OA
ATOM     17  H9  UNL     1      20.362  -0.859  25.002  0.00  0.00    +0.155 HD
BRANCH  14  24
ATOM     18  C1  UNL     1      22.496   1.576  29.356  0.00  0.00    +0.044 C 
ATOM     19  C2  UNL     1      21.981   1.765  27.959  0.00  0.00    -0.048 A 
ATOM     20  C3  UNL     1      22.249   2.952  27.261  0.00  0.00    +0.006 A 
ATOM     21  C4  UNL     1      21.739   3.149  25.970  0.00  0.00    -0.048 A 
ATOM     22  C5  UNL     1      22.086   4.393  25.207  0.00  0.00    +0.044 C 
ATOM     23  C6  UNL     1      20.960   2.146  25.375  0.00  0.00    +0.026 A 
ATOM     24  C7  UNL     1      20.654   0.968  26.079  0.00  0.00    +0.034 A 
ATOM     25  C20 UNL     1      21.176   0.782  27.367  0.00  0.00    +0.026 A 
ENDBRANCH  14  24
ENDBRANCH   1  15
TORSDOF 4
ENDMDL
