REMARK  Name = /home/qwerty/github/datacon2025hack/step_04_hit_selection/docking/ligands/lig_183.pdb
REMARK  6 active torsions:
REMARK  status: ('A' for Active; 'I' for Inactive)
REMARK    1  A    between atoms: C1_1  and  C2_2
REMARK    2  A    between atoms: C4_5  and  C5_7
REMARK    3  A    between atoms: N2_9  and  C7_10
REMARK    4  A    between atoms: C10_14  and  N4_15
REMARK    5  A    between atoms: C11_16  and  C12_18
REMARK    6  A    between atoms: C14_20  and  C15_21
REMARK                            x       y       z     vdW  Elec       q    Type
REMARK                         _______ _______ _______ _____ _____    ______ ____
ROOT
ATOM      1  N4  UNL     1       1.000  -0.889  -0.616  0.00  0.00    -0.305 N 
ATOM      2  C11 UNL     1       2.162  -1.631  -1.024  0.00  0.00    +0.261 C 
ATOM      3  O2  UNL     1       2.023  -2.723  -1.640  0.00  0.00    -0.269 OA
ATOM      4  H15 UNL     1       1.123   0.069  -0.222  0.00  0.00    +0.149 HD
ENDROOT
BRANCH   1  12
ATOM      5  C1  UNL     1      -0.049  -2.469   1.504  0.00  0.00    +0.011 C 
ATOM      6  C2  UNL     1      -0.718  -2.577   0.121  0.00  0.00    +0.025 C 
ATOM      7  C3  UNL     1      -2.242  -2.481   0.252  0.00  0.00    +0.113 C 
ATOM      8  N1  UNL     1      -2.577  -1.098  -0.056  0.00  0.00    -0.294 N 
ATOM      9  C4  UNL     1      -3.918  -0.584   0.064  0.00  0.00    +0.266 C 
ATOM     10  O1  UNL     1      -4.862  -1.385   0.300  0.00  0.00    -0.268 OA
ATOM     11  C9  UNL     1      -1.436  -0.356  -0.573  0.00  0.00    +0.130 C 
ATOM     12  C10 UNL     1      -0.357  -1.411  -0.821  0.00  0.00    +0.095 C 
BRANCH   9  13
ATOM     13  C5  UNL     1      -4.233   0.855  -0.074  0.00  0.00    +0.143 A 
ATOM     14  C6  UNL     1      -5.502   1.398  -0.078  0.00  0.00    +0.119 A 
ATOM     15  N2  UNL     1      -5.374   2.729  -0.201  0.00  0.00    -0.339 N 
ATOM     16  C7  UNL     1      -6.444   3.716  -0.162  0.00  0.00    +0.150 C 
ATOM     17  C8  UNL     1      -4.051   2.973  -0.239  0.00  0.00    +0.199 A 
ATOM     18  N3  UNL     1      -3.317   1.843  -0.168  0.00  0.00    -0.231 NA
ENDBRANCH   9  13
ENDBRANCH   1  12
BRANCH   2  19
ATOM     19  C12 UNL     1       3.524  -1.141  -0.734  0.00  0.00    +0.102 A 
ATOM     20  C13 UNL     1       3.856  -0.027   0.021  0.00  0.00    +0.044 A 
ATOM     21  C14 UNL     1       5.237   0.026   0.028  0.00  0.00    +0.041 A 
ATOM     22  C16 UNL     1       5.691  -1.048  -0.712  0.00  0.00    +0.095 A 
ATOM     23  N9  UNL     1       4.643  -1.755  -1.171  0.00  0.00    -0.356 N 
ATOM     24  H19 UNL     1       4.697  -2.618  -1.757  0.00  0.00    +0.165 HD
BRANCH  21  25
ATOM     25  C15 UNL     1       6.066   1.031   0.703  0.00  0.00    +0.206 A 
ATOM     26  N5  UNL     1       7.413   1.042   0.685  0.00  0.00    -0.108 NA
ATOM     27  N6  UNL     1       7.752   2.099   1.404  0.00  0.00    -0.049 NA
ATOM     28  N7  UNL     1       6.656   2.699   1.836  0.00  0.00    -0.176 N 
ATOM     29  N8  UNL     1       5.576   2.061   1.419  0.00  0.00    -0.133 NA
ATOM     30  H17 UNL     1       6.645   3.559   2.427  0.00  0.00    +0.214 HD
ENDBRANCH  21  25
ENDBRANCH   2  19
TORSDOF 4
