MODEL 1
REMARK VINA RESULT:    -7.820      0.000      0.000
REMARK INTER + INTRA:          -9.853
REMARK INTER:                  -9.191
REMARK INTRA:                  -0.662
REMARK UNBOUND:                -0.662
REMARK  Name = /home/qwerty/github/datacon2025hack/step_04_hit_selection/docking/ligands/lig_315.pdb
REMARK  3 active torsions:
REMARK  status: ('A' for Active; 'I' for Inactive)
REMARK    1  A    between atoms: C1_2  and  C8_13
REMARK    2  A    between atoms: N1_3  and  C2_4
REMARK    3  A    between atoms: C13_19  and  C14_20
REMARK                            x       y       z     vdW  Elec       q    Type
REMARK                         _______ _______ _______ _____ _____    ______ ____
ROOT
ATOM      1  C8  UNL     1      21.405   3.416  27.787  0.00  0.00    +0.038 A 
ATOM      2  C9  UNL     1      22.493   2.783  27.127  0.00  0.00    +0.015 A 
ATOM      3  C10 UNL     1      22.913   3.203  25.852  0.00  0.00    +0.027 A 
ATOM      4  C11 UNL     1      22.224   4.251  25.250  0.00  0.00    +0.048 A 
ATOM      5  N5  UNL     1      22.472   4.802  24.041  0.00  0.00    -0.354 N 
ATOM      6  C12 UNL     1      21.538   5.774  23.902  0.00  0.00    +0.058 A 
ATOM      7  C13 UNL     1      21.371   6.666  22.832  0.00  0.00    +0.024 A 
ATOM      8  C20 UNL     1      20.347   7.632  22.966  0.00  0.00    +0.121 A 
ATOM      9  N6  UNL     1      19.559   7.669  24.086  0.00  0.00    -0.262 NA
ATOM     10  C21 UNL     1      19.720   6.793  25.117  0.00  0.00    +0.121 A 
ATOM     11  C22 UNL     1      20.726   5.840  25.014  0.00  0.00    +0.026 A 
ATOM     12  C23 UNL     1      21.162   4.862  25.877  0.00  0.00    +0.010 A 
ATOM     13  C24 UNL     1      20.722   4.474  27.141  0.00  0.00    +0.023 A 
ATOM     14  H8  UNL     1      23.235   4.540  23.379  0.00  0.00    +0.166 HD
ENDROOT
BRANCH   7  15
ATOM     15  C14 UNL     1      22.206   6.612  21.612  0.00  0.00    -0.012 A 
ATOM     16  C15 UNL     1      21.703   6.048  20.425  0.00  0.00    +0.009 A 
ATOM     17  C16 UNL     1      22.492   6.012  19.272  0.00  0.00    +0.003 A 
ATOM     18  C17 UNL     1      23.783   6.545  19.290  0.00  0.00    +0.038 A 
ATOM     19  C18 UNL     1      24.287   7.119  20.459  0.00  0.00    +0.124 A 
ATOM     20  F1  UNL     1      25.539   7.640  20.473  0.00  0.00    -0.205 F 
ATOM     21  C19 UNL     1      23.501   7.157  21.616  0.00  0.00    +0.047 A 
ENDBRANCH   7  15
BRANCH   1  23
ATOM     22  O1  UNL     1      21.412   3.554  30.148  0.00  0.00    -0.270 OA
ATOM     23  C1  UNL     1      20.990   2.941  29.130  0.00  0.00    +0.248 C 
ATOM     24  N1  UNL     1      20.130   1.796  29.285  0.00  0.00    -0.280 N 
ATOM     25  H1  UNL     1      19.901   1.212  28.452  0.00  0.00    +0.155 HD
BRANCH  24  26
ATOM     26  C2  UNL     1      19.609   1.353  30.549  0.00  0.00    +0.053 A 
ATOM     27  C3  UNL     1      20.272   0.356  31.323  0.00  0.00    +0.136 A 
ATOM     28  N2  UNL     1      19.776  -0.030  32.538  0.00  0.00    -0.234 NA
ATOM     29  C4  UNL     1      18.645   0.557  32.996  0.00  0.00    +0.156 A 
ATOM     30  N3  UNL     1      18.019   0.315  34.155  0.00  0.00    -0.260 N 
ATOM     31  N4  UNL     1      16.961   1.118  34.223  0.00  0.00    -0.180 NA
ATOM     32  C5  UNL     1      16.920   1.874  33.096  0.00  0.00    +0.144 A 
ATOM     33  C6  UNL     1      17.991   1.525  32.305  0.00  0.00    +0.040 A 
ATOM     34  C7  UNL     1      18.447   1.965  31.069  0.00  0.00    +0.038 A 
ATOM     35  H3  UNL     1      18.296  -0.373  34.890  0.00  0.00    +0.191 HD
ENDBRANCH  24  26
ENDBRANCH   1  23
TORSDOF 3
ENDMDL
MODEL 2
REMARK VINA RESULT:    -7.805      4.647     12.205
REMARK INTER + INTRA:          -9.836
REMARK INTER:                  -9.178
REMARK INTRA:                  -0.658
REMARK UNBOUND:                -0.662
REMARK  Name = /home/qwerty/github/datacon2025hack/step_04_hit_selection/docking/ligands/lig_315.pdb
REMARK  3 active torsions:
REMARK  status: ('A' for Active; 'I' for Inactive)
REMARK    1  A    between atoms: C1_2  and  C8_13
REMARK    2  A    between atoms: N1_3  and  C2_4
REMARK    3  A    between atoms: C13_19  and  C14_20
REMARK                            x       y       z     vdW  Elec       q    Type
REMARK                         _______ _______ _______ _____ _____    ______ ____
ROOT
ATOM      1  C8  UNL     1      19.806   1.468  30.068  0.00  0.00    +0.038 A 
ATOM      2  C9  UNL     1      20.581   0.504  30.768  0.00  0.00    +0.015 A 
ATOM      3  C10 UNL     1      20.199   0.052  32.044  0.00  0.00    +0.027 A 
ATOM      4  C11 UNL     1      19.044   0.586  32.607  0.00  0.00    +0.048 A 
ATOM      5  N5  UNL     1      18.508   0.283  33.810  0.00  0.00    -0.354 N 
ATOM      6  C12 UNL     1      17.402   1.060  33.906  0.00  0.00    +0.058 A 
ATOM      7  C13 UNL     1      16.469   1.111  34.952  0.00  0.00    +0.024 A 
ATOM      8  C20 UNL     1      15.362   1.972  34.774  0.00  0.00    +0.121 A 
ATOM      9  N6  UNL     1      15.232   2.721  33.634  0.00  0.00    -0.262 NA
ATOM     10  C21 UNL     1      16.148   2.673  32.625  0.00  0.00    +0.121 A 
ATOM     11  C22 UNL     1      17.240   1.828  32.773  0.00  0.00    +0.026 A 
ATOM     12  C23 UNL     1      18.293   1.529  31.941  0.00  0.00    +0.010 A 
ATOM     13  C24 UNL     1      18.640   1.995  30.675  0.00  0.00    +0.023 A 
ATOM     14  H8  UNL     1      18.866  -0.417  34.496  0.00  0.00    +0.166 HD
ENDROOT
BRANCH   7  15
ATOM     15  C14 UNL     1      16.620   0.320  36.194  0.00  0.00    -0.012 A 
ATOM     16  C15 UNL     1      17.115   0.918  37.367  0.00  0.00    +0.009 A 
ATOM     17  C16 UNL     1      17.242   0.170  38.540  0.00  0.00    +0.003 A 
ATOM     18  C17 UNL     1      16.870  -1.177  38.556  0.00  0.00    +0.038 A 
ATOM     19  C18 UNL     1      16.365  -1.777  37.400  0.00  0.00    +0.124 A 
ATOM     20  F1  UNL     1      16.000  -3.083  37.418  0.00  0.00    -0.205 F 
ATOM     21  C19 UNL     1      16.236  -1.031  36.223  0.00  0.00    +0.047 A 
ENDBRANCH   7  15
BRANCH   1  23
ATOM     22  O1  UNL     1      19.844   1.289  27.711  0.00  0.00    -0.270 OA
ATOM     23  C1  UNL     1      20.245   1.922  28.726  0.00  0.00    +0.248 C 
ATOM     24  N1  UNL     1      21.119   3.056  28.569  0.00  0.00    -0.280 N 
ATOM     25  H1  UNL     1      21.557   3.485  29.412  0.00  0.00    +0.155 HD
BRANCH  24  26
ATOM     26  C2  UNL     1      21.492   3.607  27.295  0.00  0.00    +0.053 A 
ATOM     27  C3  UNL     1      22.561   3.058  26.528  0.00  0.00    +0.136 A 
ATOM     28  N2  UNL     1      22.881   3.578  25.304  0.00  0.00    -0.234 NA
ATOM     29  C4  UNL     1      22.159   4.622  24.830  0.00  0.00    +0.156 A 
ATOM     30  N3  UNL     1      22.321   5.255  23.661  0.00  0.00    -0.260 N 
ATOM     31  N4  UNL     1      21.395   6.205  23.580  0.00  0.00    -0.180 NA
ATOM     32  C5  UNL     1      20.642   6.172  24.708  0.00  0.00    +0.144 A 
ATOM     33  C6  UNL     1      21.121   5.163  25.515  0.00  0.00    +0.040 A 
ATOM     34  C7  UNL     1      20.742   4.677  26.760  0.00  0.00    +0.038 A 
ATOM     35  H3  UNL     1      23.036   5.052  22.927  0.00  0.00    +0.191 HD
ENDBRANCH  24  26
ENDBRANCH   1  23
TORSDOF 3
ENDMDL
MODEL 3
REMARK VINA RESULT:    -7.509      6.255     10.196
REMARK INTER + INTRA:          -9.488
REMARK INTER:                  -8.868
REMARK INTRA:                  -0.620
REMARK UNBOUND:                -0.662
REMARK  Name = /home/qwerty/github/datacon2025hack/step_04_hit_selection/docking/ligands/lig_315.pdb
REMARK  3 active torsions:
REMARK  status: ('A' for Active; 'I' for Inactive)
REMARK    1  A    between atoms: C1_2  and  C8_13
REMARK    2  A    between atoms: N1_3  and  C2_4
REMARK    3  A    between atoms: C13_19  and  C14_20
REMARK                            x       y       z     vdW  Elec       q    Type
REMARK                         _______ _______ _______ _____ _____    ______ ____
ROOT
ATOM      1  C8  UNL     1      20.747   2.338  30.142  0.00  0.00    +0.038 A 
ATOM      2  C9  UNL     1      20.375   1.691  31.352  0.00  0.00    +0.015 A 
ATOM      3  C10 UNL     1      20.559   2.318  32.597  0.00  0.00    +0.027 A 
ATOM      4  C11 UNL     1      21.127   3.587  32.612  0.00  0.00    +0.048 A 
ATOM      5  N5  UNL     1      21.381   4.355  33.695  0.00  0.00    -0.354 N 
ATOM      6  C12 UNL     1      21.936   5.488  33.199  0.00  0.00    +0.058 A 
ATOM      7  C13 UNL     1      22.359   6.624  33.904  0.00  0.00    +0.024 A 
ATOM      8  C20 UNL     1      22.850   7.702  33.133  0.00  0.00    +0.121 A 
ATOM      9  N6  UNL     1      22.915   7.616  31.767  0.00  0.00    -0.262 NA
ATOM     10  C21 UNL     1      22.510   6.505  31.089  0.00  0.00    +0.121 A 
ATOM     11  C22 UNL     1      22.015   5.436  31.823  0.00  0.00    +0.026 A 
ATOM     12  C23 UNL     1      21.501   4.217  31.446  0.00  0.00    +0.010 A 
ATOM     13  C24 UNL     1      21.330   3.627  30.196  0.00  0.00    +0.023 A 
ATOM     14  H8  UNL     1      21.169   4.123  34.690  0.00  0.00    +0.166 HD
ENDROOT
BRANCH   7  15
ATOM     15  C14 UNL     1      22.312   6.709  35.381  0.00  0.00    -0.012 A 
ATOM     16  C15 UNL     1      23.466   6.467  36.148  0.00  0.00    +0.009 A 
ATOM     17  C16 UNL     1      23.419   6.562  37.541  0.00  0.00    +0.003 A 
ATOM     18  C17 UNL     1      22.225   6.908  38.180  0.00  0.00    +0.038 A 
ATOM     19  C18 UNL     1      21.077   7.162  37.426  0.00  0.00    +0.124 A 
ATOM     20  F1  UNL     1      19.920   7.501  38.047  0.00  0.00    -0.205 F 
ATOM     21  C19 UNL     1      21.120   7.068  36.031  0.00  0.00    +0.047 A 
ENDBRANCH   7  15
BRANCH   1  23
ATOM     22  O1  UNL     1      21.252   0.635  28.581  0.00  0.00    -0.270 OA
ATOM     23  C1  UNL     1      20.540   1.642  28.849  0.00  0.00    +0.248 C 
ATOM     24  N1  UNL     1      19.556   2.100  27.903  0.00  0.00    -0.280 N 
ATOM     25  H1  UNL     1      19.073   3.009  28.067  0.00  0.00    +0.155 HD
BRANCH  24  26
ATOM     26  C2  UNL     1      19.235   1.408  26.684  0.00  0.00    +0.053 A 
ATOM     27  C3  UNL     1      20.087   1.471  25.543  0.00  0.00    +0.136 A 
ATOM     28  N2  UNL     1      19.779   0.781  24.403  0.00  0.00    -0.234 NA
ATOM     29  C4  UNL     1      18.653   0.030  24.379  0.00  0.00    +0.156 A 
ATOM     30  N3  UNL     1      18.195  -0.713  23.364  0.00  0.00    -0.260 N 
ATOM     31  N4  UNL     1      17.072  -1.303  23.763  0.00  0.00    -0.180 NA
ATOM     32  C5  UNL     1      16.820  -0.929  25.043  0.00  0.00    +0.144 A 
ATOM     33  C6  UNL     1      17.823  -0.077  25.448  0.00  0.00    +0.040 A 
ATOM     34  C7  UNL     1      18.083   0.593  26.636  0.00  0.00    +0.038 A 
ATOM     35  H3  UNL     1      18.627  -0.826  22.420  0.00  0.00    +0.191 HD
ENDBRANCH  24  26
ENDBRANCH   1  23
TORSDOF 3
ENDMDL
MODEL 4
REMARK VINA RESULT:    -7.432      5.702      6.770
REMARK INTER + INTRA:          -9.397
REMARK INTER:                  -8.711
REMARK INTRA:                  -0.686
REMARK UNBOUND:                -0.662
REMARK  Name = /home/qwerty/github/datacon2025hack/step_04_hit_selection/docking/ligands/lig_315.pdb
REMARK  3 active torsions:
REMARK  status: ('A' for Active; 'I' for Inactive)
REMARK    1  A    between atoms: C1_2  and  C8_13
REMARK    2  A    between atoms: N1_3  and  C2_4
REMARK    3  A    between atoms: C13_19  and  C14_20
REMARK                            x       y       z     vdW  Elec       q    Type
REMARK                         _______ _______ _______ _____ _____    ______ ____
ROOT
ATOM      1  C8  UNL     1      20.645   2.079  27.587  0.00  0.00    +0.038 A 
ATOM      2  C9  UNL     1      21.298   2.400  26.365  0.00  0.00    +0.015 A 
ATOM      3  C10 UNL     1      20.710   2.091  25.125  0.00  0.00    +0.027 A 
ATOM      4  C11 UNL     1      19.474   1.451  25.129  0.00  0.00    +0.048 A 
ATOM      5  N5  UNL     1      18.746   1.076  24.054  0.00  0.00    -0.354 N 
ATOM      6  C12 UNL     1      17.636   0.495  24.569  0.00  0.00    +0.058 A 
ATOM      7  C13 UNL     1      16.541  -0.043  23.876  0.00  0.00    +0.024 A 
ATOM      8  C20 UNL     1      15.475  -0.539  24.661  0.00  0.00    +0.121 A 
ATOM      9  N6  UNL     1      15.534  -0.500  26.030  0.00  0.00    -0.262 NA
ATOM     10  C21 UNL     1      16.605   0.016  26.697  0.00  0.00    +0.121 A 
ATOM     11  C22 UNL     1      17.661   0.518  25.947  0.00  0.00    +0.026 A 
ATOM     12  C23 UNL     1      18.841   1.126  26.308  0.00  0.00    +0.010 A 
ATOM     13  C24 UNL     1      19.392   1.421  27.553  0.00  0.00    +0.023 A 
ATOM     14  H8  UNL     1      18.989   1.229  23.050  0.00  0.00    +0.166 HD
ENDROOT
BRANCH   7  15
ATOM     15  C14 UNL     1      16.486  -0.108  22.399  0.00  0.00    -0.012 A 
ATOM     16  C15 UNL     1      16.947  -1.248  21.715  0.00  0.00    +0.009 A 
ATOM     17  C16 UNL     1      16.879  -1.308  20.321  0.00  0.00    +0.003 A 
ATOM     18  C17 UNL     1      16.346  -0.238  19.597  0.00  0.00    +0.038 A 
ATOM     19  C18 UNL     1      15.875   0.893  20.268  0.00  0.00    +0.124 A 
ATOM     20  F1  UNL     1      15.354   1.929  19.565  0.00  0.00    -0.205 F 
ATOM     21  C19 UNL     1      15.940   0.958  21.664  0.00  0.00    +0.047 A 
ENDBRANCH   7  15
BRANCH   1  23
ATOM     22  O1  UNL     1      22.465   1.989  29.094  0.00  0.00    -0.270 OA
ATOM     23  C1  UNL     1      21.300   2.418  28.874  0.00  0.00    +0.248 C 
ATOM     24  N1  UNL     1      20.627   3.214  29.868  0.00  0.00    -0.280 N 
ATOM     25  H1  UNL     1      19.618   3.446  29.740  0.00  0.00    +0.155 HD
BRANCH  24  26
ATOM     26  C2  UNL     1      21.246   3.665  31.085  0.00  0.00    +0.053 A 
ATOM     27  C3  UNL     1      21.284   2.846  32.250  0.00  0.00    +0.136 A 
ATOM     28  N2  UNL     1      21.904   3.281  33.390  0.00  0.00    -0.234 NA
ATOM     29  C4  UNL     1      22.487   4.503  33.388  0.00  0.00    +0.156 A 
ATOM     30  N3  UNL     1      23.140   5.091  34.399  0.00  0.00    -0.260 N 
ATOM     31  N4  UNL     1      23.571   6.274  33.973  0.00  0.00    -0.180 NA
ATOM     32  C5  UNL     1      23.187   6.434  32.681  0.00  0.00    +0.144 A 
ATOM     33  C6  UNL     1      22.494   5.308  32.296  0.00  0.00    +0.040 A 
ATOM     34  C7  UNL     1      21.887   4.923  31.108  0.00  0.00    +0.038 A 
ATOM     35  H3  UNL     1      23.297   4.705  35.357  0.00  0.00    +0.191 HD
ENDBRANCH  24  26
ENDBRANCH   1  23
TORSDOF 3
ENDMDL
MODEL 5
REMARK VINA RESULT:    -7.364      6.010      8.702
REMARK INTER + INTRA:          -9.317
REMARK INTER:                  -9.447
REMARK INTRA:                   0.131
REMARK UNBOUND:                -0.662
REMARK  Name = /home/qwerty/github/datacon2025hack/step_04_hit_selection/docking/ligands/lig_315.pdb
REMARK  3 active torsions:
REMARK  status: ('A' for Active; 'I' for Inactive)
REMARK    1  A    between atoms: C1_2  and  C8_13
REMARK    2  A    between atoms: N1_3  and  C2_4
REMARK    3  A    between atoms: C13_19  and  C14_20
REMARK                            x       y       z     vdW  Elec       q    Type
REMARK                         _______ _______ _______ _____ _____    ______ ____
ROOT
ATOM      1  C8  UNL     1      20.491   2.931  30.406  0.00  0.00    +0.038 A 
ATOM      2  C9  UNL     1      19.354   2.488  31.135  0.00  0.00    +0.015 A 
ATOM      3  C10 UNL     1      18.348   1.724  30.517  0.00  0.00    +0.027 A 
ATOM      4  C11 UNL     1      18.492   1.424  29.166  0.00  0.00    +0.048 A 
ATOM      5  N5  UNL     1      17.646   0.704  28.396  0.00  0.00    -0.354 N 
ATOM      6  C12 UNL     1      18.215   0.696  27.166  0.00  0.00    +0.058 A 
ATOM      7  C13 UNL     1      17.753   0.062  26.003  0.00  0.00    +0.024 A 
ATOM      8  C20 UNL     1      18.575   0.160  24.857  0.00  0.00    +0.121 A 
ATOM      9  N6  UNL     1      19.754   0.857  24.897  0.00  0.00    -0.262 NA
ATOM     10  C21 UNL     1      20.193   1.479  26.028  0.00  0.00    +0.121 A 
ATOM     11  C22 UNL     1      19.407   1.389  27.170  0.00  0.00    +0.026 A 
ATOM     12  C23 UNL     1      19.584   1.859  28.450  0.00  0.00    +0.010 A 
ATOM     13  C24 UNL     1      20.601   2.614  29.031  0.00  0.00    +0.023 A 
ATOM     14  H8  UNL     1      16.762   0.241  28.701  0.00  0.00    +0.166 HD
ENDROOT
BRANCH   7  15
ATOM     15  C14 UNL     1      16.468  -0.671  25.952  0.00  0.00    -0.012 A 
ATOM     16  C15 UNL     1      16.346  -1.847  25.191  0.00  0.00    +0.009 A 
ATOM     17  C16 UNL     1      15.134  -2.542  25.158  0.00  0.00    +0.003 A 
ATOM     18  C17 UNL     1      14.038  -2.076  25.888  0.00  0.00    +0.038 A 
ATOM     19  C18 UNL     1      14.152  -0.915  26.656  0.00  0.00    +0.124 A 
ATOM     20  F1  UNL     1      13.089  -0.465  27.368  0.00  0.00    -0.205 F 
ATOM     21  C19 UNL     1      15.364  -0.216  26.693  0.00  0.00    +0.047 A 
ENDBRANCH   7  15
BRANCH   1  23
ATOM     22  O1  UNL     1      22.579   3.164  31.491  0.00  0.00    -0.270 OA
ATOM     23  C1  UNL     1      21.529   3.738  31.094  0.00  0.00    +0.248 C 
ATOM     24  N1  UNL     1      21.351   5.150  31.318  0.00  0.00    -0.280 N 
ATOM     25  H1  UNL     1      20.427   5.588  31.115  0.00  0.00    +0.155 HD
BRANCH  24  26
ATOM     26  C2  UNL     1      22.362   6.003  31.881  0.00  0.00    +0.053 A 
ATOM     27  C3  UNL     1      23.104   5.621  33.036  0.00  0.00    +0.136 A 
ATOM     28  N2  UNL     1      24.082   6.434  33.538  0.00  0.00    -0.234 NA
ATOM     29  C4  UNL     1      24.339   7.608  32.913  0.00  0.00    +0.156 A 
ATOM     30  N3  UNL     1      25.255   8.523  33.253  0.00  0.00    -0.260 N 
ATOM     31  N4  UNL     1      25.191   9.513  32.368  0.00  0.00    -0.180 NA
ATOM     32  C5  UNL     1      24.225   9.219  31.461  0.00  0.00    +0.144 A 
ATOM     33  C6  UNL     1      23.673   8.003  31.799  0.00  0.00    +0.040 A 
ATOM     34  C7  UNL     1      22.673   7.221  31.237  0.00  0.00    +0.038 A 
ATOM     35  H3  UNL     1      25.916   8.485  34.061  0.00  0.00    +0.191 HD
ENDBRANCH  24  26
ENDBRANCH   1  23
TORSDOF 3
ENDMDL
MODEL 6
REMARK VINA RESULT:    -7.357     13.125     14.302
REMARK INTER + INTRA:          -9.309
REMARK INTER:                  -8.617
REMARK INTRA:                  -0.692
REMARK UNBOUND:                -0.662
REMARK  Name = /home/qwerty/github/datacon2025hack/step_04_hit_selection/docking/ligands/lig_315.pdb
REMARK  3 active torsions:
REMARK  status: ('A' for Active; 'I' for Inactive)
REMARK    1  A    between atoms: C1_2  and  C8_13
REMARK    2  A    between atoms: N1_3  and  C2_4
REMARK    3  A    between atoms: C13_19  and  C14_20
REMARK                            x       y       z     vdW  Elec       q    Type
REMARK                         _______ _______ _______ _____ _____    ______ ____
ROOT
ATOM      1  C8  UNL     1       9.241  10.896  27.909  0.00  0.00    +0.038 A 
ATOM      2  C9  UNL     1       8.179   9.975  28.119  0.00  0.00    +0.015 A 
ATOM      3  C10 UNL     1       7.788   9.075  27.111  0.00  0.00    +0.027 A 
ATOM      4  C11 UNL     1       8.465   9.120  25.896  0.00  0.00    +0.048 A 
ATOM      5  N5  UNL     1       8.247   8.344  24.812  0.00  0.00    -0.354 N 
ATOM      6  C12 UNL     1       9.145   8.770  23.891  0.00  0.00    +0.058 A 
ATOM      7  C13 UNL     1       9.357   8.274  22.596  0.00  0.00    +0.024 A 
ATOM      8  C20 UNL     1      10.409   8.861  21.856  0.00  0.00    +0.121 A 
ATOM      9  N6  UNL     1      11.163   9.873  22.390  0.00  0.00    -0.262 NA
ATOM     10  C21 UNL     1      10.946  10.356  23.646  0.00  0.00    +0.121 A 
ATOM     11  C22 UNL     1       9.924   9.788  24.397  0.00  0.00    +0.026 A 
ATOM     12  C23 UNL     1       9.486  10.017  25.680  0.00  0.00    +0.010 A 
ATOM     13  C24 UNL     1       9.902  10.919  26.657  0.00  0.00    +0.023 A 
ATOM     14  H8  UNL     1       7.550   7.572  24.725  0.00  0.00    +0.166 HD
ENDROOT
BRANCH   7  15
ATOM     15  C14 UNL     1       8.528   7.198  22.008  0.00  0.00    -0.012 A 
ATOM     16  C15 UNL     1       8.946   5.857  22.073  0.00  0.00    +0.009 A 
ATOM     17  C16 UNL     1       8.152   4.844  21.529  0.00  0.00    +0.003 A 
ATOM     18  C17 UNL     1       6.933   5.158  20.923  0.00  0.00    +0.038 A 
ATOM     19  C18 UNL     1       6.503   6.485  20.865  0.00  0.00    +0.124 A 
ATOM     20  F1  UNL     1       5.317   6.788  20.281  0.00  0.00    -0.205 F 
ATOM     21  C19 UNL     1       7.294   7.503  21.409  0.00  0.00    +0.047 A 
ENDBRANCH   7  15
BRANCH   1  23
ATOM     22  O1  UNL     1       8.734  12.580  29.489  0.00  0.00    -0.270 OA
ATOM     23  C1  UNL     1       9.620  11.831  28.995  0.00  0.00    +0.248 C 
ATOM     24  N1  UNL     1      10.974  11.901  29.482  0.00  0.00    -0.280 N 
ATOM     25  H1  UNL     1      11.727  11.385  28.978  0.00  0.00    +0.155 HD
BRANCH  24  26
ATOM     26  C2  UNL     1      11.381  12.707  30.601  0.00  0.00    +0.053 A 
ATOM     27  C3  UNL     1      11.816  14.053  30.433  0.00  0.00    +0.136 A 
ATOM     28  N2  UNL     1      12.170  14.814  31.514  0.00  0.00    -0.234 NA
ATOM     29  C4  UNL     1      12.094  14.265  32.749  0.00  0.00    +0.156 A 
ATOM     30  N3  UNL     1      12.392  14.851  33.916  0.00  0.00    -0.260 N 
ATOM     31  N4  UNL     1      12.161  13.971  34.885  0.00  0.00    -0.180 NA
ATOM     32  C5  UNL     1      11.713  12.818  34.325  0.00  0.00    +0.144 A 
ATOM     33  C6  UNL     1      11.666  12.994  32.960  0.00  0.00    +0.040 A 
ATOM     34  C7  UNL     1      11.287  12.174  31.905  0.00  0.00    +0.038 A 
ATOM     35  H3  UNL     1      12.740  15.824  34.062  0.00  0.00    +0.191 HD
ENDBRANCH  24  26
ENDBRANCH   1  23
TORSDOF 3
ENDMDL
MODEL 7
REMARK VINA RESULT:    -7.227     13.923     15.728
REMARK INTER + INTRA:          -9.156
REMARK INTER:                  -8.609
REMARK INTRA:                  -0.548
REMARK UNBOUND:                -0.662
REMARK  Name = /home/qwerty/github/datacon2025hack/step_04_hit_selection/docking/ligands/lig_315.pdb
REMARK  3 active torsions:
REMARK  status: ('A' for Active; 'I' for Inactive)
REMARK    1  A    between atoms: C1_2  and  C8_13
REMARK    2  A    between atoms: N1_3  and  C2_4
REMARK    3  A    between atoms: C13_19  and  C14_20
REMARK                            x       y       z     vdW  Elec       q    Type
REMARK                         _______ _______ _______ _____ _____    ______ ____
ROOT
ATOM      1  C8  UNL     1       8.937   9.845  27.099  0.00  0.00    +0.038 A 
ATOM      2  C9  UNL     1       8.756   9.228  28.367  0.00  0.00    +0.015 A 
ATOM      3  C10 UNL     1       9.264   9.816  29.539  0.00  0.00    +0.027 A 
ATOM      4  C11 UNL     1       9.960  11.015  29.421  0.00  0.00    +0.048 A 
ATOM      5  N5  UNL     1      10.518  11.736  30.419  0.00  0.00    -0.354 N 
ATOM      6  C12 UNL     1      11.079  12.806  29.805  0.00  0.00    +0.058 A 
ATOM      7  C13 UNL     1      11.764  13.879  30.393  0.00  0.00    +0.024 A 
ATOM      8  C20 UNL     1      12.200  14.906  29.525  0.00  0.00    +0.121 A 
ATOM      9  N6  UNL     1      11.968  14.830  28.177  0.00  0.00    -0.262 NA
ATOM     10  C21 UNL     1      11.310  13.779  27.610  0.00  0.00    +0.121 A 
ATOM     11  C22 UNL     1      10.863  12.763  28.444  0.00  0.00    +0.026 A 
ATOM     12  C23 UNL     1      10.150  11.613  28.196  0.00  0.00    +0.010 A 
ATOM     13  C24 UNL     1       9.657  11.061  27.016  0.00  0.00    +0.023 A 
ATOM     14  H8  UNL     1      10.493  11.516  31.439  0.00  0.00    +0.166 HD
ENDROOT
BRANCH   7  15
ATOM     15  C14 UNL     1      12.035  13.951  31.846  0.00  0.00    -0.012 A 
ATOM     16  C15 UNL     1      13.353  13.870  32.332  0.00  0.00    +0.009 A 
ATOM     17  C16 UNL     1      13.604  13.952  33.705  0.00  0.00    +0.003 A 
ATOM     18  C17 UNL     1      12.547  14.124  34.602  0.00  0.00    +0.038 A 
ATOM     19  C18 UNL     1      11.236  14.218  34.128  0.00  0.00    +0.124 A 
ATOM     20  F1  UNL     1      10.212  14.390  35.000  0.00  0.00    -0.205 F 
ATOM     21  C19 UNL     1      10.980  14.137  32.755  0.00  0.00    +0.047 A 
ENDBRANCH   7  15
BRANCH   1  23
ATOM     22  O1  UNL     1       7.157   9.303  25.640  0.00  0.00    -0.270 OA
ATOM     23  C1  UNL     1       8.389   9.192  25.885  0.00  0.00    +0.248 C 
ATOM     24  N1  UNL     1       9.234   8.435  24.998  0.00  0.00    -0.280 N 
ATOM     25  H1  UNL     1      10.217   8.230  25.278  0.00  0.00    +0.155 HD
BRANCH  24  26
ATOM     26  C2  UNL     1       8.785   7.870  23.755  0.00  0.00    +0.053 A 
ATOM     27  C3  UNL     1       8.556   8.682  22.606  0.00  0.00    +0.136 A 
ATOM     28  N2  UNL     1       8.157   8.122  21.423  0.00  0.00    -0.234 NA
ATOM     29  C4  UNL     1       7.990   6.779  21.361  0.00  0.00    +0.156 A 
ATOM     30  N3  UNL     1       7.612   6.058  20.298  0.00  0.00    -0.260 N 
ATOM     31  N4  UNL     1       7.591   4.779  20.660  0.00  0.00    -0.180 NA
ATOM     32  C5  UNL     1       7.958   4.692  21.964  0.00  0.00    +0.144 A 
ATOM     33  C6  UNL     1       8.216   5.965  22.423  0.00  0.00    +0.040 A 
ATOM     34  C7  UNL     1       8.628   6.471  23.649  0.00  0.00    +0.038 A 
ATOM     35  H3  UNL     1       7.376   6.414  19.345  0.00  0.00    +0.191 HD
ENDBRANCH  24  26
ENDBRANCH   1  23
TORSDOF 3
ENDMDL
MODEL 8
REMARK VINA RESULT:    -7.223     13.482     14.277
REMARK INTER + INTRA:          -9.151
REMARK INTER:                  -8.532
REMARK INTRA:                  -0.619
REMARK UNBOUND:                -0.662
REMARK  Name = /home/qwerty/github/datacon2025hack/step_04_hit_selection/docking/ligands/lig_315.pdb
REMARK  3 active torsions:
REMARK  status: ('A' for Active; 'I' for Inactive)
REMARK    1  A    between atoms: C1_2  and  C8_13
REMARK    2  A    between atoms: N1_3  and  C2_4
REMARK    3  A    between atoms: C13_19  and  C14_20
REMARK                            x       y       z     vdW  Elec       q    Type
REMARK                         _______ _______ _______ _____ _____    ______ ____
ROOT
ATOM      1  C8  UNL     1      11.420  12.750  29.948  0.00  0.00    +0.038 A 
ATOM      2  C9  UNL     1      12.060  13.155  28.746  0.00  0.00    +0.015 A 
ATOM      3  C10 UNL     1      11.648  12.652  27.498  0.00  0.00    +0.027 A 
ATOM      4  C11 UNL     1      10.602  11.736  27.476  0.00  0.00    +0.048 A 
ATOM      5  N5  UNL     1      10.058  11.144  26.390  0.00  0.00    -0.354 N 
ATOM      6  C12 UNL     1       9.084  10.340  26.881  0.00  0.00    +0.058 A 
ATOM      7  C13 UNL     1       8.197   9.521  26.166  0.00  0.00    +0.024 A 
ATOM      8  C20 UNL     1       7.226   8.825  26.922  0.00  0.00    +0.121 A 
ATOM      9  N6  UNL     1       7.180   8.947  28.287  0.00  0.00    -0.262 NA
ATOM     10  C21 UNL     1       8.051   9.737  28.976  0.00  0.00    +0.121 A 
ATOM     11  C22 UNL     1       9.008  10.439  28.254  0.00  0.00    +0.026 A 
ATOM     12  C23 UNL     1       9.983  11.329  28.637  0.00  0.00    +0.010 A 
ATOM     13  C24 UNL     1      10.363  11.810  29.889  0.00  0.00    +0.023 A 
ATOM     14  H8  UNL     1      10.326  11.299  25.393  0.00  0.00    +0.166 HD
ENDROOT
BRANCH   7  15
ATOM     15  C14 UNL     1       8.260   9.371  24.695  0.00  0.00    -0.012 A 
ATOM     16  C15 UNL     1       8.692   8.163  24.118  0.00  0.00    +0.009 A 
ATOM     17  C16 UNL     1       8.736   8.022  22.728  0.00  0.00    +0.003 A 
ATOM     18  C17 UNL     1       8.344   9.080  21.904  0.00  0.00    +0.038 A 
ATOM     19  C18 UNL     1       7.903  10.279  22.467  0.00  0.00    +0.124 A 
ATOM     20  F1  UNL     1       7.518  11.303  21.666  0.00  0.00    -0.205 F 
ATOM     21  C19 UNL     1       7.856  10.424  23.858  0.00  0.00    +0.047 A 
ENDBRANCH   7  15
BRANCH   1  23
ATOM     22  O1  UNL     1      11.666  14.516  31.501  0.00  0.00    -0.270 OA
ATOM     23  C1  UNL     1      11.886  13.301  31.244  0.00  0.00    +0.248 C 
ATOM     24  N1  UNL     1      12.586  12.479  32.197  0.00  0.00    -0.280 N 
ATOM     25  H1  UNL     1      12.887  11.519  31.921  0.00  0.00    +0.155 HD
BRANCH  24  26
ATOM     26  C2  UNL     1      12.968  12.925  33.510  0.00  0.00    +0.053 A 
ATOM     27  C3  UNL     1      12.070  12.850  34.614  0.00  0.00    +0.136 A 
ATOM     28  N2  UNL     1      12.462  13.252  35.861  0.00  0.00    -0.234 NA
ATOM     29  C4  UNL     1      13.723  13.717  36.030  0.00  0.00    +0.156 A 
ATOM     30  N3  UNL     1      14.282  14.146  37.168  0.00  0.00    -0.260 N 
ATOM     31  N4  UNL     1      15.536  14.496  36.900  0.00  0.00    -0.180 NA
ATOM     32  C5  UNL     1      15.771  14.284  35.580  0.00  0.00    +0.144 A 
ATOM     33  C6  UNL     1      14.618  13.786  35.013  0.00  0.00    +0.040 A 
ATOM     34  C7  UNL     1      14.284  13.388  33.725  0.00  0.00    +0.038 A 
ATOM     35  H3  UNL     1      13.834  14.202  38.110  0.00  0.00    +0.191 HD
ENDBRANCH  24  26
ENDBRANCH   1  23
TORSDOF 3
ENDMDL
MODEL 9
REMARK VINA RESULT:    -7.044      3.942     11.249
REMARK INTER + INTRA:          -8.941
REMARK INTER:                  -8.282
REMARK INTRA:                  -0.659
REMARK UNBOUND:                -0.662
REMARK  Name = /home/qwerty/github/datacon2025hack/step_04_hit_selection/docking/ligands/lig_315.pdb
REMARK  3 active torsions:
REMARK  status: ('A' for Active; 'I' for Inactive)
REMARK    1  A    between atoms: C1_2  and  C8_13
REMARK    2  A    between atoms: N1_3  and  C2_4
REMARK    3  A    between atoms: C13_19  and  C14_20
REMARK                            x       y       z     vdW  Elec       q    Type
REMARK                         _______ _______ _______ _____ _____    ______ ____
ROOT
ATOM      1  C8  UNL     1      20.967   4.585  24.988  0.00  0.00    +0.038 A 
ATOM      2  C9  UNL     1      19.715   4.936  25.562  0.00  0.00    +0.015 A 
ATOM      3  C10 UNL     1      19.338   4.458  26.830  0.00  0.00    +0.027 A 
ATOM      4  C11 UNL     1      20.222   3.621  27.503  0.00  0.00    +0.048 A 
ATOM      5  N5  UNL     1      20.051   3.064  28.722  0.00  0.00    -0.354 N 
ATOM      6  C12 UNL     1      21.174   2.336  28.935  0.00  0.00    +0.058 A 
ATOM      7  C13 UNL     1      21.513   1.581  30.067  0.00  0.00    +0.024 A 
ATOM      8  C20 UNL     1      22.784   0.961  30.059  0.00  0.00    +0.121 A 
ATOM      9  N6  UNL     1      23.622   1.092  28.982  0.00  0.00    -0.262 NA
ATOM     10  C21 UNL     1      23.282   1.820  27.881  0.00  0.00    +0.121 A 
ATOM     11  C22 UNL     1      22.042   2.447  27.870  0.00  0.00    +0.026 A 
ATOM     12  C23 UNL     1      21.432   3.266  26.949  0.00  0.00    +0.010 A 
ATOM     13  C24 UNL     1      21.839   3.724  25.698  0.00  0.00    +0.023 A 
ATOM     14  H8  UNL     1      19.236   3.195  29.361  0.00  0.00    +0.166 HD
ENDROOT
BRANCH   7  15
ATOM     15  C14 UNL     1      20.600   1.419  31.220  0.00  0.00    -0.012 A 
ATOM     16  C15 UNL     1      20.645   2.319  32.299  0.00  0.00    +0.009 A 
ATOM     17  C16 UNL     1      19.771   2.169  33.379  0.00  0.00    +0.003 A 
ATOM     18  C17 UNL     1      18.841   1.126  33.389  0.00  0.00    +0.038 A 
ATOM     19  C18 UNL     1      18.780   0.234  32.316  0.00  0.00    +0.124 A 
ATOM     20  F1  UNL     1      17.874  -0.776  32.324  0.00  0.00    -0.205 F 
ATOM     21  C19 UNL     1      19.653   0.380  31.232  0.00  0.00    +0.047 A 
ENDBRANCH   7  15
BRANCH   1  23
ATOM     22  O1  UNL     1      20.964   4.460  22.627  0.00  0.00    -0.270 OA
ATOM     23  C1  UNL     1      21.326   5.107  23.647  0.00  0.00    +0.248 C 
ATOM     24  N1  UNL     1      22.083   6.324  23.497  0.00  0.00    -0.280 N 
ATOM     25  H1  UNL     1      22.497   6.776  24.340  0.00  0.00    +0.155 HD
BRANCH  24  26
ATOM     26  C2  UNL     1      22.369   6.935  22.227  0.00  0.00    +0.053 A 
ATOM     27  C3  UNL     1      21.380   7.672  21.513  0.00  0.00    +0.136 A 
ATOM     28  N2  UNL     1      21.681   8.271  20.321  0.00  0.00    -0.234 NA
ATOM     29  C4  UNL     1      22.939   8.158  19.834  0.00  0.00    +0.156 A 
ATOM     30  N3  UNL     1      23.417   8.676  18.695  0.00  0.00    -0.260 N 
ATOM     31  N4  UNL     1      24.701   8.345  18.604  0.00  0.00    -0.180 NA
ATOM     32  C5  UNL     1      25.037   7.610  19.695  0.00  0.00    +0.144 A 
ATOM     33  C6  UNL     1      23.919   7.484  20.489  0.00  0.00    +0.040 A 
ATOM     34  C7  UNL     1      23.679   6.859  21.705  0.00  0.00    +0.038 A 
ATOM     35  H3  UNL     1      22.894   9.245  17.993  0.00  0.00    +0.191 HD
ENDBRANCH  24  26
ENDBRANCH   1  23
TORSDOF 3
ENDMDL
