REMARK  Name = /home/qwerty/github/datacon2025hack/step_04_hit_selection/docking/ligands/lig_51.pdb
REMARK  4 active torsions:
REMARK  status: ('A' for Active; 'I' for Inactive)
REMARK    1  A    between atoms: C1_2  and  C11_20
REMARK    2  A    between atoms: N1_3  and  C2_4
REMARK    3  A    between atoms: N2_7  and  C5_8
REMARK    4  A    between atoms: C8_12  and  C9_13
REMARK                            x       y       z     vdW  Elec       q    Type
REMARK                         _______ _______ _______ _____ _____    ______ ____
ROOT
ATOM      1  C2  UNL     1      -0.292  -2.430   0.437  0.00  0.00    +0.092 C 
ATOM      2  C3  UNL     1       0.361  -3.421  -0.535  0.00  0.00    +0.043 C 
ATOM      3  C4  UNL     1       1.651  -2.758  -0.995  0.00  0.00    +0.108 C 
ATOM      4  N2  UNL     1       1.939  -1.735  -0.002  0.00  0.00    -0.312 N 
ATOM      5  C10 UNL     1       0.863  -1.576   0.962  0.00  0.00    +0.128 C 
ENDROOT
BRANCH   4   6
ATOM      6  C5  UNL     1       3.148  -0.955   0.043  0.00  0.00    +0.140 A 
ATOM      7  C6  UNL     1       4.135  -1.066  -0.951  0.00  0.00    +0.154 A 
ATOM      8  N3  UNL     1       5.258  -0.307  -0.867  0.00  0.00    -0.258 NA
ATOM      9  C7  UNL     1       5.452   0.562   0.158  0.00  0.00    +0.142 A 
ATOM     10  C8  UNL     1       4.473   0.682   1.153  0.00  0.00    +0.131 A 
ATOM     11  N8  UNL     1       3.350  -0.080   1.066  0.00  0.00    -0.226 NA
BRANCH  10  12
ATOM     12  C9  UNL     1       4.637   1.611   2.282  0.00  0.00    +0.224 A 
ATOM     13  N4  UNL     1       5.706   2.411   2.469  0.00  0.00    -0.106 NA
ATOM     14  N5  UNL     1       5.445   3.069   3.587  0.00  0.00    -0.048 NA
ATOM     15  N6  UNL     1       4.270   2.682   4.053  0.00  0.00    -0.176 N 
ATOM     16  N7  UNL     1       3.730   1.769   3.265  0.00  0.00    -0.131 NA
ATOM     17  H9  UNL     1       3.829   3.048   4.925  0.00  0.00    +0.214 HD
ENDBRANCH  10  12
ENDBRANCH   4   6
BRANCH   1  20
ATOM     18  O1  UNL     1      -2.229  -0.806   1.731  0.00  0.00    -0.269 OA
ATOM     19  C1  UNL     1      -2.209  -0.767   0.471  0.00  0.00    +0.261 C 
ATOM     20  N1  UNL     1      -1.277  -1.587  -0.254  0.00  0.00    -0.306 N 
ATOM     21  H1  UNL     1      -1.308  -1.593  -1.297  0.00  0.00    +0.149 HD
BRANCH  19  22
ATOM     22  C11 UNL     1      -3.152   0.128  -0.230  0.00  0.00    +0.103 A 
ATOM     23  C12 UNL     1      -3.225   0.333  -1.611  0.00  0.00    +0.042 A 
ATOM     24  C13 UNL     1      -4.240   1.247  -1.778  0.00  0.00    +0.018 A 
ATOM     25  C14 UNL     1      -4.768   1.833  -2.924  0.00  0.00    +0.120 A 
ATOM     26  N9  UNL     1      -5.792   2.726  -2.777  0.00  0.00    -0.263 NA
ATOM     27  C15 UNL     1      -6.301   3.051  -1.547  0.00  0.00    +0.113 A 
ATOM     28  C16 UNL     1      -5.775   2.465  -0.381  0.00  0.00    +0.046 A 
ATOM     29  C17 UNL     1      -4.732   1.557  -0.542  0.00  0.00    +0.050 A 
ATOM     30  N10 UNL     1      -4.077   0.881   0.415  0.00  0.00    -0.350 N 
ATOM     31  H16 UNL     1      -4.248   0.931   1.445  0.00  0.00    +0.166 HD
ENDBRANCH  19  22
ENDBRANCH   1  20
TORSDOF 4
