MODEL 1
REMARK VINA RESULT:    -7.729      0.000      0.000
REMARK INTER + INTRA:          -9.031
REMARK INTER:                  -8.633
REMARK INTRA:                  -0.399
REMARK UNBOUND:                -0.399
REMARK  Name = /home/qwerty/github/datacon2025hack/step_04_hit_selection/docking/ligands/lig_415.pdb
REMARK  2 active torsions:
REMARK  status: ('A' for Active; 'I' for Inactive)
REMARK    1  A    between atoms: N1_3  and  C2_4
REMARK    2  A    between atoms: N4_23  and  C16_24
REMARK                            x       y       z     vdW  Elec       q    Type
REMARK                         _______ _______ _______ _____ _____    ______ ____
ROOT
ATOM      1  O1  UNL     1      12.890   3.204  23.415  0.00  0.00    -0.252 OA
ATOM      2  C1  UNL     1      12.150   3.034  22.407  0.00  0.00    +0.306 C 
ATOM      3  N1  UNL     1      12.385   1.918  21.532  0.00  0.00    -0.269 N 
ATOM      4  N2  UNL     1      11.050   3.933  22.168  0.00  0.00    -0.285 N 
ATOM      5  C9  UNL     1      10.441   4.028  20.834  0.00  0.00    +0.112 C 
ATOM      6  C10 UNL     1      10.064   5.479  20.512  0.00  0.00    +0.054 C 
ATOM      7  C11 UNL     1       9.251   6.146  21.643  0.00  0.00    +0.115 C 
ATOM      8  C12 UNL     1       9.967   5.991  23.005  0.00  0.00    +0.054 C 
ATOM      9  C13 UNL     1      10.338   4.534  23.305  0.00  0.00    +0.112 C 
ATOM     10  C14 UNL     1       7.843   5.638  21.692  0.00  0.00    +0.238 C 
ATOM     11  O4  UNL     1       7.504   4.445  21.917  0.00  0.00    -0.273 OA
ATOM     12  N3  UNL     1       6.898   6.663  21.451  0.00  0.00    -0.298 N 
ATOM     13  C15 UNL     1       7.607   7.906  21.226  0.00  0.00    +0.214 C 
ATOM     14  N4  UNL     1       9.025   7.569  21.342  0.00  0.00    -0.300 N 
ATOM     15  H1  UNL     1      11.570   1.530  21.005  0.00  0.00    +0.156 HD
ATOM     16  H15 UNL     1       5.861   6.543  21.437  0.00  0.00    +0.150 HD
ENDROOT
BRANCH   3  17
ATOM     17  C2  UNL     1      13.637   1.215  21.447  0.00  0.00    +0.038 A 
ATOM     18  C3  UNL     1      14.515   1.402  20.344  0.00  0.00    +0.027 A 
ATOM     19  C4  UNL     1      15.725   0.687  20.265  0.00  0.00    +0.051 A 
ATOM     20  C5  UNL     1      16.019  -0.207  21.288  0.00  0.00    +0.166 A 
ATOM     21  C6  UNL     1      15.179  -0.404  22.334  0.00  0.00    +0.168 A 
ATOM     22  C7  UNL     1      13.974   0.281  22.451  0.00  0.00    +0.073 A 
ATOM     23  O2  UNL     1      15.719  -1.347  23.188  0.00  0.00    -0.453 OA
ATOM     24  C8  UNL     1      16.978  -1.768  22.643  0.00  0.00    +0.466 C 
ATOM     25  O3  UNL     1      17.130  -1.018  21.430  0.00  0.00    -0.453 OA
ENDBRANCH   3  17
BRANCH  14  26
ATOM     26  C16 UNL     1      10.053   8.557  21.203  0.00  0.00    +0.032 A 
ATOM     27  C17 UNL     1      10.534   8.900  19.932  0.00  0.00    +0.026 A 
ATOM     28  C18 UNL     1      11.524   9.878  19.796  0.00  0.00    +0.040 A 
ATOM     29  C19 UNL     1      12.030  10.525  20.928  0.00  0.00    +0.124 A 
ATOM     30  F1  UNL     1      12.988  11.473  20.795  0.00  0.00    -0.205 F 
ATOM     31  C20 UNL     1      11.540  10.198  22.197  0.00  0.00    +0.040 A 
ATOM     32  C21 UNL     1      10.550   9.220  22.335  0.00  0.00    +0.026 A 
ENDBRANCH  14  26
TORSDOF 2
ENDMDL
MODEL 2
REMARK VINA RESULT:    -7.499     10.048     13.099
REMARK INTER + INTRA:          -8.774
REMARK INTER:                  -8.395
REMARK INTRA:                  -0.379
REMARK UNBOUND:                -0.399
REMARK  Name = /home/qwerty/github/datacon2025hack/step_04_hit_selection/docking/ligands/lig_415.pdb
REMARK  2 active torsions:
REMARK  status: ('A' for Active; 'I' for Inactive)
REMARK    1  A    between atoms: N1_3  and  C2_4
REMARK    2  A    between atoms: N4_23  and  C16_24
REMARK                            x       y       z     vdW  Elec       q    Type
REMARK                         _______ _______ _______ _____ _____    ______ ____
ROOT
ATOM      1  O1  UNL     1      20.632   2.778  23.250  0.00  0.00    -0.252 OA
ATOM      2  C1  UNL     1      20.382   3.612  24.163  0.00  0.00    +0.306 C 
ATOM      3  N1  UNL     1      20.424   5.020  23.873  0.00  0.00    -0.269 N 
ATOM      4  N2  UNL     1      20.014   3.145  25.476  0.00  0.00    -0.285 N 
ATOM      5  C9  UNL     1      20.122   4.035  26.640  0.00  0.00    +0.112 C 
ATOM      6  C10 UNL     1      20.611   3.261  27.870  0.00  0.00    +0.054 C 
ATOM      7  C11 UNL     1      19.804   1.967  28.116  0.00  0.00    +0.115 C 
ATOM      8  C12 UNL     1      19.742   1.101  26.837  0.00  0.00    +0.054 C 
ATOM      9  C13 UNL     1      19.255   1.895  25.619  0.00  0.00    +0.112 C 
ATOM     10  C14 UNL     1      18.439   2.256  28.661  0.00  0.00    +0.238 C 
ATOM     11  O4  UNL     1      17.540   2.911  28.067  0.00  0.00    -0.273 OA
ATOM     12  N3  UNL     1      18.252   1.707  29.951  0.00  0.00    -0.298 N 
ATOM     13  C15 UNL     1      19.467   1.025  30.347  0.00  0.00    +0.214 C 
ATOM     14  N4  UNL     1      20.390   1.200  29.227  0.00  0.00    -0.300 N 
ATOM     15  H1  UNL     1      19.820   5.654  24.443  0.00  0.00    +0.156 HD
ATOM     16  H15 UNL     1      17.382   1.782  30.524  0.00  0.00    +0.150 HD
ENDROOT
BRANCH   3  17
ATOM     17  C2  UNL     1      21.134   5.588  22.759  0.00  0.00    +0.038 A 
ATOM     18  C3  UNL     1      20.635   5.478  21.432  0.00  0.00    +0.027 A 
ATOM     19  C4  UNL     1      21.354   6.019  20.351  0.00  0.00    +0.051 A 
ATOM     20  C5  UNL     1      22.564   6.646  20.624  0.00  0.00    +0.166 A 
ATOM     21  C6  UNL     1      23.056   6.741  21.885  0.00  0.00    +0.168 A 
ATOM     22  C7  UNL     1      22.377   6.220  22.982  0.00  0.00    +0.073 A 
ATOM     23  O2  UNL     1      24.268   7.403  21.858  0.00  0.00    -0.453 OA
ATOM     24  C8  UNL     1      24.556   7.746  20.494  0.00  0.00    +0.466 C 
ATOM     25  O3  UNL     1      23.444   7.244  19.741  0.00  0.00    -0.453 OA
ENDBRANCH   3  17
BRANCH  14  26
ATOM     26  C16 UNL     1      21.708   0.636  29.237  0.00  0.00    +0.032 A 
ATOM     27  C17 UNL     1      21.903  -0.705  28.879  0.00  0.00    +0.026 A 
ATOM     28  C18 UNL     1      23.191  -1.249  28.871  0.00  0.00    +0.040 A 
ATOM     29  C19 UNL     1      24.290  -0.453  29.210  0.00  0.00    +0.124 A 
ATOM     30  F1  UNL     1      25.538  -0.981  29.201  0.00  0.00    -0.205 F 
ATOM     31  C20 UNL     1      24.101   0.891  29.552  0.00  0.00    +0.040 A 
ATOM     32  C21 UNL     1      22.813   1.436  29.560  0.00  0.00    +0.026 A 
ENDBRANCH  14  26
TORSDOF 2
ENDMDL
MODEL 3
REMARK VINA RESULT:    -7.207     13.342     16.745
REMARK INTER + INTRA:          -8.449
REMARK INTER:                  -7.956
REMARK INTRA:                  -0.493
REMARK UNBOUND:                -0.399
REMARK  Name = /home/qwerty/github/datacon2025hack/step_04_hit_selection/docking/ligands/lig_415.pdb
REMARK  2 active torsions:
REMARK  status: ('A' for Active; 'I' for Inactive)
REMARK    1  A    between atoms: N1_3  and  C2_4
REMARK    2  A    between atoms: N4_23  and  C16_24
REMARK                            x       y       z     vdW  Elec       q    Type
REMARK                         _______ _______ _______ _____ _____    ______ ____
ROOT
ATOM      1  O1  UNL     1      22.400  14.182  25.971  0.00  0.00    -0.252 OA
ATOM      2  C1  UNL     1      22.428  15.270  25.333  0.00  0.00    +0.306 C 
ATOM      3  N1  UNL     1      21.964  16.476  25.962  0.00  0.00    -0.269 N 
ATOM      4  N2  UNL     1      22.966  15.301  23.997  0.00  0.00    -0.285 N 
ATOM      5  C9  UNL     1      22.647  16.412  23.090  0.00  0.00    +0.112 C 
ATOM      6  C10 UNL     1      22.454  15.904  21.656  0.00  0.00    +0.054 C 
ATOM      7  C11 UNL     1      23.614  14.998  21.187  0.00  0.00    +0.115 C 
ATOM      8  C12 UNL     1      23.878  13.865  22.204  0.00  0.00    +0.054 C 
ATOM      9  C13 UNL     1      24.064  14.394  23.631  0.00  0.00    +0.112 C 
ATOM     10  C14 UNL     1      24.854  15.787  20.895  0.00  0.00    +0.238 C 
ATOM     11  O4  UNL     1      25.498  16.471  21.735  0.00  0.00    -0.273 OA
ATOM     12  N3  UNL     1      25.242  15.687  19.539  0.00  0.00    -0.298 N 
ATOM     13  C15 UNL     1      24.296  14.836  18.845  0.00  0.00    +0.214 C 
ATOM     14  N4  UNL     1      23.321  14.437  19.858  0.00  0.00    -0.300 N 
ATOM     15  H1  UNL     1      22.377  17.382  25.645  0.00  0.00    +0.156 HD
ATOM     16  H15 UNL     1      26.073  16.150  19.108  0.00  0.00    +0.150 HD
ENDROOT
BRANCH   3  17
ATOM     17  C2  UNL     1      21.077  16.501  27.094  0.00  0.00    +0.038 A 
ATOM     18  C3  UNL     1      19.682  16.271  26.944  0.00  0.00    +0.027 A 
ATOM     19  C4  UNL     1      18.825  16.323  28.059  0.00  0.00    +0.051 A 
ATOM     20  C5  UNL     1      19.386  16.617  29.296  0.00  0.00    +0.166 A 
ATOM     21  C6  UNL     1      20.713  16.854  29.446  0.00  0.00    +0.168 A 
ATOM     22  C7  UNL     1      21.595  16.813  28.370  0.00  0.00    +0.073 A 
ATOM     23  O2  UNL     1      20.986  17.124  30.773  0.00  0.00    -0.453 OA
ATOM     24  C8  UNL     1      19.753  17.052  31.503  0.00  0.00    +0.466 C 
ATOM     25  O3  UNL     1      18.758  16.727  30.523  0.00  0.00    -0.453 OA
ENDBRANCH   3  17
BRANCH  14  26
ATOM     26  C16 UNL     1      22.227  13.562  19.554  0.00  0.00    +0.032 A 
ATOM     27  C17 UNL     1      22.438  12.179  19.459  0.00  0.00    +0.026 A 
ATOM     28  C18 UNL     1      21.367  11.325  19.180  0.00  0.00    +0.040 A 
ATOM     29  C19 UNL     1      20.081  11.845  19.005  0.00  0.00    +0.124 A 
ATOM     30  F1  UNL     1      19.044  11.016  18.735  0.00  0.00    -0.205 F 
ATOM     31  C20 UNL     1      19.865  13.224  19.115  0.00  0.00    +0.040 A 
ATOM     32  C21 UNL     1      20.934  14.080  19.394  0.00  0.00    +0.026 A 
ENDBRANCH  14  26
TORSDOF 2
ENDMDL
MODEL 4
REMARK VINA RESULT:    -7.191     15.983     18.516
REMARK INTER + INTRA:          -8.431
REMARK INTER:                  -8.293
REMARK INTRA:                  -0.138
REMARK UNBOUND:                -0.399
REMARK  Name = /home/qwerty/github/datacon2025hack/step_04_hit_selection/docking/ligands/lig_415.pdb
REMARK  2 active torsions:
REMARK  status: ('A' for Active; 'I' for Inactive)
REMARK    1  A    between atoms: N1_3  and  C2_4
REMARK    2  A    between atoms: N4_23  and  C16_24
REMARK                            x       y       z     vdW  Elec       q    Type
REMARK                         _______ _______ _______ _____ _____    ______ ____
ROOT
ATOM      1  O1  UNL     1      17.135   9.510  34.625  0.00  0.00    -0.252 OA
ATOM      2  C1  UNL     1      17.945   9.616  35.586  0.00  0.00    +0.306 C 
ATOM      3  N1  UNL     1      17.588  10.402  36.736  0.00  0.00    -0.269 N 
ATOM      4  N2  UNL     1      19.202   8.911  35.543  0.00  0.00    -0.285 N 
ATOM      5  C9  UNL     1      20.316   9.321  36.409  0.00  0.00    +0.112 C 
ATOM      6  C10 UNL     1      21.652   9.200  35.667  0.00  0.00    +0.054 C 
ATOM      7  C11 UNL     1      21.831   7.824  34.987  0.00  0.00    +0.115 C 
ATOM      8  C12 UNL     1      20.611   7.480  34.104  0.00  0.00    +0.054 C 
ATOM      9  C13 UNL     1      19.286   7.611  34.863  0.00  0.00    +0.112 C 
ATOM     10  C14 UNL     1      22.122   6.744  35.984  0.00  0.00    +0.238 C 
ATOM     11  O4  UNL     1      21.350   6.380  36.911  0.00  0.00    -0.273 OA
ATOM     12  N3  UNL     1      23.391   6.155  35.778  0.00  0.00    -0.298 N 
ATOM     13  C15 UNL     1      24.023   6.798  34.644  0.00  0.00    +0.214 C 
ATOM     14  N4  UNL     1      23.066   7.805  34.187  0.00  0.00    -0.300 N 
ATOM     15  H1  UNL     1      18.011  10.143  37.655  0.00  0.00    +0.156 HD
ATOM     16  H15 UNL     1      23.804   5.385  36.348  0.00  0.00    +0.150 HD
ENDROOT
BRANCH   3  17
ATOM     17  C2  UNL     1      16.578  11.426  36.724  0.00  0.00    +0.038 A 
ATOM     18  C3  UNL     1      15.224  11.132  37.043  0.00  0.00    +0.027 A 
ATOM     19  C4  UNL     1      14.245  12.141  37.004  0.00  0.00    +0.051 A 
ATOM     20  C5  UNL     1      14.644  13.420  36.630  0.00  0.00    +0.166 A 
ATOM     21  C6  UNL     1      15.930  13.705  36.308  0.00  0.00    +0.168 A 
ATOM     22  C7  UNL     1      16.929  12.737  36.334  0.00  0.00    +0.073 A 
ATOM     23  O2  UNL     1      16.035  15.041  35.972  0.00  0.00    -0.453 OA
ATOM     24  C8  UNL     1      14.733  15.632  36.093  0.00  0.00    +0.466 C 
ATOM     25  O3  UNL     1      13.875  14.563  36.514  0.00  0.00    -0.453 OA
ENDBRANCH   3  17
BRANCH  14  26
ATOM     26  C16 UNL     1      23.329   8.640  33.053  0.00  0.00    +0.032 A 
ATOM     27  C17 UNL     1      22.285   9.013  32.196  0.00  0.00    +0.026 A 
ATOM     28  C18 UNL     1      22.539   9.843  31.100  0.00  0.00    +0.040 A 
ATOM     29  C19 UNL     1      23.834  10.313  30.862  0.00  0.00    +0.124 A 
ATOM     30  F1  UNL     1      24.079  11.119  29.800  0.00  0.00    -0.205 F 
ATOM     31  C20 UNL     1      24.876   9.957  31.725  0.00  0.00    +0.040 A 
ATOM     32  C21 UNL     1      24.624   9.126  32.821  0.00  0.00    +0.026 A 
ENDBRANCH  14  26
TORSDOF 2
ENDMDL
MODEL 5
REMARK VINA RESULT:    -7.055      8.410     11.691
REMARK INTER + INTRA:          -8.278
REMARK INTER:                  -8.158
REMARK INTRA:                  -0.120
REMARK UNBOUND:                -0.399
REMARK  Name = /home/qwerty/github/datacon2025hack/step_04_hit_selection/docking/ligands/lig_415.pdb
REMARK  2 active torsions:
REMARK  status: ('A' for Active; 'I' for Inactive)
REMARK    1  A    between atoms: N1_3  and  C2_4
REMARK    2  A    between atoms: N4_23  and  C16_24
REMARK                            x       y       z     vdW  Elec       q    Type
REMARK                         _______ _______ _______ _____ _____    ______ ____
ROOT
ATOM      1  O1  UNL     1      11.307  14.920  27.776  0.00  0.00    -0.252 OA
ATOM      2  C1  UNL     1      11.603  13.779  28.224  0.00  0.00    +0.306 C 
ATOM      3  N1  UNL     1      12.860  13.580  28.893  0.00  0.00    -0.269 N 
ATOM      4  N2  UNL     1      10.659  12.696  28.101  0.00  0.00    -0.285 N 
ATOM      5  C9  UNL     1      11.105  11.302  28.221  0.00  0.00    +0.112 C 
ATOM      6  C10 UNL     1      10.360  10.406  27.225  0.00  0.00    +0.054 C 
ATOM      7  C11 UNL     1       8.828  10.603  27.281  0.00  0.00    +0.115 C 
ATOM      8  C12 UNL     1       8.458  12.098  27.152  0.00  0.00    +0.054 C 
ATOM      9  C13 UNL     1       9.217  12.976  28.153  0.00  0.00    +0.112 C 
ATOM     10  C14 UNL     1       8.231   9.984  28.508  0.00  0.00    +0.238 C 
ATOM     11  O4  UNL     1       8.492  10.318  29.695  0.00  0.00    -0.273 OA
ATOM     12  N3  UNL     1       7.317   8.952  28.193  0.00  0.00    -0.298 N 
ATOM     13  C15 UNL     1       7.247   8.815  26.752  0.00  0.00    +0.214 C 
ATOM     14  N4  UNL     1       8.171   9.818  26.224  0.00  0.00    -0.300 N 
ATOM     15  H1  UNL     1      12.915  12.826  29.615  0.00  0.00    +0.156 HD
ATOM     16  H15 UNL     1       6.781   8.382  28.885  0.00  0.00    +0.150 HD
ENDROOT
BRANCH   3  17
ATOM     17  C2  UNL     1      13.999  14.443  28.733  0.00  0.00    +0.038 A 
ATOM     18  C3  UNL     1      14.769  14.863  29.851  0.00  0.00    +0.027 A 
ATOM     19  C4  UNL     1      15.866  15.728  29.679  0.00  0.00    +0.051 A 
ATOM     20  C5  UNL     1      16.155  16.162  28.391  0.00  0.00    +0.166 A 
ATOM     21  C6  UNL     1      15.415  15.780  27.321  0.00  0.00    +0.168 A 
ATOM     22  C7  UNL     1      14.323  14.926  27.446  0.00  0.00    +0.073 A 
ATOM     23  O2  UNL     1      15.923  16.365  26.177  0.00  0.00    -0.453 OA
ATOM     24  C8  UNL     1      17.054  17.164  26.552  0.00  0.00    +0.466 C 
ATOM     25  O3  UNL     1      17.166  17.007  27.973  0.00  0.00    -0.453 OA
ENDBRANCH   3  17
BRANCH  14  26
ATOM     26  C16 UNL     1       8.361  10.006  24.816  0.00  0.00    +0.032 A 
ATOM     27  C17 UNL     1       7.288  10.408  24.009  0.00  0.00    +0.026 A 
ATOM     28  C18 UNL     1       7.478  10.609  22.638  0.00  0.00    +0.040 A 
ATOM     29  C19 UNL     1       8.741  10.420  22.071  0.00  0.00    +0.124 A 
ATOM     30  F1  UNL     1       8.925  10.616  20.742  0.00  0.00    -0.205 F 
ATOM     31  C20 UNL     1       9.819  10.035  22.877  0.00  0.00    +0.040 A 
ATOM     32  C21 UNL     1       9.630   9.833  24.248  0.00  0.00    +0.026 A 
ENDBRANCH  14  26
TORSDOF 2
ENDMDL
MODEL 6
REMARK VINA RESULT:    -7.052      5.325      9.212
REMARK INTER + INTRA:          -8.275
REMARK INTER:                  -7.796
REMARK INTRA:                  -0.480
REMARK UNBOUND:                -0.399
REMARK  Name = /home/qwerty/github/datacon2025hack/step_04_hit_selection/docking/ligands/lig_415.pdb
REMARK  2 active torsions:
REMARK  status: ('A' for Active; 'I' for Inactive)
REMARK    1  A    between atoms: N1_3  and  C2_4
REMARK    2  A    between atoms: N4_23  and  C16_24
REMARK                            x       y       z     vdW  Elec       q    Type
REMARK                         _______ _______ _______ _____ _____    ______ ____
ROOT
ATOM      1  O1  UNL     1      11.518   3.284  25.360  0.00  0.00    -0.252 OA
ATOM      2  C1  UNL     1      11.194   2.734  24.271  0.00  0.00    +0.306 C 
ATOM      3  N1  UNL     1       9.826   2.360  24.041  0.00  0.00    -0.269 N 
ATOM      4  N2  UNL     1      12.192   2.527  23.252  0.00  0.00    -0.285 N 
ATOM      5  C9  UNL     1      11.968   1.549  22.178  0.00  0.00    +0.112 C 
ATOM      6  C10 UNL     1      13.268   0.810  21.838  0.00  0.00    +0.054 C 
ATOM      7  C11 UNL     1      14.452   1.773  21.600  0.00  0.00    +0.115 C 
ATOM      8  C12 UNL     1      14.605   2.764  22.776  0.00  0.00    +0.054 C 
ATOM      9  C13 UNL     1      13.294   3.488  23.103  0.00  0.00    +0.112 C 
ATOM     10  C14 UNL     1      14.340   2.481  20.285  0.00  0.00    +0.238 C 
ATOM     11  O4  UNL     1      13.410   3.266  19.955  0.00  0.00    -0.273 OA
ATOM     12  N3  UNL     1      15.414   2.171  19.418  0.00  0.00    -0.298 N 
ATOM     13  C15 UNL     1      16.301   1.244  20.091  0.00  0.00    +0.214 C 
ATOM     14  N4  UNL     1      15.698   1.015  21.403  0.00  0.00    -0.300 N 
ATOM     15  H1  UNL     1       9.486   2.334  23.053  0.00  0.00    +0.156 HD
ATOM     16  H15 UNL     1      15.545   2.546  18.453  0.00  0.00    +0.150 HD
ENDROOT
BRANCH   3  17
ATOM     17  C2  UNL     1       8.861   2.162  25.089  0.00  0.00    +0.038 A 
ATOM     18  C3  UNL     1       8.145   3.255  25.649  0.00  0.00    +0.027 A 
ATOM     19  C4  UNL     1       7.222   3.046  26.691  0.00  0.00    +0.051 A 
ATOM     20  C5  UNL     1       7.051   1.747  27.156  0.00  0.00    +0.166 A 
ATOM     21  C6  UNL     1       7.743   0.701  26.639  0.00  0.00    +0.168 A 
ATOM     22  C7  UNL     1       8.664   0.864  25.609  0.00  0.00    +0.073 A 
ATOM     23  O2  UNL     1       7.379  -0.460  27.293  0.00  0.00    -0.453 OA
ATOM     24  C8  UNL     1       6.396  -0.123  28.282  0.00  0.00    +0.466 C 
ATOM     25  O3  UNL     1       6.216   1.295  28.161  0.00  0.00    -0.453 OA
ENDBRANCH   3  17
BRANCH  14  26
ATOM     26  C16 UNL     1      16.308   0.160  22.378  0.00  0.00    +0.032 A 
ATOM     27  C17 UNL     1      16.008  -1.209  22.401  0.00  0.00    +0.026 A 
ATOM     28  C18 UNL     1      16.617  -2.045  23.341  0.00  0.00    +0.040 A 
ATOM     29  C19 UNL     1      17.536  -1.520  24.255  0.00  0.00    +0.124 A 
ATOM     30  F1  UNL     1      18.128  -2.332  25.165  0.00  0.00    -0.205 F 
ATOM     31  C20 UNL     1      17.851  -0.157  24.224  0.00  0.00    +0.040 A 
ATOM     32  C21 UNL     1      17.242   0.681  23.285  0.00  0.00    +0.026 A 
ENDBRANCH  14  26
TORSDOF 2
ENDMDL
MODEL 7
REMARK VINA RESULT:    -6.990      9.825     11.440
REMARK INTER + INTRA:          -8.206
REMARK INTER:                  -7.750
REMARK INTRA:                  -0.455
REMARK UNBOUND:                -0.399
REMARK  Name = /home/qwerty/github/datacon2025hack/step_04_hit_selection/docking/ligands/lig_415.pdb
REMARK  2 active torsions:
REMARK  status: ('A' for Active; 'I' for Inactive)
REMARK    1  A    between atoms: N1_3  and  C2_4
REMARK    2  A    between atoms: N4_23  and  C16_24
REMARK                            x       y       z     vdW  Elec       q    Type
REMARK                         _______ _______ _______ _____ _____    ______ ____
ROOT
ATOM      1  O1  UNL     1      19.315   8.748  23.548  0.00  0.00    -0.252 OA
ATOM      2  C1  UNL     1      19.756   8.722  22.367  0.00  0.00    +0.306 C 
ATOM      3  N1  UNL     1      20.099   7.464  21.762  0.00  0.00    -0.269 N 
ATOM      4  N2  UNL     1      19.871   9.949  21.620  0.00  0.00    -0.285 N 
ATOM      5  C9  UNL     1      20.741  10.024  20.438  0.00  0.00    +0.112 C 
ATOM      6  C10 UNL     1      21.450  11.381  20.372  0.00  0.00    +0.054 C 
ATOM      7  C11 UNL     1      20.476  12.569  20.534  0.00  0.00    +0.115 C 
ATOM      8  C12 UNL     1      19.602  12.399  21.798  0.00  0.00    +0.054 C 
ATOM      9  C13 UNL     1      18.906  11.034  21.847  0.00  0.00    +0.112 C 
ATOM     10  C14 UNL     1      19.645  12.780  19.306  0.00  0.00    +0.238 C 
ATOM     11  O4  UNL     1      18.827  11.950  18.826  0.00  0.00    -0.273 OA
ATOM     12  N3  UNL     1      19.877  14.044  18.716  0.00  0.00    -0.298 N 
ATOM     13  C15 UNL     1      20.869  14.749  19.502  0.00  0.00    +0.214 C 
ATOM     14  N4  UNL     1      21.218  13.838  20.591  0.00  0.00    -0.300 N 
ATOM     15  H1  UNL     1      20.029   7.387  20.722  0.00  0.00    +0.156 HD
ATOM     16  H15 UNL     1      19.412  14.409  17.855  0.00  0.00    +0.150 HD
ENDROOT
BRANCH   3  17
ATOM     17  C2  UNL     1      20.391   6.269  22.507  0.00  0.00    +0.038 A 
ATOM     18  C3  UNL     1      19.549   5.126  22.428  0.00  0.00    +0.027 A 
ATOM     19  C4  UNL     1      19.837   3.973  23.183  0.00  0.00    +0.051 A 
ATOM     20  C5  UNL     1      20.954   4.000  24.010  0.00  0.00    +0.166 A 
ATOM     21  C6  UNL     1      21.752   5.093  24.104  0.00  0.00    +0.168 A 
ATOM     22  C7  UNL     1      21.504   6.252  23.375  0.00  0.00    +0.073 A 
ATOM     23  O2  UNL     1      22.775   4.841  24.998  0.00  0.00    -0.453 OA
ATOM     24  C8  UNL     1      22.609   3.505  25.497  0.00  0.00    +0.466 C 
ATOM     25  O3  UNL     1      21.435   3.006  24.842  0.00  0.00    -0.453 OA
ENDBRANCH   3  17
BRANCH  14  26
ATOM     26  C16 UNL     1      22.165  14.197  21.605  0.00  0.00    +0.032 A 
ATOM     27  C17 UNL     1      23.477  13.704  21.550  0.00  0.00    +0.026 A 
ATOM     28  C18 UNL     1      24.405  14.069  22.529  0.00  0.00    +0.040 A 
ATOM     29  C19 UNL     1      24.031  14.936  23.561  0.00  0.00    +0.124 A 
ATOM     30  F1  UNL     1      24.932  15.290  24.510  0.00  0.00    -0.205 F 
ATOM     31  C20 UNL     1      22.728  15.443  23.609  0.00  0.00    +0.040 A 
ATOM     32  C21 UNL     1      21.798  15.078  22.631  0.00  0.00    +0.026 A 
ENDBRANCH  14  26
TORSDOF 2
ENDMDL
MODEL 8
REMARK VINA RESULT:    -6.970     12.279     15.182
REMARK INTER + INTRA:          -8.184
REMARK INTER:                  -7.654
REMARK INTRA:                  -0.530
REMARK UNBOUND:                -0.399
REMARK  Name = /home/qwerty/github/datacon2025hack/step_04_hit_selection/docking/ligands/lig_415.pdb
REMARK  2 active torsions:
REMARK  status: ('A' for Active; 'I' for Inactive)
REMARK    1  A    between atoms: N1_3  and  C2_4
REMARK    2  A    between atoms: N4_23  and  C16_24
REMARK                            x       y       z     vdW  Elec       q    Type
REMARK                         _______ _______ _______ _____ _____    ______ ____
ROOT
ATOM      1  O1  UNL     1      18.111  13.251  27.219  0.00  0.00    -0.252 OA
ATOM      2  C1  UNL     1      18.377  14.474  27.064  0.00  0.00    +0.306 C 
ATOM      3  N1  UNL     1      17.543  15.468  27.684  0.00  0.00    -0.269 N 
ATOM      4  N2  UNL     1      19.538  14.863  26.303  0.00  0.00    -0.285 N 
ATOM      5  C9  UNL     1      19.651  16.223  25.758  0.00  0.00    +0.112 C 
ATOM      6  C10 UNL     1      20.296  16.198  24.368  0.00  0.00    +0.054 C 
ATOM      7  C11 UNL     1      21.603  15.376  24.335  0.00  0.00    +0.115 C 
ATOM      8  C12 UNL     1      21.387  13.967  24.931  0.00  0.00    +0.054 C 
ATOM      9  C13 UNL     1      20.738  14.014  26.319  0.00  0.00    +0.112 C 
ATOM     10  C14 UNL     1      22.732  16.098  25.005  0.00  0.00    +0.238 C 
ATOM     11  O4  UNL     1      22.767  16.431  26.220  0.00  0.00    -0.273 OA
ATOM     12  N3  UNL     1      23.790  16.383  24.109  0.00  0.00    -0.298 N 
ATOM     13  C15 UNL     1      23.437  15.876  22.798  0.00  0.00    +0.214 C 
ATOM     14  N4  UNL     1      22.113  15.278  22.958  0.00  0.00    -0.300 N 
ATOM     15  H1  UNL     1      17.978  16.385  27.931  0.00  0.00    +0.156 HD
ATOM     16  H15 UNL     1      24.677  16.877  24.352  0.00  0.00    +0.150 HD
ENDROOT
BRANCH   3  17
ATOM     17  C2  UNL     1      16.193  15.227  28.114  0.00  0.00    +0.038 A 
ATOM     18  C3  UNL     1      15.894  14.914  29.469  0.00  0.00    +0.027 A 
ATOM     19  C4  UNL     1      14.569  14.657  29.868  0.00  0.00    +0.051 A 
ATOM     20  C5  UNL     1      13.577  14.705  28.896  0.00  0.00    +0.166 A 
ATOM     21  C6  UNL     1      13.855  14.986  27.598  0.00  0.00    +0.168 A 
ATOM     22  C7  UNL     1      15.150  15.246  27.162  0.00  0.00    +0.073 A 
ATOM     23  O2  UNL     1      12.687  14.959  26.861  0.00  0.00    -0.453 OA
ATOM     24  C8  UNL     1      11.608  14.643  27.751  0.00  0.00    +0.466 C 
ATOM     25  O3  UNL     1      12.219  14.488  29.039  0.00  0.00    -0.453 OA
ENDBRANCH   3  17
BRANCH  14  26
ATOM     26  C16 UNL     1      21.433  14.642  21.868  0.00  0.00    +0.032 A 
ATOM     27  C17 UNL     1      20.538  15.373  21.074  0.00  0.00    +0.026 A 
ATOM     28  C18 UNL     1      19.888  14.757  20.001  0.00  0.00    +0.040 A 
ATOM     29  C19 UNL     1      20.137  13.412  19.709  0.00  0.00    +0.124 A 
ATOM     30  F1  UNL     1      19.508  12.816  18.667  0.00  0.00    -0.205 F 
ATOM     31  C20 UNL     1      21.043  12.684  20.489  0.00  0.00    +0.040 A 
ATOM     32  C21 UNL     1      21.693  13.299  21.563  0.00  0.00    +0.026 A 
ENDBRANCH  14  26
TORSDOF 2
ENDMDL
