MODEL 1
REMARK VINA RESULT:    -6.081      0.000      0.000
REMARK INTER + INTRA:          -7.913
REMARK INTER:                  -7.504
REMARK INTRA:                  -0.409
REMARK UNBOUND:                -0.409
REMARK  Name = /home/qwerty/github/datacon2025hack/step_04_hit_selection/docking/ligands/lig_734.pdb
REMARK  5 active torsions:
REMARK  status: ('A' for Active; 'I' for Inactive)
REMARK    1  A    between atoms: C1_1  and  O1_2
REMARK    2  A    between atoms: O1_2  and  C2_3
REMARK    3  A    between atoms: C7_9  and  C8_10
REMARK    4  A    between atoms: C8_10  and  N1_11
REMARK    5  A    between atoms: C12_18  and  C13_19
REMARK                            x       y       z     vdW  Elec       q    Type
REMARK                         _______ _______ _______ _____ _____    ______ ____
ROOT
ATOM      1  N1  UNL     1      10.235   6.636  21.838  0.00  0.00    -0.295 NA
ATOM      2  C9  UNL     1      10.674   6.304  20.460  0.00  0.00    +0.103 C 
ATOM      3  C10 UNL     1      11.942   5.438  20.425  0.00  0.00    +0.122 C 
ATOM      4  N2  UNL     1      11.765   4.229  21.238  0.00  0.00    -0.306 N 
ATOM      5  C11 UNL     1      12.626   3.091  21.049  0.00  0.00    +0.184 A 
ATOM      6  N3  UNL     1      12.427   1.895  21.650  0.00  0.00    -0.126 NA
ATOM      7  N4  UNL     1      13.353   0.989  21.339  0.00  0.00    -0.136 NA
ATOM      8  C12 UNL     1      14.287   1.450  20.477  0.00  0.00    +0.206 A 
ATOM      9  S1  UNL     1      14.010   3.065  20.081  0.00  0.00    -0.027 S 
ATOM     10  C14 UNL     1      10.683   4.188  22.226  0.00  0.00    +0.122 C 
ATOM     11  C15 UNL     1      10.512   5.579  22.847  0.00  0.00    +0.103 C 
ENDROOT
BRANCH   8  12
ATOM     12  C13 UNL     1      15.470   0.652  20.036  0.00  0.00    +0.443 C 
ATOM     13  F2  UNL     1      16.553   1.495  19.863  0.00  0.00    -0.164 F 
ATOM     14  F3  UNL     1      15.192   0.017  18.840  0.00  0.00    -0.164 F 
ATOM     15  F4  UNL     1      15.782  -0.301  20.988  0.00  0.00    -0.164 F 
ENDBRANCH   8  12
BRANCH   1  16
ATOM     16  C8  UNL     1      10.755   7.952  22.271  0.00  0.00    +0.123 C 
BRANCH  16  23
ATOM     17  C2  UNL     1       9.322   9.816  21.321  0.00  0.00    +0.125 A 
ATOM     18  C3  UNL     1       8.260  10.732  21.457  0.00  0.00    +0.049 A 
ATOM     19  C4  UNL     1       7.523  10.789  22.642  0.00  0.00    +0.042 A 
ATOM     20  C5  UNL     1       7.832   9.935  23.702  0.00  0.00    +0.124 A 
ATOM     21  F1  UNL     1       7.112   9.990  24.849  0.00  0.00    -0.205 F 
ATOM     22  C6  UNL     1       8.883   9.023  23.580  0.00  0.00    +0.046 A 
ATOM     23  C7  UNL     1       9.636   8.958  22.396  0.00  0.00    +0.011 A 
BRANCH  17  25
ATOM     24  C1  UNL     1      11.258  10.482  19.878  0.00  0.00    +0.277 C 
ATOM     25  O1  UNL     1      10.078   9.729  20.140  0.00  0.00    -0.495 OA
ENDBRANCH  17  25
ENDBRANCH  16  23
ENDBRANCH   1  16
TORSDOF 4
ENDMDL
MODEL 2
REMARK VINA RESULT:    -5.943     16.745     19.037
REMARK INTER + INTRA:          -7.742
REMARK INTER:                  -7.480
REMARK INTRA:                  -0.261
REMARK UNBOUND:                -0.409
REMARK  Name = /home/qwerty/github/datacon2025hack/step_04_hit_selection/docking/ligands/lig_734.pdb
REMARK  5 active torsions:
REMARK  status: ('A' for Active; 'I' for Inactive)
REMARK    1  A    between atoms: C1_1  and  O1_2
REMARK    2  A    between atoms: O1_2  and  C2_3
REMARK    3  A    between atoms: C7_9  and  C8_10
REMARK    4  A    between atoms: C8_10  and  N1_11
REMARK    5  A    between atoms: C12_18  and  C13_19
REMARK                            x       y       z     vdW  Elec       q    Type
REMARK                         _______ _______ _______ _____ _____    ______ ____
ROOT
ATOM      1  N1  UNL     1      20.758   8.612  35.296  0.00  0.00    -0.295 NA
ATOM      2  C9  UNL     1      21.040  10.068  35.361  0.00  0.00    +0.103 C 
ATOM      3  C10 UNL     1      19.784  10.932  35.181  0.00  0.00    +0.122 C 
ATOM      4  N2  UNL     1      18.746  10.543  36.144  0.00  0.00    -0.306 N 
ATOM      5  C11 UNL     1      17.661  11.439  36.448  0.00  0.00    +0.184 A 
ATOM      6  N3  UNL     1      16.759  11.214  37.429  0.00  0.00    -0.126 NA
ATOM      7  N4  UNL     1      15.835  12.169  37.526  0.00  0.00    -0.136 NA
ATOM      8  C12 UNL     1      16.002  13.169  36.632  0.00  0.00    +0.206 A 
ATOM      9  S1  UNL     1      17.328  12.880  35.631  0.00  0.00    -0.027 S 
ATOM     10  C14 UNL     1      18.846   9.241  36.810  0.00  0.00    +0.122 C 
ATOM     11  C15 UNL     1      19.428   8.216  35.831  0.00  0.00    +0.103 C 
ENDROOT
BRANCH   8  12
ATOM     12  C13 UNL     1      15.056  14.316  36.487  0.00  0.00    +0.443 C 
ATOM     13  F2  UNL     1      13.890  14.039  37.176  0.00  0.00    -0.164 F 
ATOM     14  F3  UNL     1      14.760  14.517  35.151  0.00  0.00    -0.164 F 
ATOM     15  F4  UNL     1      15.625  15.468  36.998  0.00  0.00    -0.164 F 
ENDBRANCH   8  12
BRANCH   1  16
ATOM     16  C8  UNL     1      20.979   8.077  33.935  0.00  0.00    +0.123 C 
BRANCH  16  23
ATOM     17  C2  UNL     1      23.422   7.399  33.950  0.00  0.00    +0.125 A 
ATOM     18  C3  UNL     1      24.748   7.595  33.516  0.00  0.00    +0.049 A 
ATOM     19  C4  UNL     1      25.060   8.646  32.649  0.00  0.00    +0.042 A 
ATOM     20  C5  UNL     1      24.057   9.509  32.204  0.00  0.00    +0.124 A 
ATOM     21  F1  UNL     1      24.363  10.524  31.359  0.00  0.00    -0.205 F 
ATOM     22  C6  UNL     1      22.739   9.325  32.627  0.00  0.00    +0.046 A 
ATOM     23  C7  UNL     1      22.412   8.277  33.503  0.00  0.00    +0.011 A 
BRANCH  17  25
ATOM     24  C1  UNL     1      23.374   6.314  36.207  0.00  0.00    +0.277 C 
ATOM     25  O1  UNL     1      23.074   6.348  34.815  0.00  0.00    -0.495 OA
ENDBRANCH  17  25
ENDBRANCH  16  23
ENDBRANCH   1  16
TORSDOF 4
ENDMDL
MODEL 3
REMARK VINA RESULT:    -5.935     17.033     19.181
REMARK INTER + INTRA:          -7.732
REMARK INTER:                  -7.585
REMARK INTRA:                  -0.147
REMARK UNBOUND:                -0.409
REMARK  Name = /home/qwerty/github/datacon2025hack/step_04_hit_selection/docking/ligands/lig_734.pdb
REMARK  5 active torsions:
REMARK  status: ('A' for Active; 'I' for Inactive)
REMARK    1  A    between atoms: C1_1  and  O1_2
REMARK    2  A    between atoms: O1_2  and  C2_3
REMARK    3  A    between atoms: C7_9  and  C8_10
REMARK    4  A    between atoms: C8_10  and  N1_11
REMARK    5  A    between atoms: C12_18  and  C13_19
REMARK                            x       y       z     vdW  Elec       q    Type
REMARK                         _______ _______ _______ _____ _____    ______ ____
ROOT
ATOM      1  N1  UNL     1      20.691  10.231  35.778  0.00  0.00    -0.295 NA
ATOM      2  C9  UNL     1      20.683  11.712  35.675  0.00  0.00    +0.103 C 
ATOM      3  C10 UNL     1      19.317  12.278  35.261  0.00  0.00    +0.122 C 
ATOM      4  N2  UNL     1      18.262  11.797  36.163  0.00  0.00    -0.306 N 
ATOM      5  C11 UNL     1      16.999  12.483  36.238  0.00  0.00    +0.184 A 
ATOM      6  N3  UNL     1      16.044  12.190  37.150  0.00  0.00    -0.126 NA
ATOM      7  N4  UNL     1      14.952  12.944  37.029  0.00  0.00    -0.136 NA
ATOM      8  C12 UNL     1      15.034  13.850  36.029  0.00  0.00    +0.206 A 
ATOM      9  S1  UNL     1      16.501  13.725  35.208  0.00  0.00    -0.027 S 
ATOM     10  C14 UNL     1      18.526  10.626  37.004  0.00  0.00    +0.122 C 
ATOM     11  C15 UNL     1      19.405   9.636  36.232  0.00  0.00    +0.103 C 
ENDROOT
BRANCH   8  12
ATOM     12  C13 UNL     1      13.912  14.758  35.642  0.00  0.00    +0.443 C 
ATOM     13  F2  UNL     1      14.231  16.057  35.991  0.00  0.00    -0.164 F 
ATOM     14  F3  UNL     1      12.753  14.381  36.295  0.00  0.00    -0.164 F 
ATOM     15  F4  UNL     1      13.699  14.693  34.277  0.00  0.00    -0.164 F 
ENDBRANCH   8  12
BRANCH   1  16
ATOM     16  C8  UNL     1      21.171   9.602  34.528  0.00  0.00    +0.123 C 
BRANCH  16  23
ATOM     17  C2  UNL     1      23.056   8.052  33.839  0.00  0.00    +0.125 A 
ATOM     18  C3  UNL     1      23.969   7.024  34.149  0.00  0.00    +0.049 A 
ATOM     19  C4  UNL     1      23.976   6.445  35.420  0.00  0.00    +0.042 A 
ATOM     20  C5  UNL     1      23.078   6.882  36.396  0.00  0.00    +0.124 A 
ATOM     21  F1  UNL     1      23.091   6.321  37.629  0.00  0.00    -0.205 F 
ATOM     22  C6  UNL     1      22.168   7.900  36.101  0.00  0.00    +0.046 A 
ATOM     23  C7  UNL     1      22.146   8.488  34.825  0.00  0.00    +0.011 A 
BRANCH  17  25
ATOM     24  C1  UNL     1      24.023   9.553  32.083  0.00  0.00    +0.277 C 
ATOM     25  O1  UNL     1      23.028   8.660  32.573  0.00  0.00    -0.495 OA
ENDBRANCH  17  25
ENDBRANCH  16  23
ENDBRANCH   1  16
TORSDOF 4
ENDMDL
MODEL 4
REMARK VINA RESULT:    -5.845     16.357     18.939
REMARK INTER + INTRA:          -7.621
REMARK INTER:                  -7.312
REMARK INTRA:                  -0.309
REMARK UNBOUND:                -0.409
REMARK  Name = /home/qwerty/github/datacon2025hack/step_04_hit_selection/docking/ligands/lig_734.pdb
REMARK  5 active torsions:
REMARK  status: ('A' for Active; 'I' for Inactive)
REMARK    1  A    between atoms: C1_1  and  O1_2
REMARK    2  A    between atoms: O1_2  and  C2_3
REMARK    3  A    between atoms: C7_9  and  C8_10
REMARK    4  A    between atoms: C8_10  and  N1_11
REMARK    5  A    between atoms: C12_18  and  C13_19
REMARK                            x       y       z     vdW  Elec       q    Type
REMARK                         _______ _______ _______ _____ _____    ______ ____
ROOT
ATOM      1  N1  UNL     1      19.062   8.874  36.447  0.00  0.00    -0.295 NA
ATOM      2  C9  UNL     1      18.142   8.895  35.281  0.00  0.00    +0.103 C 
ATOM      3  C10 UNL     1      16.685   9.181  35.671  0.00  0.00    +0.122 C 
ATOM      4  N2  UNL     1      16.591  10.421  36.451  0.00  0.00    -0.306 N 
ATOM      5  C11 UNL     1      15.332  11.105  36.584  0.00  0.00    +0.184 A 
ATOM      6  N3  UNL     1      15.201  12.324  37.155  0.00  0.00    -0.126 NA
ATOM      7  N4  UNL     1      13.943  12.761  37.180  0.00  0.00    -0.136 NA
ATOM      8  C12 UNL     1      13.064  11.901  36.618  0.00  0.00    +0.206 A 
ATOM      9  S1  UNL     1      13.837  10.504  36.079  0.00  0.00    -0.027 S 
ATOM     10  C14 UNL     1      17.804  10.965  37.070  0.00  0.00    +0.122 C 
ATOM     11  C15 UNL     1      18.693   9.810  37.542  0.00  0.00    +0.103 C 
ENDROOT
BRANCH   8  12
ATOM     12  C13 UNL     1      11.588  12.126  36.591  0.00  0.00    +0.443 C 
ATOM     13  F2  UNL     1      11.037  11.704  37.787  0.00  0.00    -0.164 F 
ATOM     14  F3  UNL     1      11.021  11.413  35.551  0.00  0.00    -0.164 F 
ATOM     15  F4  UNL     1      11.316  13.471  36.415  0.00  0.00    -0.164 F 
ENDBRANCH   8  12
BRANCH   1  16
ATOM     16  C8  UNL     1      19.267   7.499  36.951  0.00  0.00    +0.123 C 
BRANCH  16  23
ATOM     17  C2  UNL     1      21.123   6.597  35.478  0.00  0.00    +0.125 A 
ATOM     18  C3  UNL     1      22.466   6.208  35.303  0.00  0.00    +0.049 A 
ATOM     19  C4  UNL     1      23.366   6.278  36.370  0.00  0.00    +0.042 A 
ATOM     20  C5  UNL     1      22.941   6.737  37.617  0.00  0.00    +0.124 A 
ATOM     21  F1  UNL     1      23.818   6.808  38.648  0.00  0.00    -0.205 F 
ATOM     22  C6  UNL     1      21.612   7.125  37.803  0.00  0.00    +0.046 A 
ATOM     23  C7  UNL     1      20.695   7.055  36.742  0.00  0.00    +0.011 A 
BRANCH  17  25
ATOM     24  C1  UNL     1      20.540   6.433  33.047  0.00  0.00    +0.277 C 
ATOM     25  O1  UNL     1      20.195   6.545  34.425  0.00  0.00    -0.495 OA
ENDBRANCH  17  25
ENDBRANCH  16  23
ENDBRANCH   1  16
TORSDOF 4
ENDMDL
MODEL 5
REMARK VINA RESULT:    -5.838      2.581      3.507
REMARK INTER + INTRA:          -7.612
REMARK INTER:                  -7.214
REMARK INTRA:                  -0.398
REMARK UNBOUND:                -0.409
REMARK  Name = /home/qwerty/github/datacon2025hack/step_04_hit_selection/docking/ligands/lig_734.pdb
REMARK  5 active torsions:
REMARK  status: ('A' for Active; 'I' for Inactive)
REMARK    1  A    between atoms: C1_1  and  O1_2
REMARK    2  A    between atoms: O1_2  and  C2_3
REMARK    3  A    between atoms: C7_9  and  C8_10
REMARK    4  A    between atoms: C8_10  and  N1_11
REMARK    5  A    between atoms: C12_18  and  C13_19
REMARK                            x       y       z     vdW  Elec       q    Type
REMARK                         _______ _______ _______ _____ _____    ______ ____
ROOT
ATOM      1  N1  UNL     1      12.330   5.951  20.605  0.00  0.00    -0.295 NA
ATOM      2  C9  UNL     1      13.176   5.747  21.807  0.00  0.00    +0.103 C 
ATOM      3  C10 UNL     1      13.565   4.278  22.025  0.00  0.00    +0.122 C 
ATOM      4  N2  UNL     1      14.200   3.726  20.822  0.00  0.00    -0.306 N 
ATOM      5  C11 UNL     1      15.000   2.533  20.902  0.00  0.00    +0.184 A 
ATOM      6  N3  UNL     1      15.735   2.056  19.872  0.00  0.00    -0.126 NA
ATOM      7  N4  UNL     1      16.389   0.933  20.166  0.00  0.00    -0.136 NA
ATOM      8  C12 UNL     1      16.190   0.514  21.436  0.00  0.00    +0.206 A 
ATOM      9  S1  UNL     1      15.134   1.538  22.260  0.00  0.00    -0.027 S 
ATOM     10  C14 UNL     1      14.029   4.425  19.544  0.00  0.00    +0.122 C 
ATOM     11  C15 UNL     1      12.620   5.023  19.479  0.00  0.00    +0.103 C 
ENDROOT
BRANCH   8  12
ATOM     12  C13 UNL     1      16.750  -0.758  21.985  0.00  0.00    +0.443 C 
ATOM     13  F2  UNL     1      17.616  -0.469  23.023  0.00  0.00    -0.164 F 
ATOM     14  F3  UNL     1      17.435  -1.437  20.994  0.00  0.00    -0.164 F 
ATOM     15  F4  UNL     1      15.728  -1.562  22.455  0.00  0.00    -0.164 F 
ENDBRANCH   8  12
BRANCH   1  16
ATOM     16  C8  UNL     1      10.891   5.959  20.948  0.00  0.00    +0.123 C 
BRANCH  16  23
ATOM     17  C2  UNL     1       9.054   7.644  21.412  0.00  0.00    +0.125 A 
ATOM     18  C3  UNL     1       8.558   8.962  21.347  0.00  0.00    +0.049 A 
ATOM     19  C4  UNL     1       9.319   9.975  20.759  0.00  0.00    +0.042 A 
ATOM     20  C5  UNL     1      10.580   9.689  20.232  0.00  0.00    +0.124 A 
ATOM     21  F1  UNL     1      11.317  10.675  19.666  0.00  0.00    -0.205 F 
ATOM     22  C6  UNL     1      11.082   8.387  20.289  0.00  0.00    +0.046 A 
ATOM     23  C7  UNL     1      10.326   7.357  20.873  0.00  0.00    +0.011 A 
BRANCH  17  25
ATOM     24  C1  UNL     1       7.242   5.915  21.373  0.00  0.00    +0.277 C 
ATOM     25  O1  UNL     1       8.317   6.604  22.003  0.00  0.00    -0.495 OA
ENDBRANCH  17  25
ENDBRANCH  16  23
ENDBRANCH   1  16
TORSDOF 4
ENDMDL
MODEL 6
REMARK VINA RESULT:    -5.811     16.315     17.012
REMARK INTER + INTRA:          -7.579
REMARK INTER:                  -7.160
REMARK INTRA:                  -0.420
REMARK UNBOUND:                -0.409
REMARK  Name = /home/qwerty/github/datacon2025hack/step_04_hit_selection/docking/ligands/lig_734.pdb
REMARK  5 active torsions:
REMARK  status: ('A' for Active; 'I' for Inactive)
REMARK    1  A    between atoms: C1_1  and  O1_2
REMARK    2  A    between atoms: O1_2  and  C2_3
REMARK    3  A    between atoms: C7_9  and  C8_10
REMARK    4  A    between atoms: C8_10  and  N1_11
REMARK    5  A    between atoms: C12_18  and  C13_19
REMARK                            x       y       z     vdW  Elec       q    Type
REMARK                         _______ _______ _______ _____ _____    ______ ____
ROOT
ATOM      1  N1  UNL     1      15.877  10.491  36.922  0.00  0.00    -0.295 NA
ATOM      2  C9  UNL     1      16.449  10.054  35.624  0.00  0.00    +0.103 C 
ATOM      3  C10 UNL     1      17.960   9.794  35.690  0.00  0.00    +0.122 C 
ATOM      4  N2  UNL     1      18.275   8.842  36.763  0.00  0.00    -0.306 N 
ATOM      5  C11 UNL     1      19.532   8.140  36.769  0.00  0.00    +0.184 A 
ATOM      6  N3  UNL     1      19.826   7.144  37.634  0.00  0.00    -0.126 NA
ATOM      7  N4  UNL     1      21.050   6.644  37.465  0.00  0.00    -0.136 NA
ATOM      8  C12 UNL     1      21.734   7.229  36.456  0.00  0.00    +0.206 A 
ATOM      9  S1  UNL     1      20.828   8.452  35.732  0.00  0.00    -0.027 S 
ATOM     10  C14 UNL     1      17.281   8.599  37.812  0.00  0.00    +0.122 C 
ATOM     11  C15 UNL     1      16.538   9.904  38.118  0.00  0.00    +0.103 C 
ENDROOT
BRANCH   8  12
ATOM     12  C13 UNL     1      23.152   6.900  36.118  0.00  0.00    +0.443 C 
ATOM     13  F2  UNL     1      23.611   7.783  35.158  0.00  0.00    -0.164 F 
ATOM     14  F3  UNL     1      23.232   5.610  35.628  0.00  0.00    -0.164 F 
ATOM     15  F4  UNL     1      23.944   7.002  37.247  0.00  0.00    -0.164 F 
ENDBRANCH   8  12
BRANCH   1  16
ATOM     16  C8  UNL     1      15.799  11.966  37.011  0.00  0.00    +0.123 C 
BRANCH  16  23
ATOM     17  C2  UNL     1      14.195  13.747  36.185  0.00  0.00    +0.125 A 
ATOM     18  C3  UNL     1      12.884  14.169  35.886  0.00  0.00    +0.049 A 
ATOM     19  C4  UNL     1      11.801  13.311  36.096  0.00  0.00    +0.042 A 
ATOM     20  C5  UNL     1      12.011  12.027  36.602  0.00  0.00    +0.124 A 
ATOM     21  F1  UNL     1      10.958  11.197  36.801  0.00  0.00    -0.205 F 
ATOM     22  C6  UNL     1      13.305  11.598  36.904  0.00  0.00    +0.046 A 
ATOM     23  C7  UNL     1      14.403  12.451  36.703  0.00  0.00    +0.011 A 
BRANCH  17  25
ATOM     24  C1  UNL     1      15.420  15.912  36.474  0.00  0.00    +0.277 C 
ATOM     25  O1  UNL     1      15.306  14.582  35.979  0.00  0.00    -0.495 OA
ENDBRANCH  17  25
ENDBRANCH  16  23
ENDBRANCH   1  16
TORSDOF 4
ENDMDL
MODEL 7
REMARK VINA RESULT:    -5.767      3.501      9.684
REMARK INTER + INTRA:          -7.525
REMARK INTER:                  -7.029
REMARK INTRA:                  -0.495
REMARK UNBOUND:                -0.409
REMARK  Name = /home/qwerty/github/datacon2025hack/step_04_hit_selection/docking/ligands/lig_734.pdb
REMARK  5 active torsions:
REMARK  status: ('A' for Active; 'I' for Inactive)
REMARK    1  A    between atoms: C1_1  and  O1_2
REMARK    2  A    between atoms: O1_2  and  C2_3
REMARK    3  A    between atoms: C7_9  and  C8_10
REMARK    4  A    between atoms: C8_10  and  N1_11
REMARK    5  A    between atoms: C12_18  and  C13_19
REMARK                            x       y       z     vdW  Elec       q    Type
REMARK                         _______ _______ _______ _____ _____    ______ ____
ROOT
ATOM      1  N1  UNL     1      13.979   2.822  21.519  0.00  0.00    -0.295 NA
ATOM      2  C9  UNL     1      13.671   3.737  22.648  0.00  0.00    +0.103 C 
ATOM      3  C10 UNL     1      13.243   5.137  22.186  0.00  0.00    +0.122 C 
ATOM      4  N2  UNL     1      12.121   5.052  21.243  0.00  0.00    -0.306 N 
ATOM      5  C11 UNL     1      11.295   6.202  20.987  0.00  0.00    +0.184 A 
ATOM      6  N3  UNL     1      10.160   6.157  20.253  0.00  0.00    -0.126 NA
ATOM      7  N4  UNL     1       9.561   7.342  20.137  0.00  0.00    -0.136 NA
ATOM      8  C12 UNL     1      10.206   8.335  20.788  0.00  0.00    +0.206 A 
ATOM      9  S1  UNL     1      11.609   7.770  21.530  0.00  0.00    -0.027 S 
ATOM     10  C14 UNL     1      11.840   3.771  20.588  0.00  0.00    +0.122 C 
ATOM     11  C15 UNL     1      13.160   3.049  20.299  0.00  0.00    +0.103 C 
ENDROOT
BRANCH   8  12
ATOM     12  C13 UNL     1       9.778   9.766  20.746  0.00  0.00    +0.443 C 
ATOM     13  F2  UNL     1      10.327  10.441  21.821  0.00  0.00    -0.164 F 
ATOM     14  F3  UNL     1       8.399   9.848  20.812  0.00  0.00    -0.164 F 
ATOM     15  F4  UNL     1      10.207  10.355  19.571  0.00  0.00    -0.164 F 
ENDBRANCH   8  12
BRANCH   1  16
ATOM     16  C8  UNL     1      15.426   2.809  21.211  0.00  0.00    +0.123 C 
BRANCH  16  23
ATOM     17  C2  UNL     1      16.405   0.890  22.549  0.00  0.00    +0.125 A 
ATOM     18  C3  UNL     1      16.904  -0.426  22.613  0.00  0.00    +0.049 A 
ATOM     19  C4  UNL     1      16.977  -1.212  21.461  0.00  0.00    +0.042 A 
ATOM     20  C5  UNL     1      16.553  -0.698  20.234  0.00  0.00    +0.124 A 
ATOM     21  F1  UNL     1      16.621  -1.465  19.118  0.00  0.00    -0.205 F 
ATOM     22  C6  UNL     1      16.058   0.606  20.156  0.00  0.00    +0.046 A 
ATOM     23  C7  UNL     1      15.984   1.409  21.306  0.00  0.00    +0.011 A 
BRANCH  17  25
ATOM     24  C1  UNL     1      15.576   1.371  24.863  0.00  0.00    +0.277 C 
ATOM     25  O1  UNL     1      16.313   1.704  23.690  0.00  0.00    -0.495 OA
ENDBRANCH  17  25
ENDBRANCH  16  23
ENDBRANCH   1  16
TORSDOF 4
ENDMDL
MODEL 8
REMARK VINA RESULT:    -5.763     15.116     17.786
REMARK INTER + INTRA:          -7.519
REMARK INTER:                  -7.075
REMARK INTRA:                  -0.444
REMARK UNBOUND:                -0.409
REMARK  Name = /home/qwerty/github/datacon2025hack/step_04_hit_selection/docking/ligands/lig_734.pdb
REMARK  5 active torsions:
REMARK  status: ('A' for Active; 'I' for Inactive)
REMARK    1  A    between atoms: C1_1  and  O1_2
REMARK    2  A    between atoms: O1_2  and  C2_3
REMARK    3  A    between atoms: C7_9  and  C8_10
REMARK    4  A    between atoms: C8_10  and  N1_11
REMARK    5  A    between atoms: C12_18  and  C13_19
REMARK                            x       y       z     vdW  Elec       q    Type
REMARK                         _______ _______ _______ _____ _____    ______ ____
ROOT
ATOM      1  N1  UNL     1      21.814   4.584  32.506  0.00  0.00    -0.295 NA
ATOM      2  C9  UNL     1      20.468   5.183  32.315  0.00  0.00    +0.103 C 
ATOM      3  C10 UNL     1      20.011   6.026  33.513  0.00  0.00    +0.122 C 
ATOM      4  N2  UNL     1      21.012   7.049  33.839  0.00  0.00    -0.306 N 
ATOM      5  C11 UNL     1      20.652   8.195  34.633  0.00  0.00    +0.184 A 
ATOM      6  N3  UNL     1      21.476   9.247  34.843  0.00  0.00    -0.126 NA
ATOM      7  N4  UNL     1      20.940  10.189  35.618  0.00  0.00    -0.136 NA
ATOM      8  C12 UNL     1      19.682   9.902  36.019  0.00  0.00    +0.206 A 
ATOM      9  S1  UNL     1      19.181   8.401  35.436  0.00  0.00    -0.027 S 
ATOM     10  C14 UNL     1      22.375   6.901  33.320  0.00  0.00    +0.122 C 
ATOM     11  C15 UNL     1      22.752   5.415  33.306  0.00  0.00    +0.103 C 
ENDROOT
BRANCH   8  12
ATOM     12  C13 UNL     1      18.896  10.761  36.955  0.00  0.00    +0.443 C 
ATOM     13  F2  UNL     1      18.893  10.187  38.213  0.00  0.00    -0.164 F 
ATOM     14  F3  UNL     1      17.594  10.879  36.506  0.00  0.00    -0.164 F 
ATOM     15  F4  UNL     1      19.461  12.021  37.031  0.00  0.00    -0.164 F 
ENDBRANCH   8  12
BRANCH   1  16
ATOM     16  C8  UNL     1      21.725   3.204  33.030  0.00  0.00    +0.123 C 
BRANCH  16  23
ATOM     17  C2  UNL     1      20.626   1.203  31.926  0.00  0.00    +0.125 A 
ATOM     18  C3  UNL     1      20.536   0.295  30.852  0.00  0.00    +0.049 A 
ATOM     19  C4  UNL     1      21.417   0.389  29.772  0.00  0.00    +0.042 A 
ATOM     20  C5  UNL     1      22.394   1.386  29.748  0.00  0.00    +0.124 A 
ATOM     21  F1  UNL     1      23.244   1.476  28.697  0.00  0.00    -0.205 F 
ATOM     22  C6  UNL     1      22.495   2.291  30.807  0.00  0.00    +0.046 A 
ATOM     23  C7  UNL     1      21.619   2.205  31.903  0.00  0.00    +0.011 A 
BRANCH  17  25
ATOM     24  C1  UNL     1      18.490   0.478  33.016  0.00  0.00    +0.277 C 
ATOM     25  O1  UNL     1      19.751   1.140  33.024  0.00  0.00    -0.495 OA
ENDBRANCH  17  25
ENDBRANCH  16  23
ENDBRANCH   1  16
TORSDOF 4
ENDMDL
