REMARK  Name = /home/qwerty/github/datacon2025hack/step_04_hit_selection/docking/ligands/lig_601.pdb
REMARK  3 active torsions:
REMARK  status: ('A' for Active; 'I' for Inactive)
REMARK    1  A    between atoms: C1_1  and  C2_2
REMARK    2  A    between atoms: C5_5  and  N1_6
REMARK    3  A    between atoms: C8_10  and  C9_12
REMARK                            x       y       z     vdW  Elec       q    Type
REMARK                         _______ _______ _______ _____ _____    ______ ____
ROOT
ATOM      1  N1  UNL     1       3.199  -0.464   0.333  0.00  0.00    -0.327 N 
ATOM      2  C6  UNL     1       2.594   0.343   1.407  0.00  0.00    +0.124 C 
ATOM      3  C7  UNL     1       1.480  -0.441   2.099  0.00  0.00    +0.127 C 
ATOM      4  N2  UNL     1       0.588  -1.000   1.084  0.00  0.00    -0.291 N 
ATOM      5  C8  UNL     1      -0.821  -0.710   1.111  0.00  0.00    +0.302 C 
ATOM      6  O1  UNL     1      -1.456  -0.847   2.192  0.00  0.00    -0.265 OA
ATOM      7  C17 UNL     1       1.188  -1.862   0.064  0.00  0.00    +0.127 C 
ATOM      8  C18 UNL     1       2.308  -1.102  -0.648  0.00  0.00    +0.124 C 
ENDROOT
BRANCH   5   9
ATOM      9  C9  UNL     1      -1.527  -0.217  -0.092  0.00  0.00    +0.302 C 
ATOM     10  O2  UNL     1      -0.911  -0.126  -1.188  0.00  0.00    -0.265 OA
ATOM     11  N3  UNL     1      -2.907   0.178  -0.027  0.00  0.00    -0.292 N 
ATOM     12  C10 UNL     1      -3.277   1.316   0.845  0.00  0.00    +0.108 C 
ATOM     13  C11 UNL     1      -4.773   1.291   1.231  0.00  0.00    +0.024 C 
ATOM     14  C12 UNL     1      -5.596   1.063  -0.036  0.00  0.00    +0.010 C 
ATOM     15  C13 UNL     1      -7.093   0.932   0.098  0.00  0.00    +0.020 C 
ATOM     16  C14 UNL     1      -7.462   0.083  -1.130  0.00  0.00    +0.081 C 
ATOM     17  N4  UNL     1      -6.225  -0.507  -1.674  0.00  0.00    -0.311 NA
ATOM     18  C15 UNL     1      -5.225  -0.265  -0.641  0.00  0.00    +0.074 C 
ATOM     19  C16 UNL     1      -3.788  -0.198  -1.150  0.00  0.00    +0.127 C 
ATOM     20  H19 UNL     1      -6.354  -1.540  -1.784  0.00  0.00    +0.122 HD
ENDBRANCH   5   9
BRANCH   1  25
ATOM     21  C1  UNL     1       8.750   0.424  -0.909  0.00  0.00    +0.044 C 
ATOM     22  C2  UNL     1       7.306   0.154  -0.602  0.00  0.00    -0.050 A 
ATOM     23  C3  UNL     1       6.319   0.393  -1.569  0.00  0.00    +0.005 A 
ATOM     24  C4  UNL     1       4.970   0.179  -1.269  0.00  0.00    +0.023 A 
ATOM     25  C5  UNL     1       4.587  -0.262   0.009  0.00  0.00    +0.030 A 
ATOM     26  C19 UNL     1       5.576  -0.481   0.980  0.00  0.00    +0.023 A 
ATOM     27  C20 UNL     1       6.925  -0.272   0.678  0.00  0.00    +0.005 A 
ENDBRANCH   1  25
TORSDOF 2
