MODEL 1
REMARK VINA RESULT:    -6.411      0.000      0.000
REMARK INTER + INTRA:          -8.419
REMARK INTER:                  -7.723
REMARK INTRA:                  -0.696
REMARK UNBOUND:                -0.696
REMARK  Name = /home/qwerty/github/datacon2025hack/step_04_hit_selection/docking/ligands/lig_636.pdb
REMARK  5 active torsions:
REMARK  status: ('A' for Active; 'I' for Inactive)
REMARK    1  A    between atoms: C1_1  and  C2_2
REMARK    2  A    between atoms: N1_4  and  C3_5
REMARK    3  A    between atoms: C6_8  and  O2_9
REMARK    4  A    between atoms: C7_10  and  C8_11
REMARK    5  A    between atoms: C11_16  and  N3_17
REMARK                            x       y       z     vdW  Elec       q    Type
REMARK                         _______ _______ _______ _____ _____    ______ ____
ROOT
ATOM      1  C3  UNL     1      20.939   7.066  36.673  0.00  0.00    +0.034 A 
ATOM      2  C4  UNL     1      22.147   7.057  37.390  0.00  0.00    +0.027 A 
ATOM      3  C5  UNL     1      23.325   6.613  36.784  0.00  0.00    +0.048 A 
ATOM      4  C6  UNL     1      23.317   6.163  35.460  0.00  0.00    +0.129 A 
ATOM      5  C7  UNL     1      22.105   6.148  34.736  0.00  0.00    +0.080 A 
ATOM      6  C18 UNL     1      20.925   6.587  35.355  0.00  0.00    +0.040 A 
ENDROOT
BRANCH   5   7
ATOM      7  C8  UNL     1      22.044   5.646  33.350  0.00  0.00    +0.250 C 
ATOM      8  O3  UNL     1      22.348   6.423  32.404  0.00  0.00    -0.270 OA
ATOM      9  N2  UNL     1      21.648   4.291  33.066  0.00  0.00    -0.296 N 
ATOM     10  C9  UNL     1      21.071   3.388  34.044  0.00  0.00    +0.110 C 
ATOM     11  C10 UNL     1      20.809   2.091  33.293  0.00  0.00    +0.039 C 
ATOM     12  C11 UNL     1      20.796   2.459  31.798  0.00  0.00    +0.075 C 
ATOM     13  C17 UNL     1      21.662   3.728  31.728  0.00  0.00    +0.127 C 
BRANCH  12  14
ATOM     14  N3  UNL     1      21.309   1.359  30.935  0.00  0.00    -0.298 NA
ATOM     15  C12 UNL     1      20.291   0.897  29.946  0.00  0.00    +0.085 C 
ATOM     16  C13 UNL     1      20.464   1.548  28.566  0.00  0.00    +0.015 C 
ATOM     17  C14 UNL     1      21.832   1.197  27.957  0.00  0.00    +0.002 C 
ATOM     18  C15 UNL     1      22.894   0.915  29.031  0.00  0.00    +0.015 C 
ATOM     19  C16 UNL     1      22.612   1.721  30.305  0.00  0.00    +0.085 C 
ENDBRANCH  12  14
ENDBRANCH   5   7
BRANCH   1  23
ATOM     20  C1  UNL     1      18.062   9.213  38.143  0.00  0.00    +0.109 C 
ATOM     21  C2  UNL     1      19.258   8.852  37.325  0.00  0.00    +0.214 C 
ATOM     22  O1  UNL     1      19.813   9.736  36.617  0.00  0.00    -0.276 OA
ATOM     23  N1  UNL     1      19.707   7.490  37.281  0.00  0.00    -0.286 N 
ATOM     24  H4  UNL     1      19.055   6.755  37.637  0.00  0.00    +0.155 HD
ENDBRANCH   1  23
BRANCH   4  25
ATOM     25  O2  UNL     1      24.524   5.752  34.890  0.00  0.00    -0.506 OA
ATOM     26  H7  UNL     1      24.794   5.988  33.944  0.00  0.00    +0.292 HD
ENDBRANCH   4  25
TORSDOF 4
ENDMDL
MODEL 2
REMARK VINA RESULT:    -6.198      2.645      8.277
REMARK INTER + INTRA:          -8.163
REMARK INTER:                  -7.566
REMARK INTRA:                  -0.597
REMARK UNBOUND:                -0.696
REMARK  Name = /home/qwerty/github/datacon2025hack/step_04_hit_selection/docking/ligands/lig_636.pdb
REMARK  5 active torsions:
REMARK  status: ('A' for Active; 'I' for Inactive)
REMARK    1  A    between atoms: C1_1  and  C2_2
REMARK    2  A    between atoms: N1_4  and  C3_5
REMARK    3  A    between atoms: C6_8  and  O2_9
REMARK    4  A    between atoms: C7_10  and  C8_11
REMARK    5  A    between atoms: C11_16  and  N3_17
REMARK                            x       y       z     vdW  Elec       q    Type
REMARK                         _______ _______ _______ _____ _____    ______ ____
ROOT
ATOM      1  C3  UNL     1      20.797   1.974  29.369  0.00  0.00    +0.034 A 
ATOM      2  C4  UNL     1      20.911   0.655  29.837  0.00  0.00    +0.027 A 
ATOM      3  C5  UNL     1      20.808   0.379  31.202  0.00  0.00    +0.048 A 
ATOM      4  C6  UNL     1      20.599   1.411  32.122  0.00  0.00    +0.129 A 
ATOM      5  C7  UNL     1      20.503   2.743  31.666  0.00  0.00    +0.080 A 
ATOM      6  C18 UNL     1      20.617   3.012  30.293  0.00  0.00    +0.040 A 
ENDROOT
BRANCH   5   7
ATOM      7  C8  UNL     1      20.321   3.865  32.605  0.00  0.00    +0.250 C 
ATOM      8  O3  UNL     1      19.170   4.095  33.067  0.00  0.00    -0.270 OA
ATOM      9  N2  UNL     1      21.430   4.694  32.998  0.00  0.00    -0.296 N 
ATOM     10  C9  UNL     1      22.736   4.663  32.367  0.00  0.00    +0.110 C 
ATOM     11  C10 UNL     1      23.567   5.704  33.102  0.00  0.00    +0.039 C 
ATOM     12  C11 UNL     1      22.561   6.633  33.805  0.00  0.00    +0.075 C 
ATOM     13  C17 UNL     1      21.316   5.750  33.988  0.00  0.00    +0.127 C 
BRANCH  12  14
ATOM     14  N3  UNL     1      23.084   7.171  35.092  0.00  0.00    -0.298 NA
ATOM     15  C12 UNL     1      22.242   8.284  35.621  0.00  0.00    +0.085 C 
ATOM     16  C13 UNL     1      21.224   7.812  36.669  0.00  0.00    +0.015 C 
ATOM     17  C14 UNL     1      21.932   7.203  37.891  0.00  0.00    +0.002 C 
ATOM     18  C15 UNL     1      23.298   6.599  37.533  0.00  0.00    +0.015 C 
ATOM     19  C16 UNL     1      23.307   6.084  36.088  0.00  0.00    +0.085 C 
ENDBRANCH  12  14
ENDBRANCH   5   7
BRANCH   1  23
ATOM     20  C1  UNL     1      22.212   2.970  25.897  0.00  0.00    +0.109 C 
ATOM     21  C2  UNL     1      22.185   2.458  27.299  0.00  0.00    +0.214 C 
ATOM     22  O1  UNL     1      23.262   2.104  27.850  0.00  0.00    -0.276 OA
ATOM     23  N1  UNL     1      20.928   2.290  27.972  0.00  0.00    -0.286 N 
ATOM     24  H4  UNL     1      20.061   2.312  27.388  0.00  0.00    +0.155 HD
ENDBRANCH   1  23
BRANCH   4  25
ATOM     25  O2  UNL     1      20.478   1.082  33.474  0.00  0.00    -0.506 OA
ATOM     26  H7  UNL     1      19.587   0.906  33.919  0.00  0.00    +0.292 HD
ENDBRANCH   4  25
TORSDOF 4
ENDMDL
MODEL 3
REMARK VINA RESULT:    -6.179      4.496      9.173
REMARK INTER + INTRA:          -8.140
REMARK INTER:                  -7.408
REMARK INTRA:                  -0.732
REMARK UNBOUND:                -0.696
REMARK  Name = /home/qwerty/github/datacon2025hack/step_04_hit_selection/docking/ligands/lig_636.pdb
REMARK  5 active torsions:
REMARK  status: ('A' for Active; 'I' for Inactive)
REMARK    1  A    between atoms: C1_1  and  C2_2
REMARK    2  A    between atoms: N1_4  and  C3_5
REMARK    3  A    between atoms: C6_8  and  O2_9
REMARK    4  A    between atoms: C7_10  and  C8_11
REMARK    5  A    between atoms: C11_16  and  N3_17
REMARK                            x       y       z     vdW  Elec       q    Type
REMARK                         _______ _______ _______ _____ _____    ______ ____
ROOT
ATOM      1  C3  UNL     1      22.892   7.364  35.635  0.00  0.00    +0.034 A 
ATOM      2  C4  UNL     1      23.011   6.938  36.969  0.00  0.00    +0.027 A 
ATOM      3  C5  UNL     1      21.927   7.045  37.843  0.00  0.00    +0.048 A 
ATOM      4  C6  UNL     1      20.713   7.586  37.408  0.00  0.00    +0.129 A 
ATOM      5  C7  UNL     1      20.588   8.036  36.076  0.00  0.00    +0.080 A 
ATOM      6  C18 UNL     1      21.685   7.933  35.206  0.00  0.00    +0.040 A 
ENDROOT
BRANCH   5   7
ATOM      7  C8  UNL     1      19.339   8.648  35.586  0.00  0.00    +0.250 C 
ATOM      8  O3  UNL     1      18.515   7.932  34.954  0.00  0.00    -0.270 OA
ATOM      9  N2  UNL     1      19.049  10.038  35.819  0.00  0.00    -0.296 N 
ATOM     10  C9  UNL     1      20.010  10.997  36.333  0.00  0.00    +0.110 C 
ATOM     11  C10 UNL     1      19.264  12.321  36.401  0.00  0.00    +0.039 C 
ATOM     12  C11 UNL     1      18.049  12.175  35.467  0.00  0.00    +0.075 C 
ATOM     13  C17 UNL     1      17.793  10.659  35.436  0.00  0.00    +0.127 C 
BRANCH  12  14
ATOM     14  N3  UNL     1      16.869  12.951  35.940  0.00  0.00    -0.298 NA
ATOM     15  C12 UNL     1      16.002  13.401  34.812  0.00  0.00    +0.085 C 
ATOM     16  C13 UNL     1      14.810  12.465  34.568  0.00  0.00    +0.015 C 
ATOM     17  C14 UNL     1      13.895  12.401  35.802  0.00  0.00    +0.002 C 
ATOM     18  C15 UNL     1      14.658  12.672  37.108  0.00  0.00    +0.015 C 
ATOM     19  C16 UNL     1      16.117  12.213  36.996  0.00  0.00    +0.085 C 
ENDBRANCH  12  14
ENDBRANCH   5   7
BRANCH   1  23
ATOM     20  C1  UNL     1      25.479   6.147  33.013  0.00  0.00    +0.109 C 
ATOM     21  C2  UNL     1      24.202   6.226  33.783  0.00  0.00    +0.214 C 
ATOM     22  O1  UNL     1      23.281   5.400  33.539  0.00  0.00    -0.276 OA
ATOM     23  N1  UNL     1      24.000   7.292  34.722  0.00  0.00    -0.286 N 
ATOM     24  H4  UNL     1      24.654   8.106  34.676  0.00  0.00    +0.155 HD
ENDBRANCH   1  23
BRANCH   4  25
ATOM     25  O2  UNL     1      19.651   7.650  38.313  0.00  0.00    -0.506 OA
ATOM     26  H7  UNL     1      18.829   8.217  38.156  0.00  0.00    +0.292 HD
ENDBRANCH   4  25
TORSDOF 4
ENDMDL
MODEL 4
REMARK VINA RESULT:    -6.177     13.255     16.218
REMARK INTER + INTRA:          -8.138
REMARK INTER:                  -7.646
REMARK INTRA:                  -0.491
REMARK UNBOUND:                -0.696
REMARK  Name = /home/qwerty/github/datacon2025hack/step_04_hit_selection/docking/ligands/lig_636.pdb
REMARK  5 active torsions:
REMARK  status: ('A' for Active; 'I' for Inactive)
REMARK    1  A    between atoms: C1_1  and  C2_2
REMARK    2  A    between atoms: N1_4  and  C3_5
REMARK    3  A    between atoms: C6_8  and  O2_9
REMARK    4  A    between atoms: C7_10  and  C8_11
REMARK    5  A    between atoms: C11_16  and  N3_17
REMARK                            x       y       z     vdW  Elec       q    Type
REMARK                         _______ _______ _______ _____ _____    ______ ____
ROOT
ATOM      1  C3  UNL     1      15.771  -0.715  22.073  0.00  0.00    +0.034 A 
ATOM      2  C4  UNL     1      16.474  -0.784  20.859  0.00  0.00    +0.027 A 
ATOM      3  C5  UNL     1      16.333   0.226  19.904  0.00  0.00    +0.048 A 
ATOM      4  C6  UNL     1      15.485   1.312  20.138  0.00  0.00    +0.129 A 
ATOM      5  C7  UNL     1      14.757   1.382  21.345  0.00  0.00    +0.080 A 
ATOM      6  C18 UNL     1      14.897   0.358  22.295  0.00  0.00    +0.040 A 
ENDROOT
BRANCH   5   7
ATOM      7  C8  UNL     1      13.822   2.489  21.616  0.00  0.00    +0.250 C 
ATOM      8  O3  UNL     1      14.253   3.675  21.583  0.00  0.00    -0.270 OA
ATOM      9  N2  UNL     1      12.437   2.239  21.913  0.00  0.00    -0.296 N 
ATOM     10  C9  UNL     1      11.887   0.926  22.194  0.00  0.00    +0.110 C 
ATOM     11  C10 UNL     1      10.406   1.153  22.456  0.00  0.00    +0.039 C 
ATOM     12  C11 UNL     1      10.257   2.648  22.793  0.00  0.00    +0.075 C 
ATOM     13  C17 UNL     1      11.463   3.300  22.096  0.00  0.00    +0.127 C 
BRANCH  12  14
ATOM     14  N3  UNL     1       8.954   3.208  22.341  0.00  0.00    -0.298 NA
ATOM     15  C12 UNL     1       8.217   3.887  23.448  0.00  0.00    +0.085 C 
ATOM     16  C13 UNL     1       8.433   5.406  23.462  0.00  0.00    +0.015 C 
ATOM     17  C14 UNL     1       7.923   6.049  22.161  0.00  0.00    +0.002 C 
ATOM     18  C15 UNL     1       7.974   5.078  20.971  0.00  0.00    +0.015 C 
ATOM     19  C16 UNL     1       9.118   4.071  21.135  0.00  0.00    +0.085 C 
ENDBRANCH  12  14
ENDBRANCH   5   7
BRANCH   1  23
ATOM     20  C1  UNL     1      17.064  -3.085  24.859  0.00  0.00    +0.109 C 
ATOM     21  C2  UNL     1      16.951  -1.867  24.002  0.00  0.00    +0.214 C 
ATOM     22  O1  UNL     1      17.758  -0.914  24.173  0.00  0.00    -0.276 OA
ATOM     23  N1  UNL     1      15.874  -1.755  23.061  0.00  0.00    -0.286 N 
ATOM     24  H4  UNL     1      15.075  -2.421  23.161  0.00  0.00    +0.155 HD
ENDBRANCH   1  23
BRANCH   4  25
ATOM     25  O2  UNL     1      15.397   2.308  19.163  0.00  0.00    -0.506 OA
ATOM     26  H7  UNL     1      14.568   2.872  19.026  0.00  0.00    +0.292 HD
ENDBRANCH   4  25
TORSDOF 4
ENDMDL
MODEL 5
REMARK VINA RESULT:    -6.158      7.654     12.778
REMARK INTER + INTRA:          -8.114
REMARK INTER:                  -7.449
REMARK INTRA:                  -0.666
REMARK UNBOUND:                -0.696
REMARK  Name = /home/qwerty/github/datacon2025hack/step_04_hit_selection/docking/ligands/lig_636.pdb
REMARK  5 active torsions:
REMARK  status: ('A' for Active; 'I' for Inactive)
REMARK    1  A    between atoms: C1_1  and  C2_2
REMARK    2  A    between atoms: N1_4  and  C3_5
REMARK    3  A    between atoms: C6_8  and  O2_9
REMARK    4  A    between atoms: C7_10  and  C8_11
REMARK    5  A    between atoms: C11_16  and  N3_17
REMARK                            x       y       z     vdW  Elec       q    Type
REMARK                         _______ _______ _______ _____ _____    ______ ____
ROOT
ATOM      1  C3  UNL     1      16.102   1.126  21.376  0.00  0.00    +0.034 A 
ATOM      2  C4  UNL     1      16.234  -0.081  20.669  0.00  0.00    +0.027 A 
ATOM      3  C5  UNL     1      16.793  -1.203  21.285  0.00  0.00    +0.048 A 
ATOM      4  C6  UNL     1      17.237  -1.139  22.609  0.00  0.00    +0.129 A 
ATOM      5  C7  UNL     1      17.129   0.074  23.323  0.00  0.00    +0.080 A 
ATOM      6  C18 UNL     1      16.575   1.199  22.694  0.00  0.00    +0.040 A 
ENDROOT
BRANCH   5   7
ATOM      7  C8  UNL     1      17.620   0.196  24.709  0.00  0.00    +0.250 C 
ATOM      8  O3  UNL     1      16.951  -0.325  25.643  0.00  0.00    -0.270 OA
ATOM      9  N2  UNL     1      18.842   0.895  25.007  0.00  0.00    -0.296 N 
ATOM     10  C9  UNL     1      19.567   1.714  24.053  0.00  0.00    +0.110 C 
ATOM     11  C10 UNL     1      20.772   2.250  24.811  0.00  0.00    +0.039 C 
ATOM     12  C11 UNL     1      20.431   2.111  26.306  0.00  0.00    +0.075 C 
ATOM     13  C17 UNL     1      19.410   0.962  26.342  0.00  0.00    +0.127 C 
BRANCH  12  14
ATOM     14  N3  UNL     1      21.634   1.842  27.143  0.00  0.00    -0.298 NA
ATOM     15  C12 UNL     1      21.910   2.951  28.104  0.00  0.00    +0.085 C 
ATOM     16  C13 UNL     1      21.344   2.679  29.504  0.00  0.00    +0.015 C 
ATOM     17  C14 UNL     1      21.975   1.420  30.121  0.00  0.00    +0.002 C 
ATOM     18  C15 UNL     1      22.434   0.414  29.054  0.00  0.00    +0.015 C 
ATOM     19  C16 UNL     1      21.554   0.506  27.801  0.00  0.00    +0.085 C 
ENDBRANCH  12  14
ENDBRANCH   5   7
BRANCH   1  23
ATOM     20  C1  UNL     1      13.699   3.707  19.759  0.00  0.00    +0.109 C 
ATOM     21  C2  UNL     1      14.154   2.546  20.581  0.00  0.00    +0.214 C 
ATOM     22  O1  UNL     1      13.299   1.838  21.178  0.00  0.00    -0.276 OA
ATOM     23  N1  UNL     1      15.558   2.304  20.756  0.00  0.00    -0.286 N 
ATOM     24  H4  UNL     1      16.216   3.073  20.496  0.00  0.00    +0.155 HD
ENDBRANCH   1  23
BRANCH   4  25
ATOM     25  O2  UNL     1      17.766  -2.294  23.190  0.00  0.00    -0.506 OA
ATOM     26  H7  UNL     1      17.233  -3.146  23.303  0.00  0.00    +0.292 HD
ENDBRANCH   4  25
TORSDOF 4
ENDMDL
MODEL 6
REMARK VINA RESULT:    -6.149      3.481      5.876
REMARK INTER + INTRA:          -8.103
REMARK INTER:                  -7.318
REMARK INTRA:                  -0.786
REMARK UNBOUND:                -0.696
REMARK  Name = /home/qwerty/github/datacon2025hack/step_04_hit_selection/docking/ligands/lig_636.pdb
REMARK  5 active torsions:
REMARK  status: ('A' for Active; 'I' for Inactive)
REMARK    1  A    between atoms: C1_1  and  C2_2
REMARK    2  A    between atoms: N1_4  and  C3_5
REMARK    3  A    between atoms: C6_8  and  O2_9
REMARK    4  A    between atoms: C7_10  and  C8_11
REMARK    5  A    between atoms: C11_16  and  N3_17
REMARK                            x       y       z     vdW  Elec       q    Type
REMARK                         _______ _______ _______ _____ _____    ______ ____
ROOT
ATOM      1  C3  UNL     1      21.716   3.085  33.235  0.00  0.00    +0.034 A 
ATOM      2  C4  UNL     1      20.706   2.213  33.673  0.00  0.00    +0.027 A 
ATOM      3  C5  UNL     1      20.263   1.175  32.850  0.00  0.00    +0.048 A 
ATOM      4  C6  UNL     1      20.811   0.995  31.576  0.00  0.00    +0.129 A 
ATOM      5  C7  UNL     1      21.812   1.877  31.117  0.00  0.00    +0.080 A 
ATOM      6  C18 UNL     1      22.245   2.923  31.946  0.00  0.00    +0.040 A 
ENDROOT
BRANCH   5   7
ATOM      7  C8  UNL     1      22.389   1.747  29.766  0.00  0.00    +0.250 C 
ATOM      8  O3  UNL     1      23.190   0.801  29.532  0.00  0.00    -0.270 OA
ATOM      9  N2  UNL     1      22.053   2.676  28.719  0.00  0.00    -0.296 N 
ATOM     10  C9  UNL     1      21.328   3.915  28.930  0.00  0.00    +0.110 C 
ATOM     11  C10 UNL     1      21.218   4.560  27.557  0.00  0.00    +0.039 C 
ATOM     12  C11 UNL     1      22.307   3.903  26.689  0.00  0.00    +0.075 C 
ATOM     13  C17 UNL     1      22.525   2.533  27.353  0.00  0.00    +0.127 C 
BRANCH  12  14
ATOM     14  N3  UNL     1      21.908   3.795  25.258  0.00  0.00    -0.298 NA
ATOM     15  C12 UNL     1      21.182   2.524  24.969  0.00  0.00    +0.085 C 
ATOM     16  C13 UNL     1      19.657   2.693  24.987  0.00  0.00    +0.015 C 
ATOM     17  C14 UNL     1      19.199   3.692  23.911  0.00  0.00    +0.002 C 
ATOM     18  C15 UNL     1      20.282   4.732  23.582  0.00  0.00    +0.015 C 
ATOM     19  C16 UNL     1      21.166   5.007  24.804  0.00  0.00    +0.085 C 
ENDBRANCH  12  14
ENDBRANCH   5   7
BRANCH   1  23
ATOM     20  C1  UNL     1      22.312   6.616  34.726  0.00  0.00    +0.109 C 
ATOM     21  C2  UNL     1      21.646   5.512  33.974  0.00  0.00    +0.214 C 
ATOM     22  O1  UNL     1      20.580   5.749  33.344  0.00  0.00    -0.276 OA
ATOM     23  N1  UNL     1      22.171   4.179  34.050  0.00  0.00    -0.286 N 
ATOM     24  H4  UNL     1      22.864   3.975  34.805  0.00  0.00    +0.155 HD
ENDBRANCH   1  23
BRANCH   4  25
ATOM     25  O2  UNL     1      20.352  -0.072  30.800  0.00  0.00    -0.506 OA
ATOM     26  H7  UNL     1      19.396  -0.402  30.830  0.00  0.00    +0.292 HD
ENDBRANCH   4  25
TORSDOF 4
ENDMDL
MODEL 7
REMARK VINA RESULT:    -6.144      3.765      6.445
REMARK INTER + INTRA:          -8.098
REMARK INTER:                  -7.259
REMARK INTRA:                  -0.839
REMARK UNBOUND:                -0.696
REMARK  Name = /home/qwerty/github/datacon2025hack/step_04_hit_selection/docking/ligands/lig_636.pdb
REMARK  5 active torsions:
REMARK  status: ('A' for Active; 'I' for Inactive)
REMARK    1  A    between atoms: C1_1  and  C2_2
REMARK    2  A    between atoms: N1_4  and  C3_5
REMARK    3  A    between atoms: C6_8  and  O2_9
REMARK    4  A    between atoms: C7_10  and  C8_11
REMARK    5  A    between atoms: C11_16  and  N3_17
REMARK                            x       y       z     vdW  Elec       q    Type
REMARK                         _______ _______ _______ _____ _____    ______ ____
ROOT
ATOM      1  C3  UNL     1      22.298   3.149  32.418  0.00  0.00    +0.034 A 
ATOM      2  C4  UNL     1      21.323   2.680  33.314  0.00  0.00    +0.027 A 
ATOM      3  C5  UNL     1      20.508   1.599  32.968  0.00  0.00    +0.048 A 
ATOM      4  C6  UNL     1      20.644   0.976  31.724  0.00  0.00    +0.129 A 
ATOM      5  C7  UNL     1      21.606   1.451  30.807  0.00  0.00    +0.080 A 
ATOM      6  C18 UNL     1      22.414   2.543  31.158  0.00  0.00    +0.040 A 
ENDROOT
BRANCH   5   7
ATOM      7  C8  UNL     1      21.757   0.848  29.470  0.00  0.00    +0.250 C 
ATOM      8  O3  UNL     1      22.503  -0.160  29.334  0.00  0.00    -0.270 OA
ATOM      9  N2  UNL     1      21.068   1.387  28.327  0.00  0.00    -0.296 N 
ATOM     10  C9  UNL     1      20.369   2.659  28.322  0.00  0.00    +0.110 C 
ATOM     11  C10 UNL     1      19.814   2.811  26.914  0.00  0.00    +0.039 C 
ATOM     12  C11 UNL     1      20.627   1.850  26.029  0.00  0.00    +0.075 C 
ATOM     13  C17 UNL     1      21.114   0.772  27.013  0.00  0.00    +0.127 C 
BRANCH  12  14
ATOM     14  N3  UNL     1      19.823   1.288  24.908  0.00  0.00    -0.298 NA
ATOM     15  C12 UNL     1      19.235  -0.041  25.247  0.00  0.00    +0.085 C 
ATOM     16  C13 UNL     1      17.783   0.059  25.734  0.00  0.00    +0.015 C 
ATOM     17  C14 UNL     1      16.874   0.656  24.647  0.00  0.00    +0.002 C 
ATOM     18  C15 UNL     1      17.639   1.589  23.695  0.00  0.00    +0.015 C 
ATOM     19  C16 UNL     1      18.810   2.266  24.417  0.00  0.00    +0.085 C 
ENDBRANCH  12  14
ENDBRANCH   5   7
BRANCH   1  23
ATOM     20  C1  UNL     1      23.860   6.697  32.559  0.00  0.00    +0.109 C 
ATOM     21  C2  UNL     1      22.841   5.627  32.344  0.00  0.00    +0.214 C 
ATOM     22  O1  UNL     1      21.705   5.937  31.894  0.00  0.00    -0.276 OA
ATOM     23  N1  UNL     1      23.130   4.278  32.736  0.00  0.00    -0.286 N 
ATOM     24  H4  UNL     1      23.951   4.123  33.365  0.00  0.00    +0.155 HD
ENDBRANCH   1  23
BRANCH   4  25
ATOM     25  O2  UNL     1      19.823  -0.116  31.435  0.00  0.00    -0.506 OA
ATOM     26  H7  UNL     1      18.873  -0.195  31.774  0.00  0.00    +0.292 HD
ENDBRANCH   4  25
TORSDOF 4
ENDMDL
MODEL 8
REMARK VINA RESULT:    -6.049      5.394      8.746
REMARK INTER + INTRA:          -7.983
REMARK INTER:                  -7.487
REMARK INTRA:                  -0.496
REMARK UNBOUND:                -0.696
REMARK  Name = /home/qwerty/github/datacon2025hack/step_04_hit_selection/docking/ligands/lig_636.pdb
REMARK  5 active torsions:
REMARK  status: ('A' for Active; 'I' for Inactive)
REMARK    1  A    between atoms: C1_1  and  C2_2
REMARK    2  A    between atoms: N1_4  and  C3_5
REMARK    3  A    between atoms: C6_8  and  O2_9
REMARK    4  A    between atoms: C7_10  and  C8_11
REMARK    5  A    between atoms: C11_16  and  N3_17
REMARK                            x       y       z     vdW  Elec       q    Type
REMARK                         _______ _______ _______ _____ _____    ______ ____
ROOT
ATOM      1  C3  UNL     1      14.430  12.569  36.848  0.00  0.00    +0.034 A 
ATOM      2  C4  UNL     1      14.278  13.810  36.208  0.00  0.00    +0.027 A 
ATOM      3  C5  UNL     1      15.373  14.433  35.606  0.00  0.00    +0.048 A 
ATOM      4  C6  UNL     1      16.637  13.836  35.640  0.00  0.00    +0.129 A 
ATOM      5  C7  UNL     1      16.807  12.599  36.297  0.00  0.00    +0.080 A 
ATOM      6  C18 UNL     1      15.703  11.984  36.908  0.00  0.00    +0.040 A 
ENDROOT
BRANCH   5   7
ATOM      7  C8  UNL     1      18.130  11.953  36.390  0.00  0.00    +0.250 C 
ATOM      8  O3  UNL     1      19.130  12.652  36.708  0.00  0.00    -0.270 OA
ATOM      9  N2  UNL     1      18.293  10.547  36.127  0.00  0.00    -0.296 N 
ATOM     10  C9  UNL     1      17.267   9.702  35.544  0.00  0.00    +0.110 C 
ATOM     11  C10 UNL     1      17.888   8.317  35.447  0.00  0.00    +0.039 C 
ATOM     12  C11 UNL     1      19.411   8.527  35.528  0.00  0.00    +0.075 C 
ATOM     13  C17 UNL     1      19.556   9.853  36.294  0.00  0.00    +0.127 C 
BRANCH  12  14
ATOM     14  N3  UNL     1      20.109   7.393  36.196  0.00  0.00    -0.298 NA
ATOM     15  C12 UNL     1      21.033   6.676  35.268  0.00  0.00    +0.085 C 
ATOM     16  C13 UNL     1      22.488   7.148  35.395  0.00  0.00    +0.015 C 
ATOM     17  C14 UNL     1      23.031   6.893  36.811  0.00  0.00    +0.002 C 
ATOM     18  C15 UNL     1      21.919   6.897  37.871  0.00  0.00    +0.015 C 
ATOM     19  C16 UNL     1      20.772   7.827  37.459  0.00  0.00    +0.085 C 
ENDBRANCH  12  14
ENDBRANCH   5   7
BRANCH   1  23
ATOM     20  C1  UNL     1      11.058  10.793  37.572  0.00  0.00    +0.109 C 
ATOM     21  C2  UNL     1      12.249  11.271  36.809  0.00  0.00    +0.214 C 
ATOM     22  O1  UNL     1      12.332  11.026  35.575  0.00  0.00    -0.276 OA
ATOM     23  N1  UNL     1      13.326  11.919  37.501  0.00  0.00    -0.286 N 
ATOM     24  H4  UNL     1      13.349  11.836  38.543  0.00  0.00    +0.155 HD
ENDBRANCH   1  23
BRANCH   4  25
ATOM     25  O2  UNL     1      17.696  14.486  35.002  0.00  0.00    -0.506 OA
ATOM     26  H7  UNL     1      18.066  15.373  35.318  0.00  0.00    +0.292 HD
ENDBRANCH   4  25
TORSDOF 4
ENDMDL
MODEL 9
REMARK VINA RESULT:    -5.956     10.746     13.991
REMARK INTER + INTRA:          -7.871
REMARK INTER:                  -7.048
REMARK INTRA:                  -0.822
REMARK UNBOUND:                -0.696
REMARK  Name = /home/qwerty/github/datacon2025hack/step_04_hit_selection/docking/ligands/lig_636.pdb
REMARK  5 active torsions:
REMARK  status: ('A' for Active; 'I' for Inactive)
REMARK    1  A    between atoms: C1_1  and  C2_2
REMARK    2  A    between atoms: N1_4  and  C3_5
REMARK    3  A    between atoms: C6_8  and  O2_9
REMARK    4  A    between atoms: C7_10  and  C8_11
REMARK    5  A    between atoms: C11_16  and  N3_17
REMARK                            x       y       z     vdW  Elec       q    Type
REMARK                         _______ _______ _______ _____ _____    ______ ____
ROOT
ATOM      1  C3  UNL     1      10.429  12.257  29.667  0.00  0.00    +0.034 A 
ATOM      2  C4  UNL     1      10.924  13.006  28.587  0.00  0.00    +0.027 A 
ATOM      3  C5  UNL     1      11.734  14.121  28.814  0.00  0.00    +0.048 A 
ATOM      4  C6  UNL     1      12.055  14.514  30.117  0.00  0.00    +0.129 A 
ATOM      5  C7  UNL     1      11.546  13.781  31.211  0.00  0.00    +0.080 A 
ATOM      6  C18 UNL     1      10.726  12.667  30.974  0.00  0.00    +0.040 A 
ENDROOT
BRANCH   5   7
ATOM      7  C8  UNL     1      11.827  14.183  32.601  0.00  0.00    +0.250 C 
ATOM      8  O3  UNL     1      10.984  14.892  33.216  0.00  0.00    -0.270 OA
ATOM      9  N2  UNL     1      13.040  13.779  33.263  0.00  0.00    -0.296 N 
ATOM     10  C9  UNL     1      14.168  13.159  32.592  0.00  0.00    +0.110 C 
ATOM     11  C10 UNL     1      15.207  12.923  33.678  0.00  0.00    +0.039 C 
ATOM     12  C11 UNL     1      14.828  13.858  34.840  0.00  0.00    +0.075 C 
ATOM     13  C17 UNL     1      13.316  14.073  34.658  0.00  0.00    +0.127 C 
BRANCH  12  14
ATOM     14  N3  UNL     1      15.174  13.284  36.170  0.00  0.00    -0.298 NA
ATOM     15  C12 UNL     1      14.044  12.509  36.761  0.00  0.00    +0.085 C 
ATOM     16  C13 UNL     1      14.160  11.000  36.504  0.00  0.00    +0.015 C 
ATOM     17  C14 UNL     1      15.439  10.428  37.138  0.00  0.00    +0.002 C 
ATOM     18  C15 UNL     1      16.557  11.477  37.245  0.00  0.00    +0.015 C 
ATOM     19  C16 UNL     1      16.448  12.510  36.117  0.00  0.00    +0.085 C 
ENDBRANCH  12  14
ENDBRANCH   5   7
BRANCH   1  23
ATOM     20  C1  UNL     1       7.355   9.895  29.530  0.00  0.00    +0.109 C 
ATOM     21  C2  UNL     1       8.140  11.164  29.573  0.00  0.00    +0.214 C 
ATOM     22  O1  UNL     1       7.531  12.267  29.625  0.00  0.00    -0.276 OA
ATOM     23  N1  UNL     1       9.570  11.122  29.463  0.00  0.00    -0.286 N 
ATOM     24  H4  UNL     1      10.002  10.231  29.129  0.00  0.00    +0.155 HD
ENDBRANCH   1  23
BRANCH   4  25
ATOM     25  O2  UNL     1      12.887  15.621  30.291  0.00  0.00    -0.506 OA
ATOM     26  H7  UNL     1      13.775  15.722  29.816  0.00  0.00    +0.292 HD
ENDBRANCH   4  25
TORSDOF 4
ENDMDL
