MODEL 1
REMARK VINA RESULT:    -5.881      0.000      0.000
REMARK INTER + INTRA:          -8.447
REMARK INTER:                  -7.944
REMARK INTRA:                  -0.503
REMARK UNBOUND:                -0.503
REMARK  Name = /home/qwerty/github/datacon2025hack/step_04_hit_selection/docking/ligands/lig_469.pdb
REMARK  8 active torsions:
REMARK  status: ('A' for Active; 'I' for Inactive)
REMARK    1  A    between atoms: C1_1  and  C2_2
REMARK    2  A    between atoms: C2_2  and  C3_3
REMARK    3  A    between atoms: C2_2  and  N1_4
REMARK    4  A    between atoms: C7_8  and  C8_9
REMARK    5  A    between atoms: N2_11  and  C9_12
REMARK    6  A    between atoms: C9_12  and  C10_13
REMARK    7  A    between atoms: C12_15  and  N3_16
REMARK    8  A    between atoms: C13_17  and  C14_19
REMARK                            x       y       z     vdW  Elec       q    Type
REMARK                         _______ _______ _______ _____ _____    ______ ____
ROOT
ATOM      1  C9  UNL     1      22.655  10.499  30.757  0.00  0.00    +0.108 C 
ENDROOT
BRANCH   1   4
ATOM      2  C8  UNL     1      22.115  12.765  29.726  0.00  0.00    +0.230 C 
ATOM      3  O1  UNL     1      21.062  12.865  30.415  0.00  0.00    -0.274 OA
ATOM      4  N2  UNL     1      22.968  11.620  29.874  0.00  0.00    -0.314 N 
ATOM      5  H15 UNL     1      23.821  11.548  29.275  0.00  0.00    +0.149 HD
BRANCH   2  10
ATOM      6  N1  UNL     1      21.501  14.225  27.754  0.00  0.00    -0.289 NA
ATOM      7  C4  UNL     1      22.258  14.892  26.680  0.00  0.00    +0.085 C 
ATOM      8  C5  UNL     1      23.695  14.381  26.722  0.00  0.00    +0.017 C 
ATOM      9  C6  UNL     1      23.842  13.644  28.042  0.00  0.00    +0.029 C 
ATOM     10  C7  UNL     1      22.517  13.870  28.770  0.00  0.00    +0.143 C 
BRANCH   6  12
ATOM     11  C1  UNL     1      20.781  12.732  25.811  0.00  0.00    +0.024 C 
ATOM     12  C2  UNL     1      20.595  13.131  27.288  0.00  0.00    +0.051 C 
ATOM     13  C3  UNL     1      19.130  13.489  27.572  0.00  0.00    +0.024 C 
ENDBRANCH   6  12
ENDBRANCH   2  10
ENDBRANCH   1   4
BRANCH   1  14
ATOM     14  C10 UNL     1      23.814   9.490  30.763  0.00  0.00    +0.010 C 
ATOM     15  C11 UNL     1      24.777   9.685  31.936  0.00  0.00    +0.027 C 
ATOM     16  C12 UNL     1      24.393   8.307  32.473  0.00  0.00    +0.074 C 
ATOM     17  C17 UNL     1      23.438   8.107  31.299  0.00  0.00    +0.027 C 
BRANCH  16  18
ATOM     18  N3  UNL     1      23.679   8.387  33.751  0.00  0.00    -0.307 N 
ATOM     19  C13 UNL     1      23.711   7.317  34.711  0.00  0.00    +0.266 C 
ATOM     20  O2  UNL     1      24.451   6.313  34.520  0.00  0.00    -0.268 OA
ATOM     21  H22 UNL     1      23.025   9.187  33.911  0.00  0.00    +0.149 HD
BRANCH  19  22
ATOM     22  C14 UNL     1      22.885   7.384  35.926  0.00  0.00    +0.168 A 
ATOM     23  C15 UNL     1      23.045   6.616  37.063  0.00  0.00    +0.077 A 
ATOM     24  C16 UNL     1      22.038   7.051  37.898  0.00  0.00    +0.231 A 
ATOM     25  O3  UNL     1      21.360   7.993  37.280  0.00  0.00    -0.362 OA
ATOM     26  N4  UNL     1      21.841   8.222  36.091  0.00  0.00    -0.074 NA
ENDBRANCH  19  22
ENDBRANCH  16  18
ENDBRANCH   1  14
TORSDOF 6
ENDMDL
MODEL 2
REMARK VINA RESULT:    -5.746      5.877      8.834
REMARK INTER + INTRA:          -8.265
REMARK INTER:                  -7.461
REMARK INTRA:                  -0.805
REMARK UNBOUND:                -0.503
REMARK  Name = /home/qwerty/github/datacon2025hack/step_04_hit_selection/docking/ligands/lig_469.pdb
REMARK  8 active torsions:
REMARK  status: ('A' for Active; 'I' for Inactive)
REMARK    1  A    between atoms: C1_1  and  C2_2
REMARK    2  A    between atoms: C2_2  and  C3_3
REMARK    3  A    between atoms: C2_2  and  N1_4
REMARK    4  A    between atoms: C7_8  and  C8_9
REMARK    5  A    between atoms: N2_11  and  C9_12
REMARK    6  A    between atoms: C9_12  and  C10_13
REMARK    7  A    between atoms: C12_15  and  N3_16
REMARK    8  A    between atoms: C13_17  and  C14_19
REMARK                            x       y       z     vdW  Elec       q    Type
REMARK                         _______ _______ _______ _____ _____    ______ ____
ROOT
ATOM      1  C9  UNL     1      20.994   4.052  33.493  0.00  0.00    +0.108 C 
ENDROOT
BRANCH   1   4
ATOM      2  C8  UNL     1      22.746   5.874  33.814  0.00  0.00    +0.230 C 
ATOM      3  O1  UNL     1      22.924   5.538  35.017  0.00  0.00    -0.274 OA
ATOM      4  N2  UNL     1      21.817   5.151  32.992  0.00  0.00    -0.314 N 
ATOM      5  H15 UNL     1      21.668   5.464  32.006  0.00  0.00    +0.149 HD
BRANCH   2  10
ATOM      6  N1  UNL     1      23.236   8.354  33.750  0.00  0.00    -0.289 NA
ATOM      7  C4  UNL     1      23.701   9.295  32.716  0.00  0.00    +0.085 C 
ATOM      8  C5  UNL     1      23.666   8.578  31.369  0.00  0.00    +0.017 C 
ATOM      9  C6  UNL     1      23.480   7.103  31.682  0.00  0.00    +0.029 C 
ATOM     10  C7  UNL     1      23.541   7.013  33.207  0.00  0.00    +0.143 C 
BRANCH   6  12
ATOM     11  C1  UNL     1      21.094   9.718  33.478  0.00  0.00    +0.024 C 
ATOM     12  C2  UNL     1      21.839   8.594  34.225  0.00  0.00    +0.051 C 
ATOM     13  C3  UNL     1      21.821   8.844  35.739  0.00  0.00    +0.024 C 
ENDBRANCH   6  12
ENDBRANCH   2  10
ENDBRANCH   1   4
BRANCH   1  14
ATOM     14  C10 UNL     1      19.889   3.715  32.481  0.00  0.00    +0.010 C 
ATOM     15  C11 UNL     1      20.339   3.860  31.026  0.00  0.00    +0.027 C 
ATOM     16  C12 UNL     1      20.130   2.361  30.817  0.00  0.00    +0.074 C 
ATOM     17  C17 UNL     1      19.673   2.215  32.267  0.00  0.00    +0.027 C 
BRANCH  16  18
ATOM     18  N3  UNL     1      21.390   1.653  30.567  0.00  0.00    -0.307 N 
ATOM     19  C13 UNL     1      21.644   0.960  29.334  0.00  0.00    +0.266 C 
ATOM     20  O2  UNL     1      20.820   1.034  28.382  0.00  0.00    -0.268 OA
ATOM     21  H22 UNL     1      22.067   1.541  31.357  0.00  0.00    +0.149 HD
BRANCH  19  22
ATOM     22  C14 UNL     1      22.869   0.161  29.169  0.00  0.00    +0.168 A 
ATOM     23  C15 UNL     1      22.928  -1.189  28.885  0.00  0.00    +0.077 A 
ATOM     24  C16 UNL     1      24.279  -1.455  28.834  0.00  0.00    +0.231 A 
ATOM     25  O3  UNL     1      24.934  -0.339  29.071  0.00  0.00    -0.362 OA
ATOM     26  N4  UNL     1      24.119   0.655  29.276  0.00  0.00    -0.074 NA
ENDBRANCH  19  22
ENDBRANCH  16  18
ENDBRANCH   1  14
TORSDOF 6
ENDMDL
MODEL 3
REMARK VINA RESULT:    -5.662     10.083     12.559
REMARK INTER + INTRA:          -8.152
REMARK INTER:                  -6.950
REMARK INTRA:                  -1.202
REMARK UNBOUND:                -0.503
REMARK  Name = /home/qwerty/github/datacon2025hack/step_04_hit_selection/docking/ligands/lig_469.pdb
REMARK  8 active torsions:
REMARK  status: ('A' for Active; 'I' for Inactive)
REMARK    1  A    between atoms: C1_1  and  C2_2
REMARK    2  A    between atoms: C2_2  and  C3_3
REMARK    3  A    between atoms: C2_2  and  N1_4
REMARK    4  A    between atoms: C7_8  and  C8_9
REMARK    5  A    between atoms: N2_11  and  C9_12
REMARK    6  A    between atoms: C9_12  and  C10_13
REMARK    7  A    between atoms: C12_15  and  N3_16
REMARK    8  A    between atoms: C13_17  and  C14_19
REMARK                            x       y       z     vdW  Elec       q    Type
REMARK                         _______ _______ _______ _____ _____    ______ ____
ROOT
ATOM      1  C9  UNL     1      19.335  10.237  19.283  0.00  0.00    +0.108 C 
ENDROOT
BRANCH   1   4
ATOM      2  C8  UNL     1      21.796  10.177  19.940  0.00  0.00    +0.230 C 
ATOM      3  O1  UNL     1      21.503  10.197  21.168  0.00  0.00    -0.274 OA
ATOM      4  N2  UNL     1      20.757  10.165  18.950  0.00  0.00    -0.314 N 
ATOM      5  H15 UNL     1      21.024  10.173  17.940  0.00  0.00    +0.149 HD
BRANCH   2  10
ATOM      6  N1  UNL     1      23.744   8.767  19.156  0.00  0.00    -0.289 NA
ATOM      7  C4  UNL     1      25.210   8.870  19.263  0.00  0.00    +0.085 C 
ATOM      8  C5  UNL     1      25.539   9.992  20.243  0.00  0.00    +0.017 C 
ATOM      9  C6  UNL     1      24.243  10.755  20.460  0.00  0.00    +0.029 C 
ATOM     10  C7  UNL     1      23.244  10.117  19.495  0.00  0.00    +0.143 C 
BRANCH   6  12
ATOM     11  C1  UNL     1      24.033   7.052  21.027  0.00  0.00    +0.024 C 
ATOM     12  C2  UNL     1      23.147   7.615  19.899  0.00  0.00    +0.051 C 
ATOM     13  C3  UNL     1      22.738   6.502  18.924  0.00  0.00    +0.024 C 
ENDBRANCH   6  12
ENDBRANCH   2  10
ENDBRANCH   1   4
BRANCH   1  14
ATOM     14  C10 UNL     1      18.835  11.684  19.151  0.00  0.00    +0.010 C 
ATOM     15  C11 UNL     1      18.655  12.385  20.499  0.00  0.00    +0.027 C 
ATOM     16  C12 UNL     1      19.747  13.384  20.120  0.00  0.00    +0.074 C 
ATOM     17  C17 UNL     1      19.922  12.690  18.770  0.00  0.00    +0.027 C 
BRANCH  16  18
ATOM     18  N3  UNL     1      20.940  13.251  20.962  0.00  0.00    -0.307 N 
ATOM     19  C13 UNL     1      21.402  14.319  21.805  0.00  0.00    +0.266 C 
ATOM     20  O2  UNL     1      20.721  15.375  21.923  0.00  0.00    -0.268 OA
ATOM     21  H22 UNL     1      21.543  12.404  20.846  0.00  0.00    +0.149 HD
BRANCH  19  22
ATOM     22  C14 UNL     1      22.668  14.191  22.542  0.00  0.00    +0.168 A 
ATOM     23  C15 UNL     1      23.931  14.434  22.038  0.00  0.00    +0.077 A 
ATOM     24  C16 UNL     1      24.766  14.173  23.104  0.00  0.00    +0.231 A 
ATOM     25  O3  UNL     1      24.030  13.810  24.132  0.00  0.00    -0.362 OA
ATOM     26  N4  UNL     1      22.762  13.809  23.832  0.00  0.00    -0.074 NA
ENDBRANCH  19  22
ENDBRANCH  16  18
ENDBRANCH   1  14
TORSDOF 6
ENDMDL
MODEL 4
REMARK VINA RESULT:    -5.590     14.688     17.042
REMARK INTER + INTRA:          -8.055
REMARK INTER:                  -7.026
REMARK INTRA:                  -1.029
REMARK UNBOUND:                -0.503
REMARK  Name = /home/qwerty/github/datacon2025hack/step_04_hit_selection/docking/ligands/lig_469.pdb
REMARK  8 active torsions:
REMARK  status: ('A' for Active; 'I' for Inactive)
REMARK    1  A    between atoms: C1_1  and  C2_2
REMARK    2  A    between atoms: C2_2  and  C3_3
REMARK    3  A    between atoms: C2_2  and  N1_4
REMARK    4  A    between atoms: C7_8  and  C8_9
REMARK    5  A    between atoms: N2_11  and  C9_12
REMARK    6  A    between atoms: C9_12  and  C10_13
REMARK    7  A    between atoms: C12_15  and  N3_16
REMARK    8  A    between atoms: C13_17  and  C14_19
REMARK                            x       y       z     vdW  Elec       q    Type
REMARK                         _______ _______ _______ _____ _____    ______ ____
ROOT
ATOM      1  C9  UNL     1      16.520  -0.544  21.187  0.00  0.00    +0.108 C 
ENDROOT
BRANCH   1   4
ATOM      2  C8  UNL     1      17.070  -1.220  23.581  0.00  0.00    +0.230 C 
ATOM      3  O1  UNL     1      17.351  -2.396  23.220  0.00  0.00    -0.274 OA
ATOM      4  N2  UNL     1      16.676  -0.240  22.608  0.00  0.00    -0.314 N 
ATOM      5  H15 UNL     1      16.424   0.720  22.935  0.00  0.00    +0.149 HD
BRANCH   2  10
ATOM      6  N1  UNL     1      16.145  -1.366  25.930  0.00  0.00    -0.289 NA
ATOM      7  C4  UNL     1      16.141  -0.473  27.102  0.00  0.00    +0.085 C 
ATOM      8  C5  UNL     1      16.652   0.895  26.661  0.00  0.00    +0.017 C 
ATOM      9  C6  UNL     1      17.258   0.694  25.282  0.00  0.00    +0.029 C 
ATOM     10  C7  UNL     1      17.186  -0.813  25.037  0.00  0.00    +0.143 C 
BRANCH   6  12
ATOM     11  C1  UNL     1      13.685  -0.683  25.858  0.00  0.00    +0.024 C 
ATOM     12  C2  UNL     1      14.797  -1.613  25.333  0.00  0.00    +0.051 C 
ATOM     13  C3  UNL     1      14.397  -3.085  25.500  0.00  0.00    +0.024 C 
ENDBRANCH   6  12
ENDBRANCH   2  10
ENDBRANCH   1   4
BRANCH   1  14
ATOM     14  C10 UNL     1      16.221   0.743  20.402  0.00  0.00    +0.010 C 
ATOM     15  C11 UNL     1      14.970   0.640  19.529  0.00  0.00    +0.027 C 
ATOM     16  C12 UNL     1      14.303   1.732  20.364  0.00  0.00    +0.074 C 
ATOM     17  C17 UNL     1      15.555   1.842  21.232  0.00  0.00    +0.027 C 
BRANCH  16  18
ATOM     18  N3  UNL     1      13.154   1.229  21.124  0.00  0.00    -0.307 N 
ATOM     19  C13 UNL     1      12.208   2.111  21.750  0.00  0.00    +0.266 C 
ATOM     20  O2  UNL     1      12.285   3.357  21.569  0.00  0.00    -0.268 OA
ATOM     21  H22 UNL     1      13.096   0.204  21.324  0.00  0.00    +0.149 HD
BRANCH  19  22
ATOM     22  C14 UNL     1      11.139   1.570  22.603  0.00  0.00    +0.168 A 
ATOM     23  C15 UNL     1      10.778   2.038  23.852  0.00  0.00    +0.077 A 
ATOM     24  C16 UNL     1       9.744   1.208  24.228  0.00  0.00    +0.231 A 
ATOM     25  O3  UNL     1       9.537   0.336  23.265  0.00  0.00    -0.362 OA
ATOM     26  N4  UNL     1      10.357   0.523  22.270  0.00  0.00    -0.074 NA
ENDBRANCH  19  22
ENDBRANCH  16  18
ENDBRANCH   1  14
TORSDOF 6
ENDMDL
MODEL 5
REMARK VINA RESULT:    -5.582     11.727     14.748
REMARK INTER + INTRA:          -8.043
REMARK INTER:                  -7.409
REMARK INTRA:                  -0.634
REMARK UNBOUND:                -0.503
REMARK  Name = /home/qwerty/github/datacon2025hack/step_04_hit_selection/docking/ligands/lig_469.pdb
REMARK  8 active torsions:
REMARK  status: ('A' for Active; 'I' for Inactive)
REMARK    1  A    between atoms: C1_1  and  C2_2
REMARK    2  A    between atoms: C2_2  and  C3_3
REMARK    3  A    between atoms: C2_2  and  N1_4
REMARK    4  A    between atoms: C7_8  and  C8_9
REMARK    5  A    between atoms: N2_11  and  C9_12
REMARK    6  A    between atoms: C9_12  and  C10_13
REMARK    7  A    between atoms: C12_15  and  N3_16
REMARK    8  A    between atoms: C13_17  and  C14_19
REMARK                            x       y       z     vdW  Elec       q    Type
REMARK                         _______ _______ _______ _____ _____    ______ ____
ROOT
ATOM      1  C9  UNL     1      16.848   0.912  27.221  0.00  0.00    +0.108 C 
ENDROOT
BRANCH   1   4
ATOM      2  C8  UNL     1      18.637   2.020  28.658  0.00  0.00    +0.230 C 
ATOM      3  O1  UNL     1      18.749   2.974  27.840  0.00  0.00    -0.274 OA
ATOM      4  N2  UNL     1      17.682   0.974  28.419  0.00  0.00    -0.314 N 
ATOM      5  H15 UNL     1      17.625   0.181  29.097  0.00  0.00    +0.149 HD
BRANCH   2  10
ATOM      6  N1  UNL     1      20.934   1.913  29.710  0.00  0.00    -0.289 NA
ATOM      7  C4  UNL     1      21.472   1.386  30.976  0.00  0.00    +0.085 C 
ATOM      8  C5  UNL     1      20.379   0.566  31.655  0.00  0.00    +0.017 C 
ATOM      9  C6  UNL     1      19.091   0.891  30.919  0.00  0.00    +0.029 C 
ATOM     10  C7  UNL     1      19.471   1.986  29.923  0.00  0.00    +0.143 C 
BRANCH   6  12
ATOM     11  C1  UNL     1      22.265  -0.053  28.770  0.00  0.00    +0.024 C 
ATOM     12  C2  UNL     1      21.409   1.197  28.487  0.00  0.00    +0.051 C 
ATOM     13  C3  UNL     1      22.151   2.163  27.554  0.00  0.00    +0.024 C 
ENDBRANCH   6  12
ENDBRANCH   2  10
ENDBRANCH   1   4
BRANCH   1  14
ATOM     14  C10 UNL     1      16.849  -0.514  26.648  0.00  0.00    +0.010 C 
ATOM     15  C11 UNL     1      15.538  -0.886  25.953  0.00  0.00    +0.027 C 
ATOM     16  C12 UNL     1      16.284  -1.017  24.626  0.00  0.00    +0.074 C 
ATOM     17  C17 UNL     1      17.595  -0.654  25.320  0.00  0.00    +0.027 C 
BRANCH  16  18
ATOM     18  N3  UNL     1      15.878   0.004  23.656  0.00  0.00    -0.307 N 
ATOM     19  C13 UNL     1      15.795  -0.272  22.248  0.00  0.00    +0.266 C 
ATOM     20  O2  UNL     1      15.969  -1.445  21.818  0.00  0.00    -0.268 OA
ATOM     21  H22 UNL     1      15.772   0.992  23.982  0.00  0.00    +0.149 HD
BRANCH  19  22
ATOM     22  C14 UNL     1      15.501   0.809  21.294  0.00  0.00    +0.168 A 
ATOM     23  C15 UNL     1      16.398   1.751  20.830  0.00  0.00    +0.077 A 
ATOM     24  C16 UNL     1      15.646   2.528  19.975  0.00  0.00    +0.231 A 
ATOM     25  O3  UNL     1      14.417   2.060  19.958  0.00  0.00    -0.362 OA
ATOM     26  N4  UNL     1      14.291   1.025  20.739  0.00  0.00    -0.074 NA
ENDBRANCH  19  22
ENDBRANCH  16  18
ENDBRANCH   1  14
TORSDOF 6
ENDMDL
MODEL 6
REMARK VINA RESULT:    -5.551     15.352     18.170
REMARK INTER + INTRA:          -8.002
REMARK INTER:                  -7.403
REMARK INTRA:                  -0.598
REMARK UNBOUND:                -0.503
REMARK  Name = /home/qwerty/github/datacon2025hack/step_04_hit_selection/docking/ligands/lig_469.pdb
REMARK  8 active torsions:
REMARK  status: ('A' for Active; 'I' for Inactive)
REMARK    1  A    between atoms: C1_1  and  C2_2
REMARK    2  A    between atoms: C2_2  and  C3_3
REMARK    3  A    between atoms: C2_2  and  N1_4
REMARK    4  A    between atoms: C7_8  and  C8_9
REMARK    5  A    between atoms: N2_11  and  C9_12
REMARK    6  A    between atoms: C9_12  and  C10_13
REMARK    7  A    between atoms: C12_15  and  N3_16
REMARK    8  A    between atoms: C13_17  and  C14_19
REMARK                            x       y       z     vdW  Elec       q    Type
REMARK                         _______ _______ _______ _____ _____    ______ ____
ROOT
ATOM      1  C9  UNL     1      12.524   0.822  22.198  0.00  0.00    +0.108 C 
ENDROOT
BRANCH   1   4
ATOM      2  C8  UNL     1      14.793   0.346  23.254  0.00  0.00    +0.230 C 
ATOM      3  O1  UNL     1      14.760   1.433  23.895  0.00  0.00    -0.274 OA
ATOM      4  N2  UNL     1      13.692  -0.030  22.412  0.00  0.00    -0.314 N 
ATOM      5  H15 UNL     1      13.753  -0.922  21.873  0.00  0.00    +0.149 HD
BRANCH   2  10
ATOM      6  N1  UNL     1      15.745  -1.752  24.297  0.00  0.00    -0.289 NA
ATOM      7  C4  UNL     1      17.095  -2.202  24.678  0.00  0.00    +0.085 C 
ATOM      8  C5  UNL     1      18.042  -1.010  24.573  0.00  0.00    +0.017 C 
ATOM      9  C6  UNL     1      17.283   0.065  23.814  0.00  0.00    +0.029 C 
ATOM     10  C7  UNL     1      15.970  -0.598  23.399  0.00  0.00    +0.143 C 
BRANCH   6  12
ATOM     11  C1  UNL     1      15.484  -1.042  26.736  0.00  0.00    +0.024 C 
ATOM     12  C2  UNL     1      14.810  -1.548  25.446  0.00  0.00    +0.051 C 
ATOM     13  C3  UNL     1      14.008  -2.828  25.718  0.00  0.00    +0.024 C 
ENDBRANCH   6  12
ENDBRANCH   2  10
ENDBRANCH   1   4
BRANCH   1  14
ATOM     14  C10 UNL     1      11.407   0.447  23.184  0.00  0.00    +0.010 C 
ATOM     15  C11 UNL     1      10.937   1.624  24.040  0.00  0.00    +0.027 C 
ATOM     16  C12 UNL     1       9.553   1.531  23.399  0.00  0.00    +0.074 C 
ATOM     17  C17 UNL     1      10.018   0.350  22.550  0.00  0.00    +0.027 C 
BRANCH  16  18
ATOM     18  N3  UNL     1       9.239   2.704  22.578  0.00  0.00    -0.307 N 
ATOM     19  C13 UNL     1       8.283   3.693  22.995  0.00  0.00    +0.266 C 
ATOM     20  O2  UNL     1       7.762   3.630  24.142  0.00  0.00    -0.268 OA
ATOM     21  H22 UNL     1       9.625   2.754  21.607  0.00  0.00    +0.149 HD
BRANCH  19  22
ATOM     22  C14 UNL     1       7.907   4.791  22.091  0.00  0.00    +0.168 A 
ATOM     23  C15 UNL     1       7.962   6.140  22.381  0.00  0.00    +0.077 A 
ATOM     24  C16 UNL     1       7.511   6.743  21.226  0.00  0.00    +0.231 A 
ATOM     25  O3  UNL     1       7.222   5.805  20.350  0.00  0.00    -0.362 OA
ATOM     26  N4  UNL     1       7.449   4.618  20.834  0.00  0.00    -0.074 NA
ENDBRANCH  19  22
ENDBRANCH  16  18
ENDBRANCH   1  14
TORSDOF 6
ENDMDL
MODEL 7
REMARK VINA RESULT:    -5.547      6.773      9.835
REMARK INTER + INTRA:          -7.996
REMARK INTER:                  -7.156
REMARK INTRA:                  -0.840
REMARK UNBOUND:                -0.503
REMARK  Name = /home/qwerty/github/datacon2025hack/step_04_hit_selection/docking/ligands/lig_469.pdb
REMARK  8 active torsions:
REMARK  status: ('A' for Active; 'I' for Inactive)
REMARK    1  A    between atoms: C1_1  and  C2_2
REMARK    2  A    between atoms: C2_2  and  C3_3
REMARK    3  A    between atoms: C2_2  and  N1_4
REMARK    4  A    between atoms: C7_8  and  C8_9
REMARK    5  A    between atoms: N2_11  and  C9_12
REMARK    6  A    between atoms: C9_12  and  C10_13
REMARK    7  A    between atoms: C12_15  and  N3_16
REMARK    8  A    between atoms: C13_17  and  C14_19
REMARK                            x       y       z     vdW  Elec       q    Type
REMARK                         _______ _______ _______ _____ _____    ______ ____
ROOT
ATOM      1  C9  UNL     1      19.903   3.916  32.723  0.00  0.00    +0.108 C 
ENDROOT
BRANCH   1   4
ATOM      2  C8  UNL     1      19.978   5.795  34.441  0.00  0.00    +0.230 C 
ATOM      3  O1  UNL     1      19.465   5.053  35.324  0.00  0.00    -0.274 OA
ATOM      4  N2  UNL     1      20.250   5.276  33.130  0.00  0.00    -0.314 N 
ATOM      5  H15 UNL     1      20.652   5.916  32.409  0.00  0.00    +0.149 HD
BRANCH   2  10
ATOM      6  N1  UNL     1      21.811   7.486  34.862  0.00  0.00    -0.289 NA
ATOM      7  C4  UNL     1      21.921   8.723  35.654  0.00  0.00    +0.085 C 
ATOM      8  C5  UNL     1      20.683   8.834  36.540  0.00  0.00    +0.017 C 
ATOM      9  C6  UNL     1      19.697   7.804  36.015  0.00  0.00    +0.029 C 
ATOM     10  C7  UNL     1      20.358   7.226  34.764  0.00  0.00    +0.143 C 
BRANCH   6  12
ATOM     11  C1  UNL     1      23.320   6.598  36.722  0.00  0.00    +0.024 C 
ATOM     12  C2  UNL     1      22.672   6.362  35.343  0.00  0.00    +0.051 C 
ATOM     13  C3  UNL     1      23.738   6.016  34.295  0.00  0.00    +0.024 C 
ENDBRANCH   6  12
ENDBRANCH   2  10
ENDBRANCH   1   4
BRANCH   1  14
ATOM     14  C10 UNL     1      21.131   2.999  32.843  0.00  0.00    +0.010 C 
ATOM     15  C11 UNL     1      20.989   1.695  32.057  0.00  0.00    +0.027 C 
ATOM     16  C12 UNL     1      22.159   2.110  31.166  0.00  0.00    +0.074 C 
ATOM     17  C17 UNL     1      22.307   3.410  31.954  0.00  0.00    +0.027 C 
BRANCH  16  18
ATOM     18  N3  UNL     1      21.744   2.355  29.781  0.00  0.00    -0.307 N 
ATOM     19  C13 UNL     1      22.471   1.824  28.661  0.00  0.00    +0.266 C 
ATOM     20  O2  UNL     1      23.437   1.033  28.847  0.00  0.00    -0.268 OA
ATOM     21  H22 UNL     1      20.975   3.042  29.602  0.00  0.00    +0.149 HD
BRANCH  19  22
ATOM     22  C14 UNL     1      22.094   2.191  27.287  0.00  0.00    +0.168 A 
ATOM     23  C15 UNL     1      22.614   3.239  26.553  0.00  0.00    +0.077 A 
ATOM     24  C16 UNL     1      21.944   3.162  25.351  0.00  0.00    +0.231 A 
ATOM     25  O3  UNL     1      21.108   2.148  25.403  0.00  0.00    -0.362 OA
ATOM     26  N4  UNL     1      21.171   1.539  26.552  0.00  0.00    -0.074 NA
ENDBRANCH  19  22
ENDBRANCH  16  18
ENDBRANCH   1  14
TORSDOF 6
ENDMDL
MODEL 8
REMARK VINA RESULT:    -5.451      5.565      7.567
REMARK INTER + INTRA:          -7.866
REMARK INTER:                  -7.177
REMARK INTRA:                  -0.689
REMARK UNBOUND:                -0.503
REMARK  Name = /home/qwerty/github/datacon2025hack/step_04_hit_selection/docking/ligands/lig_469.pdb
REMARK  8 active torsions:
REMARK  status: ('A' for Active; 'I' for Inactive)
REMARK    1  A    between atoms: C1_1  and  C2_2
REMARK    2  A    between atoms: C2_2  and  C3_3
REMARK    3  A    between atoms: C2_2  and  N1_4
REMARK    4  A    between atoms: C7_8  and  C8_9
REMARK    5  A    between atoms: N2_11  and  C9_12
REMARK    6  A    between atoms: C9_12  and  C10_13
REMARK    7  A    between atoms: C12_15  and  N3_16
REMARK    8  A    between atoms: C13_17  and  C14_19
REMARK                            x       y       z     vdW  Elec       q    Type
REMARK                         _______ _______ _______ _____ _____    ______ ____
ROOT
ATOM      1  C9  UNL     1      21.840   6.551  30.813  0.00  0.00    +0.108 C 
ENDROOT
BRANCH   1   4
ATOM      2  C8  UNL     1      20.857   4.575  29.538  0.00  0.00    +0.230 C 
ATOM      3  O1  UNL     1      20.000   4.376  30.443  0.00  0.00    -0.274 OA
ATOM      4  N2  UNL     1      21.785   5.665  29.652  0.00  0.00    -0.314 N 
ATOM      5  H15 UNL     1      22.502   5.796  28.903  0.00  0.00    +0.149 HD
BRANCH   2  10
ATOM      6  N1  UNL     1      21.190   2.272  28.549  0.00  0.00    -0.289 NA
ATOM      7  C4  UNL     1      21.668   1.758  27.253  0.00  0.00    +0.085 C 
ATOM      8  C5  UNL     1      22.257   2.924  26.465  0.00  0.00    +0.017 C 
ATOM      9  C6  UNL     1      21.822   4.185  27.192  0.00  0.00    +0.029 C 
ATOM     10  C7  UNL     1      20.891   3.700  28.302  0.00  0.00    +0.143 C 
BRANCH   6  12
ATOM     11  C1  UNL     1      23.364   1.190  29.339  0.00  0.00    +0.024 C 
ATOM     12  C2  UNL     1      22.078   1.954  29.709  0.00  0.00    +0.051 C 
ATOM     13  C3  UNL     1      21.295   1.205  30.795  0.00  0.00    +0.024 C 
ENDBRANCH   6  12
ENDBRANCH   2  10
ENDBRANCH   1   4
BRANCH   1  14
ATOM     14  C10 UNL     1      23.100   6.258  31.642  0.00  0.00    +0.010 C 
ATOM     15  C11 UNL     1      23.572   7.457  32.466  0.00  0.00    +0.027 C 
ATOM     16  C12 UNL     1      23.298   6.676  33.751  0.00  0.00    +0.074 C 
ATOM     17  C17 UNL     1      22.834   5.475  32.930  0.00  0.00    +0.027 C 
BRANCH  16  18
ATOM     18  N3  UNL     1      22.204   7.259  34.534  0.00  0.00    -0.307 N 
ATOM     19  C13 UNL     1      22.143   7.141  35.965  0.00  0.00    +0.266 C 
ATOM     20  O2  UNL     1      23.098   6.618  36.601  0.00  0.00    -0.268 OA
ATOM     21  H22 UNL     1      21.381   7.657  34.026  0.00  0.00    +0.149 HD
BRANCH  19  22
ATOM     22  C14 UNL     1      20.969   7.634  36.702  0.00  0.00    +0.168 A 
ATOM     23  C15 UNL     1      20.066   6.861  37.406  0.00  0.00    +0.077 A 
ATOM     24  C16 UNL     1      19.167   7.778  37.904  0.00  0.00    +0.231 A 
ATOM     25  O3  UNL     1      19.533   8.979  37.512  0.00  0.00    -0.362 OA
ATOM     26  N4  UNL     1      20.614   8.932  36.787  0.00  0.00    -0.074 NA
ENDBRANCH  19  22
ENDBRANCH  16  18
ENDBRANCH   1  14
TORSDOF 6
ENDMDL
MODEL 9
REMARK VINA RESULT:    -5.442     13.866     15.849
REMARK INTER + INTRA:          -7.854
REMARK INTER:                  -6.773
REMARK INTRA:                  -1.081
REMARK UNBOUND:                -0.503
REMARK  Name = /home/qwerty/github/datacon2025hack/step_04_hit_selection/docking/ligands/lig_469.pdb
REMARK  8 active torsions:
REMARK  status: ('A' for Active; 'I' for Inactive)
REMARK    1  A    between atoms: C1_1  and  C2_2
REMARK    2  A    between atoms: C2_2  and  C3_3
REMARK    3  A    between atoms: C2_2  and  N1_4
REMARK    4  A    between atoms: C7_8  and  C8_9
REMARK    5  A    between atoms: N2_11  and  C9_12
REMARK    6  A    between atoms: C9_12  and  C10_13
REMARK    7  A    between atoms: C12_15  and  N3_16
REMARK    8  A    between atoms: C13_17  and  C14_19
REMARK                            x       y       z     vdW  Elec       q    Type
REMARK                         _______ _______ _______ _____ _____    ______ ____
ROOT
ATOM      1  C9  UNL     1       8.948   6.651  25.553  0.00  0.00    +0.108 C 
ENDROOT
BRANCH   1   4
ATOM      2  C8  UNL     1       8.574   7.385  23.142  0.00  0.00    +0.230 C 
ATOM      3  O1  UNL     1       8.716   6.203  22.725  0.00  0.00    -0.274 OA
ATOM      4  N2  UNL     1       8.650   7.669  24.548  0.00  0.00    -0.314 N 
ATOM      5  H15 UNL     1       8.554   8.659  24.867  0.00  0.00    +0.149 HD
BRANCH   2  10
ATOM      6  N1  UNL     1       9.412   8.922  21.317  0.00  0.00    -0.289 NA
ATOM      7  C4  UNL     1       9.076  10.286  20.872  0.00  0.00    +0.085 C 
ATOM      8  C5  UNL     1       8.152  10.913  21.912  0.00  0.00    +0.017 C 
ATOM      9  C6  UNL     1       7.697   9.776  22.811  0.00  0.00    +0.029 C 
ATOM     10  C7  UNL     1       8.278   8.513  22.174  0.00  0.00    +0.143 C 
BRANCH   6  12
ATOM     11  C1  UNL     1      11.534  10.107  22.101  0.00  0.00    +0.024 C 
ATOM     12  C2  UNL     1      10.785   8.777  21.890  0.00  0.00    +0.051 C 
ATOM     13  C3  UNL     1      11.622   7.811  21.041  0.00  0.00    +0.024 C 
ENDBRANCH   6  12
ENDBRANCH   2  10
ENDBRANCH   1   4
BRANCH   1  14
ATOM     14  C10 UNL     1       7.993   6.793  26.748  0.00  0.00    +0.010 C 
ATOM     15  C11 UNL     1       8.694   7.245  28.030  0.00  0.00    +0.027 C 
ATOM     16  C12 UNL     1       7.877   8.536  28.017  0.00  0.00    +0.074 C 
ATOM     17  C17 UNL     1       7.170   8.083  26.742  0.00  0.00    +0.027 C 
BRANCH  16  18
ATOM     18  N3  UNL     1       8.710   9.720  27.789  0.00  0.00    -0.307 N 
ATOM     19  C13 UNL     1       8.461  10.969  28.456  0.00  0.00    +0.266 C 
ATOM     20  O2  UNL     1       7.571  11.047  29.347  0.00  0.00    -0.268 OA
ATOM     21  H22 UNL     1       9.423   9.691  27.024  0.00  0.00    +0.149 HD
BRANCH  19  22
ATOM     22  C14 UNL     1       9.244  12.165  28.110  0.00  0.00    +0.168 A 
ATOM     23  C15 UNL     1      10.597  12.203  27.839  0.00  0.00    +0.077 A 
ATOM     24  C16 UNL     1      10.843  13.534  27.579  0.00  0.00    +0.231 A 
ATOM     25  O3  UNL     1       9.714  14.198  27.694  0.00  0.00    -0.362 OA
ATOM     26  N4  UNL     1       8.729  13.408  28.012  0.00  0.00    -0.074 NA
ENDBRANCH  19  22
ENDBRANCH  16  18
ENDBRANCH   1  14
TORSDOF 6
ENDMDL
