MODEL 1
REMARK VINA RESULT:    -6.450      0.000      0.000
REMARK INTER + INTRA:         -10.258
REMARK INTER:                  -8.335
REMARK INTRA:                  -1.922
REMARK UNBOUND:                -1.922
REMARK  Name = /home/qwerty/github/datacon2025hack/step_04_hit_selection/docking/ligands/lig_585.pdb
REMARK  5 active torsions:
REMARK  status: ('A' for Active; 'I' for Inactive)
REMARK    1  A    between atoms: C1_2  and  C8_10
REMARK    2  A    between atoms: N1_3  and  C2_4
REMARK    3  A    between atoms: C13_16  and  C14_17
REMARK    4  A    between atoms: C17_21  and  C18_22
REMARK    5  A    between atoms: C18_22  and  N3_23
REMARK                            x       y       z     vdW  Elec       q    Type
REMARK                         _______ _______ _______ _____ _____    ______ ____
ROOT
ATOM      1  C8  UNL     1       9.971  10.015  24.405  0.00  0.00    +0.046 A 
ATOM      2  C9  UNL     1      10.289  10.069  23.038  0.00  0.00    +0.033 A 
ATOM      3  C10 UNL     1       9.281  10.174  22.076  0.00  0.00    +0.042 A 
ATOM      4 CL1  UNL     1       9.696  10.230  20.372  0.00  0.00    -0.084 Cl
ATOM      5  C11 UNL     1       7.943  10.224  22.469  0.00  0.00    +0.020 A 
ATOM      6  C12 UNL     1       7.609  10.178  23.823  0.00  0.00    +0.011 A 
ATOM      7  C13 UNL     1       8.610  10.083  24.805  0.00  0.00    -0.004 A 
ENDROOT
BRANCH   7   8
ATOM      8  C14 UNL     1       8.211  10.111  26.235  0.00  0.00    +0.001 A 
ATOM      9  C15 UNL     1       7.537   9.024  26.810  0.00  0.00    +0.119 A 
ATOM     10  N2  UNL     1       7.176   9.057  28.119  0.00  0.00    -0.262 NA
ATOM     11  C16 UNL     1       7.440  10.131  28.908  0.00  0.00    +0.115 A 
ATOM     12  C17 UNL     1       8.095  11.253  28.380  0.00  0.00    -0.015 A 
ATOM     13  C24 UNL     1       8.477  11.234  27.033  0.00  0.00    +0.016 A 
BRANCH  12  14
ATOM     14  C18 UNL     1       8.390  12.457  29.250  0.00  0.00    +0.121 C 
BRANCH  14  15
ATOM     15  N3  UNL     1       9.766  12.981  29.101  0.00  0.00    -0.298 NA
ATOM     16  C19 UNL     1      10.315  13.514  30.363  0.00  0.00    +0.085 C 
ATOM     17  C20 UNL     1      11.808  13.817  30.196  0.00  0.00    +0.015 C 
ATOM     18  C21 UNL     1      12.033  14.792  29.036  0.00  0.00    +0.002 C 
ATOM     19  C22 UNL     1      11.366  14.281  27.755  0.00  0.00    +0.015 C 
ATOM     20  C23 UNL     1       9.889  13.964  28.007  0.00  0.00    +0.085 C 
ENDBRANCH  14  15
ENDBRANCH  12  14
ENDBRANCH   7   8
BRANCH   1  22
ATOM     21  O1  UNL     1      11.464   8.666  25.651  0.00  0.00    -0.270 OA
ATOM     22  C1  UNL     1      11.059   9.831  25.389  0.00  0.00    +0.249 C 
ATOM     23  N1  UNL     1      11.664  10.967  26.029  0.00  0.00    -0.281 N 
ATOM     24  H1  UNL     1      11.529  11.911  25.601  0.00  0.00    +0.155 HD
BRANCH  23  25
ATOM     25  C2  UNL     1      12.458  10.884  27.225  0.00  0.00    +0.034 A 
ATOM     26  C3  UNL     1      13.761  11.407  27.223  0.00  0.00    +0.023 A 
ATOM     27  C4  UNL     1      14.542  11.366  28.382  0.00  0.00    +0.002 A 
ATOM     28  C5  UNL     1      14.022  10.817  29.557  0.00  0.00    +0.000 A 
ATOM     29  C6  UNL     1      12.719  10.315  29.576  0.00  0.00    +0.002 A 
ATOM     30  C7  UNL     1      11.935  10.353  28.419  0.00  0.00    +0.023 A 
ENDBRANCH  23  25
ENDBRANCH   1  22
TORSDOF 5
ENDMDL
MODEL 2
REMARK VINA RESULT:    -6.319      4.279      7.753
REMARK INTER + INTRA:         -10.089
REMARK INTER:                  -8.148
REMARK INTRA:                  -1.941
REMARK UNBOUND:                -1.922
REMARK  Name = /home/qwerty/github/datacon2025hack/step_04_hit_selection/docking/ligands/lig_585.pdb
REMARK  5 active torsions:
REMARK  status: ('A' for Active; 'I' for Inactive)
REMARK    1  A    between atoms: C1_2  and  C8_10
REMARK    2  A    between atoms: N1_3  and  C2_4
REMARK    3  A    between atoms: C13_16  and  C14_17
REMARK    4  A    between atoms: C17_21  and  C18_22
REMARK    5  A    between atoms: C18_22  and  N3_23
REMARK                            x       y       z     vdW  Elec       q    Type
REMARK                         _______ _______ _______ _____ _____    ______ ____
ROOT
ATOM      1  C8  UNL     1      11.501  11.819  33.304  0.00  0.00    +0.046 A 
ATOM      2  C9  UNL     1      11.355  11.449  34.652  0.00  0.00    +0.033 A 
ATOM      3  C10 UNL     1      11.105  12.414  35.632  0.00  0.00    +0.042 A 
ATOM      4 CL1  UNL     1      10.936  11.935  37.312  0.00  0.00    -0.084 Cl
ATOM      5  C11 UNL     1      11.002  13.759  35.277  0.00  0.00    +0.020 A 
ATOM      6  C12 UNL     1      11.138  14.144  33.942  0.00  0.00    +0.011 A 
ATOM      7  C13 UNL     1      11.378  13.187  32.942  0.00  0.00    -0.004 A 
ENDROOT
BRANCH   7   8
ATOM      8  C14 UNL     1      11.443  13.634  31.528  0.00  0.00    +0.001 A 
ATOM      9  C15 UNL     1      12.523  14.403  31.071  0.00  0.00    +0.119 A 
ATOM     10  N2  UNL     1      12.575  14.808  29.775  0.00  0.00    -0.262 NA
ATOM     11  C16 UNL     1      11.594  14.498  28.887  0.00  0.00    +0.115 A 
ATOM     12  C17 UNL     1      10.482  13.746  29.295  0.00  0.00    -0.015 A 
ATOM     13  C24 UNL     1      10.415  13.318  30.627  0.00  0.00    +0.016 A 
BRANCH  12  14
ATOM     14  C18 UNL     1       9.381  13.398  28.315  0.00  0.00    +0.121 C 
BRANCH  14  15
ATOM     15  N3  UNL     1       8.928  11.992  28.397  0.00  0.00    -0.298 NA
ATOM     16  C19 UNL     1       8.596  11.420  27.078  0.00  0.00    +0.085 C 
ATOM     17  C20 UNL     1       8.367   9.910  27.207  0.00  0.00    +0.015 C 
ATOM     18  C21 UNL     1       7.266   9.619  28.233  0.00  0.00    +0.002 C 
ATOM     19  C22 UNL     1       7.567  10.307  29.568  0.00  0.00    +0.015 C 
ATOM     20  C23 UNL     1       7.822  11.803  29.357  0.00  0.00    +0.085 C 
ENDBRANCH  14  15
ENDBRANCH  12  14
ENDBRANCH   7   8
BRANCH   1  22
ATOM     21  O1  UNL     1      13.037  10.428  32.163  0.00  0.00    -0.270 OA
ATOM     22  C1  UNL     1      11.835  10.780  32.307  0.00  0.00    +0.249 C 
ATOM     23  N1  UNL     1      10.802  10.164  31.521  0.00  0.00    -0.281 N 
ATOM     24  H1  UNL     1       9.812  10.248  31.845  0.00  0.00    +0.155 HD
BRANCH  23  25
ATOM     25  C2  UNL     1      11.048   9.425  30.313  0.00  0.00    +0.034 A 
ATOM     26  C3  UNL     1      10.561   8.112  30.199  0.00  0.00    +0.023 A 
ATOM     27  C4  UNL     1      10.761   7.383  29.022  0.00  0.00    +0.002 A 
ATOM     28  C5  UNL     1      11.436   7.964  27.945  0.00  0.00    +0.000 A 
ATOM     29  C6  UNL     1      11.904   9.277  28.040  0.00  0.00    +0.002 A 
ATOM     30  C7  UNL     1      11.707  10.008  29.215  0.00  0.00    +0.023 A 
ENDBRANCH  23  25
ENDBRANCH   1  22
TORSDOF 5
ENDMDL
MODEL 3
REMARK VINA RESULT:    -6.211     11.697     13.976
REMARK INTER + INTRA:          -9.949
REMARK INTER:                  -8.021
REMARK INTRA:                  -1.927
REMARK UNBOUND:                -1.922
REMARK  Name = /home/qwerty/github/datacon2025hack/step_04_hit_selection/docking/ligands/lig_585.pdb
REMARK  5 active torsions:
REMARK  status: ('A' for Active; 'I' for Inactive)
REMARK    1  A    between atoms: C1_2  and  C8_10
REMARK    2  A    between atoms: N1_3  and  C2_4
REMARK    3  A    between atoms: C13_16  and  C14_17
REMARK    4  A    between atoms: C17_21  and  C18_22
REMARK    5  A    between atoms: C18_22  and  N3_23
REMARK                            x       y       z     vdW  Elec       q    Type
REMARK                         _______ _______ _______ _____ _____    ______ ____
ROOT
ATOM      1  C8  UNL     1      17.374   0.391  26.567  0.00  0.00    +0.046 A 
ATOM      2  C9  UNL     1      16.281  -0.473  26.380  0.00  0.00    +0.033 A 
ATOM      3  C10 UNL     1      16.360  -1.535  25.476  0.00  0.00    +0.042 A 
ATOM      4 CL1  UNL     1      14.981  -2.597  25.248  0.00  0.00    -0.084 Cl
ATOM      5  C11 UNL     1      17.530  -1.745  24.746  0.00  0.00    +0.020 A 
ATOM      6  C12 UNL     1      18.627  -0.902  24.923  0.00  0.00    +0.011 A 
ATOM      7  C13 UNL     1      18.571   0.165  25.836  0.00  0.00    -0.004 A 
ENDROOT
BRANCH   7   8
ATOM      8  C14 UNL     1      19.787   0.991  26.044  0.00  0.00    +0.001 A 
ATOM      9  C15 UNL     1      20.244   1.854  25.038  0.00  0.00    +0.119 A 
ATOM     10  N2  UNL     1      21.358   2.607  25.237  0.00  0.00    -0.262 NA
ATOM     11  C16 UNL     1      22.066   2.547  26.395  0.00  0.00    +0.115 A 
ATOM     12  C17 UNL     1      21.664   1.687  27.427  0.00  0.00    -0.015 A 
ATOM     13  C24 UNL     1      20.516   0.906  27.240  0.00  0.00    +0.016 A 
BRANCH  12  14
ATOM     14  C18 UNL     1      22.449   1.609  28.720  0.00  0.00    +0.121 C 
BRANCH  14  15
ATOM     15  N3  UNL     1      21.606   1.640  29.936  0.00  0.00    -0.298 NA
ATOM     16  C19 UNL     1      22.232   2.381  31.048  0.00  0.00    +0.085 C 
ATOM     17  C20 UNL     1      21.219   2.577  32.180  0.00  0.00    +0.015 C 
ATOM     18  C21 UNL     1      20.670   1.226  32.651  0.00  0.00    +0.002 C 
ATOM     19  C22 UNL     1      20.119   0.418  31.472  0.00  0.00    +0.015 C 
ATOM     20  C23 UNL     1      21.171   0.296  30.365  0.00  0.00    +0.085 C 
ENDBRANCH  14  15
ENDBRANCH  12  14
ENDBRANCH   7   8
BRANCH   1  22
ATOM     21  O1  UNL     1      16.723   2.615  27.043  0.00  0.00    -0.270 OA
ATOM     22  C1  UNL     1      17.229   1.546  27.478  0.00  0.00    +0.249 C 
ATOM     23  N1  UNL     1      17.644   1.449  28.851  0.00  0.00    -0.281 N 
ATOM     24  H1  UNL     1      17.784   0.499  29.263  0.00  0.00    +0.155 HD
BRANCH  23  25
ATOM     25  C2  UNL     1      17.871   2.586  29.701  0.00  0.00    +0.034 A 
ATOM     26  C3  UNL     1      17.208   2.663  30.937  0.00  0.00    +0.023 A 
ATOM     27  C4  UNL     1      17.435   3.744  31.796  0.00  0.00    +0.002 A 
ATOM     28  C5  UNL     1      18.336   4.748  31.433  0.00  0.00    +0.000 A 
ATOM     29  C6  UNL     1      19.018   4.669  30.217  0.00  0.00    +0.002 A 
ATOM     30  C7  UNL     1      18.793   3.591  29.355  0.00  0.00    +0.023 A 
ENDBRANCH  23  25
ENDBRANCH   1  22
TORSDOF 5
ENDMDL
MODEL 4
REMARK VINA RESULT:    -6.151     12.209     14.491
REMARK INTER + INTRA:          -9.871
REMARK INTER:                  -8.039
REMARK INTRA:                  -1.832
REMARK UNBOUND:                -1.922
REMARK  Name = /home/qwerty/github/datacon2025hack/step_04_hit_selection/docking/ligands/lig_585.pdb
REMARK  5 active torsions:
REMARK  status: ('A' for Active; 'I' for Inactive)
REMARK    1  A    between atoms: C1_2  and  C8_10
REMARK    2  A    between atoms: N1_3  and  C2_4
REMARK    3  A    between atoms: C13_16  and  C14_17
REMARK    4  A    between atoms: C17_21  and  C18_22
REMARK    5  A    between atoms: C18_22  and  N3_23
REMARK                            x       y       z     vdW  Elec       q    Type
REMARK                         _______ _______ _______ _____ _____    ______ ____
ROOT
ATOM      1  C8  UNL     1      20.850   1.935  30.685  0.00  0.00    +0.046 A 
ATOM      2  C9  UNL     1      21.245   0.622  30.375  0.00  0.00    +0.033 A 
ATOM      3  C10 UNL     1      22.065   0.368  29.272  0.00  0.00    +0.042 A 
ATOM      4 CL1  UNL     1      22.539  -1.279  28.894  0.00  0.00    -0.084 Cl
ATOM      5  C11 UNL     1      22.497   1.420  28.465  0.00  0.00    +0.020 A 
ATOM      6  C12 UNL     1      22.121   2.731  28.762  0.00  0.00    +0.011 A 
ATOM      7  C13 UNL     1      21.306   3.008  29.873  0.00  0.00    -0.004 A 
ENDROOT
BRANCH   7   8
ATOM      8  C14 UNL     1      20.992   4.423  30.191  0.00  0.00    +0.001 A 
ATOM      9  C15 UNL     1      19.837   5.031  29.678  0.00  0.00    +0.119 A 
ATOM     10  N2  UNL     1      19.556   6.327  29.974  0.00  0.00    -0.262 NA
ATOM     11  C16 UNL     1      20.374   7.076  30.759  0.00  0.00    +0.115 A 
ATOM     12  C17 UNL     1      21.551   6.524  31.285  0.00  0.00    -0.015 A 
ATOM     13  C24 UNL     1      21.854   5.188  30.991  0.00  0.00    +0.016 A 
BRANCH  12  14
ATOM     14  C18 UNL     1      22.472   7.351  32.157  0.00  0.00    +0.121 C 
BRANCH  14  15
ATOM     15  N3  UNL     1      22.438   6.977  33.588  0.00  0.00    -0.298 NA
ATOM     16  C19 UNL     1      21.647   7.917  34.407  0.00  0.00    +0.085 C 
ATOM     17  C20 UNL     1      21.456   7.347  35.816  0.00  0.00    +0.015 C 
ATOM     18  C21 UNL     1      22.812   7.050  36.465  0.00  0.00    +0.002 C 
ATOM     19  C22 UNL     1      23.669   6.161  35.558  0.00  0.00    +0.015 C 
ATOM     20  C23 UNL     1      23.784   6.772  34.158  0.00  0.00    +0.085 C 
ENDBRANCH  14  15
ENDBRANCH  12  14
ENDBRANCH   7   8
BRANCH   1  22
ATOM     21  O1  UNL     1      18.681   2.122  31.612  0.00  0.00    -0.270 OA
ATOM     22  C1  UNL     1      19.925   2.159  31.816  0.00  0.00    +0.249 C 
ATOM     23  N1  UNL     1      20.434   2.398  33.139  0.00  0.00    -0.281 N 
ATOM     24  H1  UNL     1      21.425   2.142  33.345  0.00  0.00    +0.155 HD
BRANCH  23  25
ATOM     25  C2  UNL     1      19.654   2.962  34.207  0.00  0.00    +0.034 A 
ATOM     26  C3  UNL     1      19.563   4.359  34.327  0.00  0.00    +0.023 A 
ATOM     27  C4  UNL     1      18.786   4.933  35.339  0.00  0.00    +0.002 A 
ATOM     28  C5  UNL     1      18.082   4.117  36.228  0.00  0.00    +0.000 A 
ATOM     29  C6  UNL     1      18.147   2.728  36.103  0.00  0.00    +0.002 A 
ATOM     30  C7  UNL     1      18.924   2.150  35.094  0.00  0.00    +0.023 A 
ENDBRANCH  23  25
ENDBRANCH   1  22
TORSDOF 5
ENDMDL
MODEL 5
REMARK VINA RESULT:    -5.842      4.098      6.141
REMARK INTER + INTRA:          -9.472
REMARK INTER:                  -8.435
REMARK INTRA:                  -1.036
REMARK UNBOUND:                -1.922
REMARK  Name = /home/qwerty/github/datacon2025hack/step_04_hit_selection/docking/ligands/lig_585.pdb
REMARK  5 active torsions:
REMARK  status: ('A' for Active; 'I' for Inactive)
REMARK    1  A    between atoms: C1_2  and  C8_10
REMARK    2  A    between atoms: N1_3  and  C2_4
REMARK    3  A    between atoms: C13_16  and  C14_17
REMARK    4  A    between atoms: C17_21  and  C18_22
REMARK    5  A    between atoms: C18_22  and  N3_23
REMARK                            x       y       z     vdW  Elec       q    Type
REMARK                         _______ _______ _______ _____ _____    ______ ____
ROOT
ATOM      1  C8  UNL     1      10.728  11.939  28.237  0.00  0.00    +0.046 A 
ATOM      2  C9  UNL     1      10.057  11.459  27.099  0.00  0.00    +0.033 A 
ATOM      3  C10 UNL     1       8.787  10.886  27.212  0.00  0.00    +0.042 A 
ATOM      4 CL1  UNL     1       7.968  10.282  25.782  0.00  0.00    -0.084 Cl
ATOM      5  C11 UNL     1       8.176  10.781  28.462  0.00  0.00    +0.020 A 
ATOM      6  C12 UNL     1       8.826  11.259  29.601  0.00  0.00    +0.011 A 
ATOM      7  C13 UNL     1      10.097  11.849  29.506  0.00  0.00    -0.004 A 
ENDROOT
BRANCH   7   8
ATOM      8  C14 UNL     1      10.717  12.408  30.734  0.00  0.00    +0.001 A 
ATOM      9  C15 UNL     1      10.729  13.792  30.961  0.00  0.00    +0.119 A 
ATOM     10  N2  UNL     1      11.298  14.295  32.088  0.00  0.00    -0.262 NA
ATOM     11  C16 UNL     1      11.877  13.493  33.019  0.00  0.00    +0.115 A 
ATOM     12  C17 UNL     1      11.909  12.103  32.833  0.00  0.00    -0.015 A 
ATOM     13  C24 UNL     1      11.324  11.567  31.678  0.00  0.00    +0.016 A 
BRANCH  12  14
ATOM     14  C18 UNL     1      12.556  11.199  33.862  0.00  0.00    +0.121 C 
BRANCH  14  15
ATOM     15  N3  UNL     1      11.748  11.011  35.087  0.00  0.00    -0.298 NA
ATOM     16  C19 UNL     1      12.015  12.039  36.112  0.00  0.00    +0.085 C 
ATOM     17  C20 UNL     1      10.986  11.929  37.243  0.00  0.00    +0.015 C 
ATOM     18  C21 UNL     1      11.003  10.521  37.849  0.00  0.00    +0.002 C 
ATOM     19  C22 UNL     1      10.832   9.455  36.761  0.00  0.00    +0.015 C 
ATOM     20  C23 UNL     1      11.867   9.652  35.648  0.00  0.00    +0.085 C 
ENDBRANCH  14  15
ENDBRANCH  12  14
ENDBRANCH   7   8
BRANCH   1  22
ATOM     21  O1  UNL     1      13.077  11.680  28.115  0.00  0.00    -0.270 OA
ATOM     22  C1  UNL     1      12.099  12.474  28.089  0.00  0.00    +0.249 C 
ATOM     23  N1  UNL     1      12.316  13.883  27.899  0.00  0.00    -0.281 N 
ATOM     24  H1  UNL     1      11.510  14.474  27.594  0.00  0.00    +0.155 HD
BRANCH  23  25
ATOM     25  C2  UNL     1      13.584  14.531  28.096  0.00  0.00    +0.034 A 
ATOM     26  C3  UNL     1      14.283  15.025  26.983  0.00  0.00    +0.023 A 
ATOM     27  C4  UNL     1      15.504  15.686  27.150  0.00  0.00    +0.002 A 
ATOM     28  C5  UNL     1      16.028  15.873  28.432  0.00  0.00    +0.000 A 
ATOM     29  C6  UNL     1      15.329  15.406  29.548  0.00  0.00    +0.002 A 
ATOM     30  C7  UNL     1      14.109  14.743  29.384  0.00  0.00    +0.023 A 
ENDBRANCH  23  25
ENDBRANCH   1  22
TORSDOF 5
ENDMDL
MODEL 6
REMARK VINA RESULT:    -5.786      4.116      6.036
REMARK INTER + INTRA:          -9.400
REMARK INTER:                  -7.537
REMARK INTRA:                  -1.863
REMARK UNBOUND:                -1.922
REMARK  Name = /home/qwerty/github/datacon2025hack/step_04_hit_selection/docking/ligands/lig_585.pdb
REMARK  5 active torsions:
REMARK  status: ('A' for Active; 'I' for Inactive)
REMARK    1  A    between atoms: C1_2  and  C8_10
REMARK    2  A    between atoms: N1_3  and  C2_4
REMARK    3  A    between atoms: C13_16  and  C14_17
REMARK    4  A    between atoms: C17_21  and  C18_22
REMARK    5  A    between atoms: C18_22  and  N3_23
REMARK                            x       y       z     vdW  Elec       q    Type
REMARK                         _______ _______ _______ _____ _____    ______ ____
ROOT
ATOM      1  C8  UNL     1      10.688  13.044  28.934  0.00  0.00    +0.046 A 
ATOM      2  C9  UNL     1       9.826  13.800  28.121  0.00  0.00    +0.033 A 
ATOM      3  C10 UNL     1       8.456  13.527  28.090  0.00  0.00    +0.042 A 
ATOM      4 CL1  UNL     1       7.395  14.473  27.060  0.00  0.00    -0.084 Cl
ATOM      5  C11 UNL     1       7.932  12.494  28.868  0.00  0.00    +0.020 A 
ATOM      6  C12 UNL     1       8.772  11.738  29.687  0.00  0.00    +0.011 A 
ATOM      7  C13 UNL     1      10.150  12.006  29.739  0.00  0.00    -0.004 A 
ENDROOT
BRANCH   7   8
ATOM      8  C14 UNL     1      10.993  11.224  30.679  0.00  0.00    +0.001 A 
ATOM      9  C15 UNL     1      11.606  10.032  30.265  0.00  0.00    +0.119 A 
ATOM     10  N2  UNL     1      12.376   9.322  31.131  0.00  0.00    -0.262 NA
ATOM     11  C16 UNL     1      12.572   9.727  32.414  0.00  0.00    +0.115 A 
ATOM     12  C17 UNL     1      11.968  10.902  32.885  0.00  0.00    -0.015 A 
ATOM     13  C24 UNL     1      11.173  11.647  32.004  0.00  0.00    +0.016 A 
BRANCH  12  14
ATOM     14  C18 UNL     1      12.176  11.360  34.314  0.00  0.00    +0.121 C 
BRANCH  14  15
ATOM     15  N3  UNL     1      13.146  12.468  34.452  0.00  0.00    -0.298 NA
ATOM     16  C19 UNL     1      14.457  12.020  34.961  0.00  0.00    +0.085 C 
ATOM     17  C20 UNL     1      15.476  13.160  34.855  0.00  0.00    +0.015 C 
ATOM     18  C21 UNL     1      14.979  14.397  35.611  0.00  0.00    +0.002 C 
ATOM     19  C22 UNL     1      13.571  14.790  35.150  0.00  0.00    +0.015 C 
ATOM     20  C23 UNL     1      12.619  13.594  35.247  0.00  0.00    +0.085 C 
ENDBRANCH  14  15
ENDBRANCH  12  14
ENDBRANCH   7   8
BRANCH   1  22
ATOM     21  O1  UNL     1      12.847  12.741  28.015  0.00  0.00    -0.270 OA
ATOM     22  C1  UNL     1      12.141  13.316  28.886  0.00  0.00    +0.249 C 
ATOM     23  N1  UNL     1      12.741  14.237  29.812  0.00  0.00    -0.281 N 
ATOM     24  H1  UNL     1      12.122  14.908  30.320  0.00  0.00    +0.155 HD
BRANCH  23  25
ATOM     25  C2  UNL     1      14.153  14.300  30.076  0.00  0.00    +0.034 A 
ATOM     26  C3  UNL     1      14.719  13.413  31.006  0.00  0.00    +0.023 A 
ATOM     27  C4  UNL     1      16.094  13.434  31.258  0.00  0.00    +0.002 A 
ATOM     28  C5  UNL     1      16.918  14.330  30.572  0.00  0.00    +0.000 A 
ATOM     29  C6  UNL     1      16.369  15.201  29.628  0.00  0.00    +0.002 A 
ATOM     30  C7  UNL     1      14.994  15.185  29.374  0.00  0.00    +0.023 A 
ENDBRANCH  23  25
ENDBRANCH   1  22
TORSDOF 5
ENDMDL
MODEL 7
REMARK VINA RESULT:    -5.778      2.990      6.979
REMARK INTER + INTRA:          -9.389
REMARK INTER:                  -7.617
REMARK INTRA:                  -1.773
REMARK UNBOUND:                -1.922
REMARK  Name = /home/qwerty/github/datacon2025hack/step_04_hit_selection/docking/ligands/lig_585.pdb
REMARK  5 active torsions:
REMARK  status: ('A' for Active; 'I' for Inactive)
REMARK    1  A    between atoms: C1_2  and  C8_10
REMARK    2  A    between atoms: N1_3  and  C2_4
REMARK    3  A    between atoms: C13_16  and  C14_17
REMARK    4  A    between atoms: C17_21  and  C18_22
REMARK    5  A    between atoms: C18_22  and  N3_23
REMARK                            x       y       z     vdW  Elec       q    Type
REMARK                         _______ _______ _______ _____ _____    ______ ____
ROOT
ATOM      1  C8  UNL     1       8.890  10.963  28.465  0.00  0.00    +0.046 A 
ATOM      2  C9  UNL     1       7.958  11.784  29.122  0.00  0.00    +0.033 A 
ATOM      3  C10 UNL     1       8.144  13.168  29.177  0.00  0.00    +0.042 A 
ATOM      4 CL1  UNL     1       6.975  14.177  30.011  0.00  0.00    -0.084 Cl
ATOM      5  C11 UNL     1       9.264  13.746  28.580  0.00  0.00    +0.020 A 
ATOM      6  C12 UNL     1      10.196  12.947  27.917  0.00  0.00    +0.011 A 
ATOM      7  C13 UNL     1      10.020  11.555  27.841  0.00  0.00    -0.004 A 
ENDROOT
BRANCH   7   8
ATOM      8  C14 UNL     1      10.999  10.753  27.064  0.00  0.00    +0.001 A 
ATOM      9  C15 UNL     1      12.156  10.249  27.677  0.00  0.00    +0.119 A 
ATOM     10  N2  UNL     1      13.046   9.517  26.959  0.00  0.00    -0.262 NA
ATOM     11  C16 UNL     1      12.860   9.255  25.638  0.00  0.00    +0.115 A 
ATOM     12  C17 UNL     1      11.730   9.750  24.972  0.00  0.00    -0.015 A 
ATOM     13  C24 UNL     1      10.800  10.505  25.698  0.00  0.00    +0.016 A 
BRANCH  12  14
ATOM     14  C18 UNL     1      11.515   9.468  23.499  0.00  0.00    +0.121 C 
BRANCH  14  15
ATOM     15  N3  UNL     1      10.144   9.019  23.169  0.00  0.00    -0.298 NA
ATOM     16  C19 UNL     1      10.107   7.647  22.625  0.00  0.00    +0.085 C 
ATOM     17  C20 UNL     1       8.656   7.162  22.531  0.00  0.00    +0.015 C 
ATOM     18  C21 UNL     1       7.823   8.123  21.676  0.00  0.00    +0.002 C 
ATOM     19  C22 UNL     1       7.954   9.562  22.185  0.00  0.00    +0.015 C 
ATOM     20  C23 UNL     1       9.428   9.963  22.290  0.00  0.00    +0.085 C 
ENDBRANCH  14  15
ENDBRANCH  12  14
ENDBRANCH   7   8
BRANCH   1  22
ATOM     21  O1  UNL     1       9.319   8.807  29.342  0.00  0.00    -0.270 OA
ATOM     22  C1  UNL     1       8.698   9.497  28.489  0.00  0.00    +0.249 C 
ATOM     23  N1  UNL     1       7.799   8.863  27.563  0.00  0.00    -0.281 N 
ATOM     24  H1  UNL     1       7.090   9.455  27.073  0.00  0.00    +0.155 HD
BRANCH  23  25
ATOM     25  C2  UNL     1       7.808   7.455  27.274  0.00  0.00    +0.034 A 
ATOM     26  C3  UNL     1       8.581   6.978  26.204  0.00  0.00    +0.023 A 
ATOM     27  C4  UNL     1       8.631   5.609  25.921  0.00  0.00    +0.002 A 
ATOM     28  C5  UNL     1       7.922   4.705  26.715  0.00  0.00    +0.000 A 
ATOM     29  C6  UNL     1       7.168   5.166  27.796  0.00  0.00    +0.002 A 
ATOM     30  C7  UNL     1       7.114   6.534  28.081  0.00  0.00    +0.023 A 
ENDBRANCH  23  25
ENDBRANCH   1  22
TORSDOF 5
ENDMDL
MODEL 8
REMARK VINA RESULT:    -5.748     11.582     14.709
REMARK INTER + INTRA:          -9.351
REMARK INTER:                  -7.952
REMARK INTRA:                  -1.399
REMARK UNBOUND:                -1.922
REMARK  Name = /home/qwerty/github/datacon2025hack/step_04_hit_selection/docking/ligands/lig_585.pdb
REMARK  5 active torsions:
REMARK  status: ('A' for Active; 'I' for Inactive)
REMARK    1  A    between atoms: C1_2  and  C8_10
REMARK    2  A    between atoms: N1_3  and  C2_4
REMARK    3  A    between atoms: C13_16  and  C14_17
REMARK    4  A    between atoms: C17_21  and  C18_22
REMARK    5  A    between atoms: C18_22  and  N3_23
REMARK                            x       y       z     vdW  Elec       q    Type
REMARK                         _______ _______ _______ _____ _____    ______ ____
ROOT
ATOM      1  C8  UNL     1      18.020   7.540  36.930  0.00  0.00    +0.046 A 
ATOM      2  C9  UNL     1      16.654   7.329  37.187  0.00  0.00    +0.033 A 
ATOM      3  C10 UNL     1      16.171   6.045  37.451  0.00  0.00    +0.042 A 
ATOM      4 CL1  UNL     1      14.460   5.798  37.759  0.00  0.00    -0.084 Cl
ATOM      5  C11 UNL     1      17.043   4.957  37.457  0.00  0.00    +0.020 A 
ATOM      6  C12 UNL     1      18.404   5.149  37.211  0.00  0.00    +0.011 A 
ATOM      7  C13 UNL     1      18.911   6.435  36.955  0.00  0.00    -0.004 A 
ENDROOT
BRANCH   7   8
ATOM      8  C14 UNL     1      20.375   6.600  36.771  0.00  0.00    +0.001 A 
ATOM      9  C15 UNL     1      21.205   6.877  37.866  0.00  0.00    +0.119 A 
ATOM     10  N2  UNL     1      22.544   7.026  37.689  0.00  0.00    -0.262 NA
ATOM     11  C16 UNL     1      23.121   6.924  36.463  0.00  0.00    +0.115 A 
ATOM     12  C17 UNL     1      22.335   6.666  35.331  0.00  0.00    -0.015 A 
ATOM     13  C24 UNL     1      20.953   6.507  35.496  0.00  0.00    +0.016 A 
BRANCH  12  14
ATOM     14  C18 UNL     1      22.966   6.555  33.959  0.00  0.00    +0.121 C 
BRANCH  14  15
ATOM     15  N3  UNL     1      23.375   7.855  33.381  0.00  0.00    -0.298 NA
ATOM     16  C19 UNL     1      22.497   8.293  32.278  0.00  0.00    +0.085 C 
ATOM     17  C20 UNL     1      22.827   9.738  31.890  0.00  0.00    +0.015 C 
ATOM     18  C21 UNL     1      24.306   9.867  31.508  0.00  0.00    +0.002 C 
ATOM     19  C22 UNL     1      25.207   9.310  32.615  0.00  0.00    +0.015 C 
ATOM     20  C23 UNL     1      24.794   7.880  32.977  0.00  0.00    +0.085 C 
ENDBRANCH  14  15
ENDBRANCH  12  14
ENDBRANCH   7   8
BRANCH   1  22
ATOM     21  O1  UNL     1      18.891   9.665  37.503  0.00  0.00    -0.270 OA
ATOM     22  C1  UNL     1      18.484   8.902  36.586  0.00  0.00    +0.249 C 
ATOM     23  N1  UNL     1      18.487   9.347  35.219  0.00  0.00    -0.281 N 
ATOM     24  H1  UNL     1      18.428   8.630  34.461  0.00  0.00    +0.155 HD
BRANCH  23  25
ATOM     25  C2  UNL     1      18.577  10.727  34.827  0.00  0.00    +0.034 A 
ATOM     26  C3  UNL     1      17.410  11.506  34.781  0.00  0.00    +0.023 A 
ATOM     27  C4  UNL     1      17.474  12.859  34.432  0.00  0.00    +0.002 A 
ATOM     28  C5  UNL     1      18.708  13.448  34.142  0.00  0.00    +0.000 A 
ATOM     29  C6  UNL     1      19.878  12.688  34.207  0.00  0.00    +0.002 A 
ATOM     30  C7  UNL     1      19.817  11.335  34.554  0.00  0.00    +0.023 A 
ENDBRANCH  23  25
ENDBRANCH   1  22
TORSDOF 5
ENDMDL
MODEL 9
REMARK VINA RESULT:    -5.736     11.374     14.983
REMARK INTER + INTRA:          -9.336
REMARK INTER:                  -7.554
REMARK INTRA:                  -1.781
REMARK UNBOUND:                -1.922
REMARK  Name = /home/qwerty/github/datacon2025hack/step_04_hit_selection/docking/ligands/lig_585.pdb
REMARK  5 active torsions:
REMARK  status: ('A' for Active; 'I' for Inactive)
REMARK    1  A    between atoms: C1_2  and  C8_10
REMARK    2  A    between atoms: N1_3  and  C2_4
REMARK    3  A    between atoms: C13_16  and  C14_17
REMARK    4  A    between atoms: C17_21  and  C18_22
REMARK    5  A    between atoms: C18_22  and  N3_23
REMARK                            x       y       z     vdW  Elec       q    Type
REMARK                         _______ _______ _______ _____ _____    ______ ____
ROOT
ATOM      1  C8  UNL     1      22.163   5.974  31.225  0.00  0.00    +0.046 A 
ATOM      2  C9  UNL     1      22.902   7.141  31.486  0.00  0.00    +0.033 A 
ATOM      3  C10 UNL     1      23.919   7.138  32.444  0.00  0.00    +0.042 A 
ATOM      4 CL1  UNL     1      24.826   8.607  32.764  0.00  0.00    -0.084 Cl
ATOM      5  C11 UNL     1      24.208   5.973  33.154  0.00  0.00    +0.020 A 
ATOM      6  C12 UNL     1      23.489   4.804  32.903  0.00  0.00    +0.011 A 
ATOM      7  C13 UNL     1      22.469   4.784  31.936  0.00  0.00    -0.004 A 
ENDROOT
BRANCH   7   8
ATOM      8  C14 UNL     1      21.781   3.499  31.652  0.00  0.00    +0.001 A 
ATOM      9  C15 UNL     1      20.649   3.118  32.387  0.00  0.00    +0.119 A 
ATOM     10  N2  UNL     1      20.025   1.941  32.121  0.00  0.00    -0.262 NA
ATOM     11  C16 UNL     1      20.470   1.096  31.154  0.00  0.00    +0.115 A 
ATOM     12  C17 UNL     1      21.608   1.420  30.400  0.00  0.00    -0.015 A 
ATOM     13  C24 UNL     1      22.262   2.631  30.660  0.00  0.00    +0.016 A 
BRANCH  12  14
ATOM     14  C18 UNL     1      22.115   0.483  29.324  0.00  0.00    +0.121 C 
BRANCH  14  15
ATOM     15  N3  UNL     1      21.937   1.000  27.948  0.00  0.00    -0.298 NA
ATOM     16  C19 UNL     1      22.522   2.342  27.762  0.00  0.00    +0.085 C 
ATOM     17  C20 UNL     1      22.515   2.712  26.274  0.00  0.00    +0.015 C 
ATOM     18  C21 UNL     1      21.092   2.641  25.709  0.00  0.00    +0.002 C 
ATOM     19  C22 UNL     1      20.455   1.279  26.002  0.00  0.00    +0.015 C 
ATOM     20  C23 UNL     1      20.532   0.960  27.499  0.00  0.00    +0.085 C 
ENDBRANCH  14  15
ENDBRANCH  12  14
ENDBRANCH   7   8
BRANCH   1  22
ATOM     21  O1  UNL     1      19.949   6.542  30.611  0.00  0.00    -0.270 OA
ATOM     22  C1  UNL     1      21.047   6.033  30.257  0.00  0.00    +0.249 C 
ATOM     23  N1  UNL     1      21.214   5.533  28.920  0.00  0.00    -0.281 N 
ATOM     24  H1  UNL     1      22.184   5.388  28.559  0.00  0.00    +0.155 HD
BRANCH  23  25
ATOM     25  C2  UNL     1      20.121   5.225  28.038  0.00  0.00    +0.034 A 
ATOM     26  C3  UNL     1      19.202   4.229  28.403  0.00  0.00    +0.023 A 
ATOM     27  C4  UNL     1      18.113   3.933  27.577  0.00  0.00    +0.002 A 
ATOM     28  C5  UNL     1      17.925   4.640  26.387  0.00  0.00    +0.000 A 
ATOM     29  C6  UNL     1      18.821   5.648  26.024  0.00  0.00    +0.002 A 
ATOM     30  C7  UNL     1      19.912   5.946  26.847  0.00  0.00    +0.023 A 
ENDBRANCH  23  25
ENDBRANCH   1  22
TORSDOF 5
ENDMDL
