MODEL 1
REMARK VINA RESULT:    -7.380      0.000      0.000
REMARK INTER + INTRA:         -10.599
REMARK INTER:                  -9.537
REMARK INTRA:                  -1.062
REMARK UNBOUND:                -1.062
REMARK  Name = /home/qwerty/github/datacon2025hack/step_04_hit_selection/docking/ligands/lig_250.pdb
REMARK  8 active torsions:
REMARK  status: ('A' for Active; 'I' for Inactive)
REMARK    1  A    between atoms: C1_1  and  C2_2
REMARK    2  A    between atoms: C5_5  and  N1_6
REMARK    3  A    between atoms: N2_9  and  C7_10
REMARK    4  A    between atoms: C7_10  and  C8_11
REMARK    5  A    between atoms: N4_18  and  C13_19
REMARK    6  A    between atoms: C13_19  and  C14_20
REMARK    7  A    between atoms: C13_19  and  C15_21
REMARK    8  A    between atoms: C22_29  and  C23_30
REMARK                            x       y       z     vdW  Elec       q    Type
REMARK                         _______ _______ _______ _____ _____    ______ ____
ROOT
ATOM      1  C8  UNL     1      14.088   5.375  21.682  0.00  0.00    +0.024 C 
ATOM      2  C9  UNL     1      13.191   4.161  22.017  0.00  0.00    +0.008 C 
ATOM      3  C10 UNL     1      12.467   3.559  20.801  0.00  0.00    +0.019 C 
ATOM      4  C11 UNL     1      11.979   4.609  19.788  0.00  0.00    +0.109 C 
ATOM      5  N3  UNL     1      12.057   5.966  20.339  0.00  0.00    -0.285 N 
ATOM      6  C12 UNL     1      10.941   6.867  20.213  0.00  0.00    +0.303 C 
ATOM      7  O2  UNL     1       9.763   6.414  20.262  0.00  0.00    -0.253 OA
ATOM      8  N4  UNL     1      11.160   8.274  20.025  0.00  0.00    -0.293 N 
ATOM      9  C21 UNL     1      13.348   6.451  20.844  0.00  0.00    +0.114 C 
ATOM     10  H17 UNL     1      12.096   8.588  19.682  0.00  0.00    +0.151 HD
ENDROOT
BRANCH   8  11
ATOM     11  C13 UNL     1      10.131   9.285  20.286  0.00  0.00    +0.102 C 
ATOM     12  C14 UNL     1      10.474  10.585  19.552  0.00  0.00    +0.033 C 
BRANCH  11  13
ATOM     13  C15 UNL     1      10.000   9.513  21.778  0.00  0.00    -0.027 A 
ATOM     14  C16 UNL     1       8.850   9.098  22.477  0.00  0.00    +0.008 A 
ATOM     15  C17 UNL     1       8.736   9.327  23.852  0.00  0.00    +0.038 A 
ATOM     16  C18 UNL     1       9.763   9.970  24.542  0.00  0.00    +0.123 A 
ATOM     17  F1  UNL     1       9.650  10.189  25.875  0.00  0.00    -0.205 F 
ATOM     18  C19 UNL     1      10.912  10.383  23.861  0.00  0.00    +0.038 A 
ATOM     19  C20 UNL     1      11.030  10.158  22.486  0.00  0.00    +0.008 A 
ENDBRANCH  11  13
ENDBRANCH   8  11
BRANCH   1  20
ATOM     20  C7  UNL     1      15.456   4.974  21.091  0.00  0.00    +0.110 C 
BRANCH  20  24
ATOM     21  N1  UNL     1      17.092   7.756  19.005  0.00  0.00    -0.269 N 
ATOM     22  C6  UNL     1      16.696   6.996  20.155  0.00  0.00    +0.304 C 
ATOM     23  O1  UNL     1      17.099   7.324  21.304  0.00  0.00    -0.253 OA
ATOM     24  N2  UNL     1      15.862   5.841  19.984  0.00  0.00    -0.299 N 
ATOM     25  H6  UNL     1      16.929   7.332  18.064  0.00  0.00    +0.156 HD
ATOM     26  H7  UNL     1      15.489   5.639  19.032  0.00  0.00    +0.150 HD
BRANCH  21  31
ATOM     27  C1  UNL     1      19.869  12.795  19.139  0.00  0.00    +0.044 C 
ATOM     28  C2  UNL     1      19.157  11.475  19.153  0.00  0.00    -0.050 A 
ATOM     29  C3  UNL     1      17.789  11.409  19.447  0.00  0.00    +0.005 A 
ATOM     30  C4  UNL     1      17.120  10.185  19.414  0.00  0.00    +0.024 A 
ATOM     31  C5  UNL     1      17.805   9.003  19.088  0.00  0.00    +0.038 A 
ATOM     32  C22 UNL     1      19.183   9.065  18.782  0.00  0.00    -0.029 A 
ATOM     33  C23 UNL     1      19.950   7.828  18.409  0.00  0.00    +0.045 C 
ATOM     34  C24 UNL     1      19.844  10.304  18.805  0.00  0.00    +0.008 A 
ENDBRANCH  21  31
ENDBRANCH  20  24
ENDBRANCH   1  20
TORSDOF 5
ENDMDL
MODEL 2
REMARK VINA RESULT:    -7.231      7.927     10.781
REMARK INTER + INTRA:         -10.407
REMARK INTER:                  -9.518
REMARK INTRA:                  -0.889
REMARK UNBOUND:                -1.062
REMARK  Name = /home/qwerty/github/datacon2025hack/step_04_hit_selection/docking/ligands/lig_250.pdb
REMARK  8 active torsions:
REMARK  status: ('A' for Active; 'I' for Inactive)
REMARK    1  A    between atoms: C1_1  and  C2_2
REMARK    2  A    between atoms: C5_5  and  N1_6
REMARK    3  A    between atoms: N2_9  and  C7_10
REMARK    4  A    between atoms: C7_10  and  C8_11
REMARK    5  A    between atoms: N4_18  and  C13_19
REMARK    6  A    between atoms: C13_19  and  C14_20
REMARK    7  A    between atoms: C13_19  and  C15_21
REMARK    8  A    between atoms: C22_29  and  C23_30
REMARK                            x       y       z     vdW  Elec       q    Type
REMARK                         _______ _______ _______ _____ _____    ______ ____
ROOT
ATOM      1  C8  UNL     1       6.479   4.132  28.539  0.00  0.00    +0.024 C 
ATOM      2  C9  UNL     1       5.862   2.835  29.113  0.00  0.00    +0.008 C 
ATOM      3  C10 UNL     1       6.897   1.827  29.639  0.00  0.00    +0.019 C 
ATOM      4  C11 UNL     1       8.176   1.749  28.789  0.00  0.00    +0.109 C 
ATOM      5  N3  UNL     1       8.012   2.441  27.506  0.00  0.00    -0.285 N 
ATOM      6  C12 UNL     1       8.423   1.807  26.281  0.00  0.00    +0.303 C 
ATOM      7  O2  UNL     1       8.300   0.558  26.151  0.00  0.00    -0.253 OA
ATOM      8  N4  UNL     1       8.978   2.587  25.209  0.00  0.00    -0.293 N 
ATOM      9  C21 UNL     1       7.607   3.853  27.511  0.00  0.00    +0.114 C 
ATOM     10  H17 UNL     1       9.355   3.536  25.431  0.00  0.00    +0.151 HD
ENDROOT
BRANCH   8  11
ATOM     11  C13 UNL     1       9.044   2.111  23.824  0.00  0.00    +0.102 C 
ATOM     12  C14 UNL     1      10.430   1.531  23.532  0.00  0.00    +0.033 C 
BRANCH  11  13
ATOM     13  C15 UNL     1       8.709   3.243  22.874  0.00  0.00    -0.027 A 
ATOM     14  C16 UNL     1       7.521   3.986  23.019  0.00  0.00    +0.008 A 
ATOM     15  C17 UNL     1       7.217   5.018  22.127  0.00  0.00    +0.038 A 
ATOM     16  C18 UNL     1       8.093   5.322  21.084  0.00  0.00    +0.123 A 
ATOM     17  F1  UNL     1       7.796   6.326  20.223  0.00  0.00    -0.205 F 
ATOM     18  C19 UNL     1       9.278   4.597  20.932  0.00  0.00    +0.038 A 
ATOM     19  C20 UNL     1       9.584   3.562  21.820  0.00  0.00    +0.008 A 
ENDBRANCH  11  13
ENDBRANCH   8  11
BRANCH   1  20
ATOM     20  C7  UNL     1       6.883   5.147  29.630  0.00  0.00    +0.110 C 
BRANCH  20  24
ATOM     21  N1  UNL     1       6.689   8.869  28.696  0.00  0.00    -0.269 N 
ATOM     22  C6  UNL     1       7.260   7.593  29.016  0.00  0.00    +0.304 C 
ATOM     23  O1  UNL     1       8.509   7.427  28.980  0.00  0.00    -0.253 OA
ATOM     24  N2  UNL     1       6.395   6.496  29.347  0.00  0.00    -0.299 N 
ATOM     25  H6  UNL     1       5.661   8.910  28.518  0.00  0.00    +0.156 HD
ATOM     26  H7  UNL     1       5.373   6.684  29.436  0.00  0.00    +0.150 HD
BRANCH  21  31
ATOM     27  C1  UNL     1       9.646  13.736  27.864  0.00  0.00    +0.044 C 
ATOM     28  C2  UNL     1       8.919  12.444  28.092  0.00  0.00    -0.050 A 
ATOM     29  C3  UNL     1       8.407  12.131  29.357  0.00  0.00    +0.005 A 
ATOM     30  C4  UNL     1       7.691  10.949  29.554  0.00  0.00    +0.024 A 
ATOM     31  C5  UNL     1       7.474  10.058  28.491  0.00  0.00    +0.038 A 
ATOM     32  C22 UNL     1       7.981  10.373  27.210  0.00  0.00    -0.029 A 
ATOM     33  C23 UNL     1       7.755   9.456  26.041  0.00  0.00    +0.045 C 
ATOM     34  C24 UNL     1       8.687  11.571  27.020  0.00  0.00    +0.008 A 
ENDBRANCH  21  31
ENDBRANCH  20  24
ENDBRANCH   1  20
TORSDOF 5
ENDMDL
MODEL 3
REMARK VINA RESULT:    -7.087     11.100     13.272
REMARK INTER + INTRA:         -10.220
REMARK INTER:                  -9.053
REMARK INTRA:                  -1.167
REMARK UNBOUND:                -1.062
REMARK  Name = /home/qwerty/github/datacon2025hack/step_04_hit_selection/docking/ligands/lig_250.pdb
REMARK  8 active torsions:
REMARK  status: ('A' for Active; 'I' for Inactive)
REMARK    1  A    between atoms: C1_1  and  C2_2
REMARK    2  A    between atoms: C5_5  and  N1_6
REMARK    3  A    between atoms: N2_9  and  C7_10
REMARK    4  A    between atoms: C7_10  and  C8_11
REMARK    5  A    between atoms: N4_18  and  C13_19
REMARK    6  A    between atoms: C13_19  and  C14_20
REMARK    7  A    between atoms: C13_19  and  C15_21
REMARK    8  A    between atoms: C22_29  and  C23_30
REMARK                            x       y       z     vdW  Elec       q    Type
REMARK                         _______ _______ _______ _____ _____    ______ ____
ROOT
ATOM      1  C8  UNL     1      20.708   0.448  30.199  0.00  0.00    +0.024 C 
ATOM      2  C9  UNL     1      22.058  -0.081  29.662  0.00  0.00    +0.008 C 
ATOM      3  C10 UNL     1      23.004   1.017  29.149  0.00  0.00    +0.019 C 
ATOM      4  C11 UNL     1      22.287   2.159  28.410  0.00  0.00    +0.109 C 
ATOM      5  N3  UNL     1      20.894   1.812  28.105  0.00  0.00    -0.285 N 
ATOM      6  C12 UNL     1      20.360   2.040  26.788  0.00  0.00    +0.303 C 
ATOM      7  O2  UNL     1      21.103   1.896  25.778  0.00  0.00    -0.253 OA
ATOM      8  N4  UNL     1      18.989   2.435  26.618  0.00  0.00    -0.293 N 
ATOM      9  C21 UNL     1      20.008   1.414  29.207  0.00  0.00    +0.114 C 
ATOM     10  H17 UNL     1      18.486   2.842  27.438  0.00  0.00    +0.151 HD
ENDROOT
BRANCH   8  11
ATOM     11  C13 UNL     1      18.269   2.298  25.348  0.00  0.00    +0.102 C 
ATOM     12  C14 UNL     1      17.173   3.363  25.248  0.00  0.00    +0.033 C 
BRANCH  11  13
ATOM     13  C15 UNL     1      17.693   0.902  25.231  0.00  0.00    -0.027 A 
ATOM     14  C16 UNL     1      17.037   0.293  26.320  0.00  0.00    +0.008 A 
ATOM     15  C17 UNL     1      16.524  -1.001  26.203  0.00  0.00    +0.038 A 
ATOM     16  C18 UNL     1      16.656  -1.702  25.004  0.00  0.00    +0.123 A 
ATOM     17  F1  UNL     1      16.153  -2.956  24.893  0.00  0.00    -0.205 F 
ATOM     18  C19 UNL     1      17.299  -1.108  23.914  0.00  0.00    +0.038 A 
ATOM     19  C20 UNL     1      17.818   0.186  24.027  0.00  0.00    +0.008 A 
ENDBRANCH  11  13
ENDBRANCH   8  11
BRANCH   1  20
ATOM     20  C7  UNL     1      20.802   1.008  31.634  0.00  0.00    +0.110 C 
BRANCH  20  24
ATOM     21  N1  UNL     1      21.085   4.837  31.775  0.00  0.00    -0.269 N 
ATOM     22  C6  UNL     1      21.485   3.461  31.774  0.00  0.00    +0.304 C 
ATOM     23  O1  UNL     1      22.708   3.153  31.809  0.00  0.00    -0.253 OA
ATOM     24  N2  UNL     1      20.485   2.435  31.699  0.00  0.00    -0.299 N 
ATOM     25  H6  UNL     1      20.096   5.055  31.521  0.00  0.00    +0.156 HD
ATOM     26  H7  UNL     1      19.483   2.720  31.742  0.00  0.00    +0.150 HD
BRANCH  21  31
ATOM     27  C1  UNL     1      24.904   9.067  32.581  0.00  0.00    +0.044 C 
ATOM     28  C2  UNL     1      23.871   7.999  32.376  0.00  0.00    -0.050 A 
ATOM     29  C3  UNL     1      23.441   7.666  31.085  0.00  0.00    +0.005 A 
ATOM     30  C4  UNL     1      22.515   6.640  30.894  0.00  0.00    +0.024 A 
ATOM     31  C5  UNL     1      21.999   5.928  31.989  0.00  0.00    +0.038 A 
ATOM     32  C22 UNL     1      22.436   6.254  33.293  0.00  0.00    -0.029 A 
ATOM     33  C23 UNL     1      21.924   5.505  34.492  0.00  0.00    +0.045 C 
ATOM     34  C24 UNL     1      23.379   7.279  33.473  0.00  0.00    +0.008 A 
ENDBRANCH  21  31
ENDBRANCH  20  24
ENDBRANCH   1  20
TORSDOF 5
ENDMDL
MODEL 4
REMARK VINA RESULT:    -7.019      7.624     11.770
REMARK INTER + INTRA:         -10.132
REMARK INTER:                  -8.889
REMARK INTRA:                  -1.243
REMARK UNBOUND:                -1.062
REMARK  Name = /home/qwerty/github/datacon2025hack/step_04_hit_selection/docking/ligands/lig_250.pdb
REMARK  8 active torsions:
REMARK  status: ('A' for Active; 'I' for Inactive)
REMARK    1  A    between atoms: C1_1  and  C2_2
REMARK    2  A    between atoms: C5_5  and  N1_6
REMARK    3  A    between atoms: N2_9  and  C7_10
REMARK    4  A    between atoms: C7_10  and  C8_11
REMARK    5  A    between atoms: N4_18  and  C13_19
REMARK    6  A    between atoms: C13_19  and  C14_20
REMARK    7  A    between atoms: C13_19  and  C15_21
REMARK    8  A    between atoms: C22_29  and  C23_30
REMARK                            x       y       z     vdW  Elec       q    Type
REMARK                         _______ _______ _______ _____ _____    ______ ____
ROOT
ATOM      1  C8  UNL     1       9.920  13.610  27.707  0.00  0.00    +0.024 C 
ATOM      2  C9  UNL     1       8.487  13.901  28.209  0.00  0.00    +0.008 C 
ATOM      3  C10 UNL     1       8.024  12.986  29.355  0.00  0.00    +0.019 C 
ATOM      4  C11 UNL     1       8.502  11.530  29.219  0.00  0.00    +0.109 C 
ATOM      5  N3  UNL     1       9.051  11.267  27.884  0.00  0.00    -0.285 N 
ATOM      6  C12 UNL     1       8.651  10.093  27.153  0.00  0.00    +0.303 C 
ATOM      7  O2  UNL     1       7.469   9.662  27.260  0.00  0.00    -0.253 OA
ATOM      8  N4  UNL     1       9.589   9.408  26.308  0.00  0.00    -0.293 N 
ATOM      9  C21 UNL     1      10.150  12.108  27.393  0.00  0.00    +0.114 C 
ATOM     10  H17 UNL     1      10.608   9.577  26.461  0.00  0.00    +0.151 HD
ENDROOT
BRANCH   8  11
ATOM     11  C13 UNL     1       9.182   8.482  25.247  0.00  0.00    +0.102 C 
ATOM     12  C14 UNL     1      10.152   7.299  25.180  0.00  0.00    +0.033 C 
BRANCH  11  13
ATOM     13  C15 UNL     1       9.114   9.214  23.922  0.00  0.00    -0.027 A 
ATOM     14  C16 UNL     1       7.927   9.846  23.502  0.00  0.00    +0.008 A 
ATOM     15  C17 UNL     1       7.873  10.505  22.271  0.00  0.00    +0.038 A 
ATOM     16  C18 UNL     1       8.999  10.544  21.447  0.00  0.00    +0.123 A 
ATOM     17  F1  UNL     1       8.944  11.188  20.255  0.00  0.00    -0.205 F 
ATOM     18  C19 UNL     1      10.185   9.927  21.855  0.00  0.00    +0.038 A 
ATOM     19  C20 UNL     1      10.242   9.263  23.084  0.00  0.00    +0.008 A 
ENDBRANCH  11  13
ENDBRANCH   8  11
BRANCH   1  20
ATOM     20  C7  UNL     1      11.015  14.220  28.608  0.00  0.00    +0.110 C 
BRANCH  20  24
ATOM     21  N1  UNL     1      12.228  11.961  31.469  0.00  0.00    -0.269 N 
ATOM     22  C6  UNL     1      11.530  13.018  30.796  0.00  0.00    +0.304 C 
ATOM     23  O1  UNL     1      10.729  13.756  31.431  0.00  0.00    -0.253 OA
ATOM     24  N2  UNL     1      11.726  13.207  29.388  0.00  0.00    -0.299 N 
ATOM     25  H6  UNL     1      12.700  11.239  30.880  0.00  0.00    +0.156 HD
ATOM     26  H7  UNL     1      12.447  12.626  28.908  0.00  0.00    +0.150 HD
BRANCH  21  31
ATOM     27  C1  UNL     1      11.988  11.391  37.191  0.00  0.00    +0.044 C 
ATOM     28  C2  UNL     1      12.081  11.499  35.698  0.00  0.00    -0.050 A 
ATOM     29  C3  UNL     1      11.142  10.858  34.880  0.00  0.00    +0.005 A 
ATOM     30  C4  UNL     1      11.204  10.998  33.493  0.00  0.00    +0.024 A 
ATOM     31  C5  UNL     1      12.206  11.781  32.897  0.00  0.00    +0.038 A 
ATOM     32  C22 UNL     1      13.151  12.437  33.718  0.00  0.00    -0.029 A 
ATOM     33  C23 UNL     1      14.228  13.300  33.122  0.00  0.00    +0.045 C 
ATOM     34  C24 UNL     1      13.071  12.300  35.113  0.00  0.00    +0.008 A 
ENDBRANCH  21  31
ENDBRANCH  20  24
ENDBRANCH   1  20
TORSDOF 5
ENDMDL
MODEL 5
REMARK VINA RESULT:    -6.982      4.957      7.059
REMARK INTER + INTRA:         -10.085
REMARK INTER:                  -9.389
REMARK INTRA:                  -0.696
REMARK UNBOUND:                -1.062
REMARK  Name = /home/qwerty/github/datacon2025hack/step_04_hit_selection/docking/ligands/lig_250.pdb
REMARK  8 active torsions:
REMARK  status: ('A' for Active; 'I' for Inactive)
REMARK    1  A    between atoms: C1_1  and  C2_2
REMARK    2  A    between atoms: C5_5  and  N1_6
REMARK    3  A    between atoms: N2_9  and  C7_10
REMARK    4  A    between atoms: C7_10  and  C8_11
REMARK    5  A    between atoms: N4_18  and  C13_19
REMARK    6  A    between atoms: C13_19  and  C14_20
REMARK    7  A    between atoms: C13_19  and  C15_21
REMARK    8  A    between atoms: C22_29  and  C23_30
REMARK                            x       y       z     vdW  Elec       q    Type
REMARK                         _______ _______ _______ _____ _____    ______ ____
ROOT
ATOM      1  C8  UNL     1       7.782   4.173  23.886  0.00  0.00    +0.024 C 
ATOM      2  C9  UNL     1       7.150   4.536  22.523  0.00  0.00    +0.008 C 
ATOM      3  C10 UNL     1       8.106   5.256  21.558  0.00  0.00    +0.019 C 
ATOM      4  C11 UNL     1       9.049   6.255  22.249  0.00  0.00    +0.109 C 
ATOM      5  N3  UNL     1       8.637   6.514  23.633  0.00  0.00    -0.285 N 
ATOM      6  C12 UNL     1       8.559   7.864  24.128  0.00  0.00    +0.303 C 
ATOM      7  O2  UNL     1       8.192   8.793  23.355  0.00  0.00    -0.253 OA
ATOM      8  N4  UNL     1       8.900   8.160  25.491  0.00  0.00    -0.293 N 
ATOM      9  C21 UNL     1       8.497   5.378  24.554  0.00  0.00    +0.114 C 
ATOM     10  H17 UNL     1       9.481   7.469  26.018  0.00  0.00    +0.151 HD
ENDROOT
BRANCH   8  11
ATOM     11  C13 UNL     1       8.477   9.386  26.174  0.00  0.00    +0.102 C 
ATOM     12  C14 UNL     1       9.619  10.406  26.180  0.00  0.00    +0.033 C 
BRANCH  11  13
ATOM     13  C15 UNL     1       8.021   9.061  27.582  0.00  0.00    -0.027 A 
ATOM     14  C16 UNL     1       7.868   7.726  28.005  0.00  0.00    +0.008 A 
ATOM     15  C17 UNL     1       7.433   7.439  29.302  0.00  0.00    +0.038 A 
ATOM     16  C18 UNL     1       7.147   8.477  30.190  0.00  0.00    +0.123 A 
ATOM     17  F1  UNL     1       6.729   8.196  31.448  0.00  0.00    -0.205 F 
ATOM     18  C19 UNL     1       7.301   9.806  29.785  0.00  0.00    +0.038 A 
ATOM     19  C20 UNL     1       7.732  10.097  28.487  0.00  0.00    +0.008 A 
ENDBRANCH  11  13
ENDBRANCH   8  11
BRANCH   1  20
ATOM     20  C7  UNL     1       8.654   2.900  23.833  0.00  0.00    +0.110 C 
BRANCH  20  24
ATOM     21  N1  UNL     1      11.138   2.594  20.918  0.00  0.00    -0.269 N 
ATOM     22  C6  UNL     1      10.635   2.889  22.227  0.00  0.00    +0.304 C 
ATOM     23  O1  UNL     1      11.413   3.300  23.131  0.00  0.00    -0.253 OA
ATOM     24  N2  UNL     1       9.244   2.681  22.512  0.00  0.00    -0.299 N 
ATOM     25  H6  UNL     1      10.523   2.050  20.272  0.00  0.00    +0.156 HD
ATOM     26  H7  UNL     1       8.615   2.408  21.725  0.00  0.00    +0.150 HD
BRANCH  21  31
ATOM     27  C1  UNL     1      16.555   3.859  19.441  0.00  0.00    +0.044 C 
ATOM     28  C2  UNL     1      15.135   3.514  19.779  0.00  0.00    -0.050 A 
ATOM     29  C3  UNL     1      14.812   2.244  20.273  0.00  0.00    +0.005 A 
ATOM     30  C4  UNL     1      13.496   1.942  20.630  0.00  0.00    +0.024 A 
ATOM     31  C5  UNL     1      12.480   2.901  20.497  0.00  0.00    +0.038 A 
ATOM     32  C22 UNL     1      12.802   4.187  20.007  0.00  0.00    -0.029 A 
ATOM     33  C23 UNL     1      11.749   5.249  19.867  0.00  0.00    +0.045 C 
ATOM     34  C24 UNL     1      14.131   4.485  19.664  0.00  0.00    +0.008 A 
ENDBRANCH  21  31
ENDBRANCH  20  24
ENDBRANCH   1  20
TORSDOF 5
ENDMDL
MODEL 6
REMARK VINA RESULT:    -6.922      7.644     11.492
REMARK INTER + INTRA:         -10.006
REMARK INTER:                  -8.805
REMARK INTRA:                  -1.201
REMARK UNBOUND:                -1.062
REMARK  Name = /home/qwerty/github/datacon2025hack/step_04_hit_selection/docking/ligands/lig_250.pdb
REMARK  8 active torsions:
REMARK  status: ('A' for Active; 'I' for Inactive)
REMARK    1  A    between atoms: C1_1  and  C2_2
REMARK    2  A    between atoms: C5_5  and  N1_6
REMARK    3  A    between atoms: N2_9  and  C7_10
REMARK    4  A    between atoms: C7_10  and  C8_11
REMARK    5  A    between atoms: N4_18  and  C13_19
REMARK    6  A    between atoms: C13_19  and  C14_20
REMARK    7  A    between atoms: C13_19  and  C15_21
REMARK    8  A    between atoms: C22_29  and  C23_30
REMARK                            x       y       z     vdW  Elec       q    Type
REMARK                         _______ _______ _______ _____ _____    ______ ____
ROOT
ATOM      1  C8  UNL     1       8.015  11.572  29.614  0.00  0.00    +0.024 C 
ATOM      2  C9  UNL     1       7.647  12.961  29.045  0.00  0.00    +0.008 C 
ATOM      3  C10 UNL     1       8.592  13.457  27.938  0.00  0.00    +0.019 C 
ATOM      4  C11 UNL     1      10.069  13.099  28.176  0.00  0.00    +0.109 C 
ATOM      5  N3  UNL     1      10.291  12.615  29.543  0.00  0.00    -0.285 N 
ATOM      6  C12 UNL     1      11.385  13.129  30.327  0.00  0.00    +0.303 C 
ATOM      7  O2  UNL     1      11.731  14.336  30.202  0.00  0.00    -0.253 OA
ATOM      8  N4  UNL     1      12.086  12.274  31.244  0.00  0.00    -0.293 N 
ATOM      9  C21 UNL     1       9.508  11.469  30.024  0.00  0.00    +0.114 C 
ATOM     10  H17 UNL     1      12.005  11.240  31.118  0.00  0.00    +0.151 HD
ENDROOT
BRANCH   8  11
ATOM     11  C13 UNL     1      12.912  12.785  32.342  0.00  0.00    +0.102 C 
ATOM     12  C14 UNL     1      14.111  11.861  32.572  0.00  0.00    +0.033 C 
BRANCH  11  13
ATOM     13  C15 UNL     1      12.074  12.923  33.596  0.00  0.00    -0.027 A 
ATOM     14  C16 UNL     1      11.321  14.088  33.842  0.00  0.00    +0.008 A 
ATOM     15  C17 UNL     1      10.563  14.208  35.010  0.00  0.00    +0.038 A 
ATOM     16  C18 UNL     1      10.546  13.171  35.944  0.00  0.00    +0.123 A 
ATOM     17  F1  UNL     1       9.808  13.290  37.074  0.00  0.00    -0.205 F 
ATOM     18  C19 UNL     1      11.284  12.008  35.709  0.00  0.00    +0.038 A 
ATOM     19  C20 UNL     1      12.046  11.884  34.544  0.00  0.00    +0.008 A 
ENDBRANCH  11  13
ENDBRANCH   8  11
BRANCH   1  20
ATOM     20  C7  UNL     1       7.546  10.405  28.719  0.00  0.00    +0.110 C 
BRANCH  20  24
ATOM     21  N1  UNL     1       9.964   9.353  25.925  0.00  0.00    -0.269 N 
ATOM     22  C6  UNL     1       8.822   9.942  26.561  0.00  0.00    +0.304 C 
ATOM     23  O1  UNL     1       7.993  10.611  25.887  0.00  0.00    -0.253 OA
ATOM     24  N2  UNL     1       8.647   9.791  27.977  0.00  0.00    -0.299 N 
ATOM     25  H6  UNL     1      10.735   9.005  26.538  0.00  0.00    +0.156 HD
ATOM     26  H7  UNL     1       9.312   9.174  28.493  0.00  0.00    +0.150 HD
BRANCH  21  31
ATOM     27  C1  UNL     1      10.556   9.401  20.201  0.00  0.00    +0.044 C 
ATOM     28  C2  UNL     1      10.444   9.360  21.696  0.00  0.00    -0.050 A 
ATOM     29  C3  UNL     1      11.034  10.360  22.479  0.00  0.00    +0.005 A 
ATOM     30  C4  UNL     1      10.888  10.344  23.868  0.00  0.00    +0.024 A 
ATOM     31  C5  UNL     1      10.151   9.328  24.499  0.00  0.00    +0.038 A 
ATOM     32  C22 UNL     1       9.547   8.322  23.712  0.00  0.00    -0.029 A 
ATOM     33  C23 UNL     1       8.734   7.227  24.345  0.00  0.00    +0.045 C 
ATOM     34  C24 UNL     1       9.688   8.355  22.315  0.00  0.00    +0.008 A 
ENDBRANCH  21  31
ENDBRANCH  20  24
ENDBRANCH   1  20
TORSDOF 5
ENDMDL
MODEL 7
REMARK VINA RESULT:    -6.920     15.161     17.442
REMARK INTER + INTRA:         -10.004
REMARK INTER:                  -8.978
REMARK INTRA:                  -1.026
REMARK UNBOUND:                -1.062
REMARK  Name = /home/qwerty/github/datacon2025hack/step_04_hit_selection/docking/ligands/lig_250.pdb
REMARK  8 active torsions:
REMARK  status: ('A' for Active; 'I' for Inactive)
REMARK    1  A    between atoms: C1_1  and  C2_2
REMARK    2  A    between atoms: C5_5  and  N1_6
REMARK    3  A    between atoms: N2_9  and  C7_10
REMARK    4  A    between atoms: C7_10  and  C8_11
REMARK    5  A    between atoms: N4_18  and  C13_19
REMARK    6  A    between atoms: C13_19  and  C14_20
REMARK    7  A    between atoms: C13_19  and  C15_21
REMARK    8  A    between atoms: C22_29  and  C23_30
REMARK                            x       y       z     vdW  Elec       q    Type
REMARK                         _______ _______ _______ _____ _____    ______ ____
ROOT
ATOM      1  C8  UNL     1      22.254   7.043  35.911  0.00  0.00    +0.024 C 
ATOM      2  C9  UNL     1      23.685   6.499  35.697  0.00  0.00    +0.008 C 
ATOM      3  C10 UNL     1      24.063   6.286  34.222  0.00  0.00    +0.019 C 
ATOM      4  C11 UNL     1      22.908   5.752  33.356  0.00  0.00    +0.109 C 
ATOM      5  N3  UNL     1      21.786   5.291  34.182  0.00  0.00    -0.285 N 
ATOM      6  C12 UNL     1      21.169   4.016  33.923  0.00  0.00    +0.303 C 
ATOM      7  O2  UNL     1      21.875   3.050  33.522  0.00  0.00    -0.253 OA
ATOM      8  N4  UNL     1      19.756   3.841  34.113  0.00  0.00    -0.293 N 
ATOM      9  C21 UNL     1      21.182   6.227  35.140  0.00  0.00    +0.114 C 
ATOM     10  H17 UNL     1      19.150   4.692  34.141  0.00  0.00    +0.151 HD
ENDROOT
BRANCH   8  11
ATOM     11  C13 UNL     1      19.127   2.525  34.265  0.00  0.00    +0.102 C 
ATOM     12  C14 UNL     1      18.406   2.135  32.972  0.00  0.00    +0.033 C 
BRANCH  11  13
ATOM     13  C15 UNL     1      18.174   2.543  35.443  0.00  0.00    -0.027 A 
ATOM     14  C16 UNL     1      17.623   1.350  35.949  0.00  0.00    +0.008 A 
ATOM     15  C17 UNL     1      16.734   1.382  37.027  0.00  0.00    +0.038 A 
ATOM     16  C18 UNL     1      16.385   2.600  37.612  0.00  0.00    +0.123 A 
ATOM     17  F1  UNL     1      15.525   2.627  38.659  0.00  0.00    -0.205 F 
ATOM     18  C19 UNL     1      16.929   3.791  37.122  0.00  0.00    +0.038 A 
ATOM     19  C20 UNL     1      17.816   3.764  36.042  0.00  0.00    +0.008 A 
ENDBRANCH  11  13
ENDBRANCH   8  11
BRANCH   1  20
ATOM     20  C7  UNL     1      22.142   8.566  35.684  0.00  0.00    +0.110 C 
BRANCH  20  24
ATOM     21  N1  UNL     1      19.180  10.282  37.429  0.00  0.00    -0.269 N 
ATOM     22  C6  UNL     1      19.972   9.709  36.379  0.00  0.00    +0.304 C 
ATOM     23  O1  UNL     1      19.505   9.610  35.212  0.00  0.00    -0.253 OA
ATOM     24  N2  UNL     1      21.287   9.218  36.676  0.00  0.00    -0.299 N 
ATOM     25  H6  UNL     1      19.504  10.144  38.412  0.00  0.00    +0.156 HD
ATOM     26  H7  UNL     1      21.669   9.378  37.633  0.00  0.00    +0.150 HD
BRANCH  21  31
ATOM     27  C1  UNL     1      14.132  12.953  36.718  0.00  0.00    +0.044 C 
ATOM     28  C2  UNL     1      15.446  12.242  36.855  0.00  0.00    -0.050 A 
ATOM     29  C3  UNL     1      16.648  12.920  36.615  0.00  0.00    +0.005 A 
ATOM     30  C4  UNL     1      17.870  12.268  36.788  0.00  0.00    +0.024 A 
ATOM     31  C5  UNL     1      17.913  10.927  37.203  0.00  0.00    +0.038 A 
ATOM     32  C22 UNL     1      16.703  10.241  37.455  0.00  0.00    -0.029 A 
ATOM     33  C23 UNL     1      16.705   8.811  37.918  0.00  0.00    +0.045 C 
ATOM     34  C24 UNL     1      15.480  10.911  37.291  0.00  0.00    +0.008 A 
ENDBRANCH  21  31
ENDBRANCH  20  24
ENDBRANCH   1  20
TORSDOF 5
ENDMDL
MODEL 8
REMARK VINA RESULT:    -6.879     11.284     14.236
REMARK INTER + INTRA:          -9.951
REMARK INTER:                  -8.719
REMARK INTRA:                  -1.232
REMARK UNBOUND:                -1.062
REMARK  Name = /home/qwerty/github/datacon2025hack/step_04_hit_selection/docking/ligands/lig_250.pdb
REMARK  8 active torsions:
REMARK  status: ('A' for Active; 'I' for Inactive)
REMARK    1  A    between atoms: C1_1  and  C2_2
REMARK    2  A    between atoms: C5_5  and  N1_6
REMARK    3  A    between atoms: N2_9  and  C7_10
REMARK    4  A    between atoms: C7_10  and  C8_11
REMARK    5  A    between atoms: N4_18  and  C13_19
REMARK    6  A    between atoms: C13_19  and  C14_20
REMARK    7  A    between atoms: C13_19  and  C15_21
REMARK    8  A    between atoms: C22_29  and  C23_30
REMARK                            x       y       z     vdW  Elec       q    Type
REMARK                         _______ _______ _______ _____ _____    ______ ____
ROOT
ATOM      1  C8  UNL     1      22.780   2.211  28.389  0.00  0.00    +0.024 C 
ATOM      2  C9  UNL     1      23.241   0.806  28.839  0.00  0.00    +0.008 C 
ATOM      3  C10 UNL     1      22.091  -0.143  29.217  0.00  0.00    +0.019 C 
ATOM      4  C11 UNL     1      20.933   0.550  29.955  0.00  0.00    +0.109 C 
ATOM      5  N3  UNL     1      21.303   1.901  30.390  0.00  0.00    -0.285 N 
ATOM      6  C12 UNL     1      21.023   2.335  31.734  0.00  0.00    +0.303 C 
ATOM      7  O2  UNL     1      21.092   1.508  32.685  0.00  0.00    -0.253 OA
ATOM      8  N4  UNL     1      20.659   3.699  31.996  0.00  0.00    -0.293 N 
ATOM      9  C21 UNL     1      21.783   2.860  29.386  0.00  0.00    +0.114 C 
ATOM     10  H17 UNL     1      20.310   4.281  31.201  0.00  0.00    +0.151 HD
ENDROOT
BRANCH   8  11
ATOM     11  C13 UNL     1      20.750   4.310  33.326  0.00  0.00    +0.102 C 
ATOM     12  C14 UNL     1      19.466   5.084  33.639  0.00  0.00    +0.033 C 
BRANCH  11  13
ATOM     13  C15 UNL     1      21.967   5.210  33.396  0.00  0.00    -0.027 A 
ATOM     14  C16 UNL     1      22.553   5.543  34.633  0.00  0.00    +0.008 A 
ATOM     15  C17 UNL     1      23.666   6.387  34.685  0.00  0.00    +0.038 A 
ATOM     16  C18 UNL     1      24.207   6.906  33.508  0.00  0.00    +0.123 A 
ATOM     17  F1  UNL     1      25.288   7.722  33.562  0.00  0.00    -0.205 F 
ATOM     18  C19 UNL     1      23.638   6.579  32.274  0.00  0.00    +0.038 A 
ATOM     19  C20 UNL     1      22.522   5.739  32.217  0.00  0.00    +0.008 A 
ENDBRANCH  11  13
ENDBRANCH   8  11
BRANCH   1  20
ATOM     20  C7  UNL     1      22.292   2.251  26.925  0.00  0.00    +0.110 C 
BRANCH  20  24
ATOM     21  N1  UNL     1      18.494   1.844  26.512  0.00  0.00    -0.269 N 
ATOM     22  C6  UNL     1      19.886   1.501  26.538  0.00  0.00    +0.304 C 
ATOM     23  O1  UNL     1      20.253   0.310  26.344  0.00  0.00    -0.253 OA
ATOM     24  N2  UNL     1      20.858   2.519  26.820  0.00  0.00    -0.299 N 
ATOM     25  H6  UNL     1      18.216   2.775  26.894  0.00  0.00    +0.156 HD
ATOM     26  H7  UNL     1      20.528   3.505  26.907  0.00  0.00    +0.150 HD
BRANCH  21  31
ATOM     27  C1  UNL     1      14.508  -1.972  24.878  0.00  0.00    +0.044 C 
ATOM     28  C2  UNL     1      15.510  -0.943  25.309  0.00  0.00    -0.050 A 
ATOM     29  C3  UNL     1      15.854  -0.810  26.660  0.00  0.00    +0.005 A 
ATOM     30  C4  UNL     1      16.821   0.118  27.051  0.00  0.00    +0.024 A 
ATOM     31  C5  UNL     1      17.462   0.929  26.101  0.00  0.00    +0.038 A 
ATOM     32  C22 UNL     1      17.124   0.793  24.736  0.00  0.00    -0.029 A 
ATOM     33  C23 UNL     1      17.798   1.628  23.684  0.00  0.00    +0.045 C 
ATOM     34  C24 UNL     1      16.160  -0.153  24.351  0.00  0.00    +0.008 A 
ENDBRANCH  21  31
ENDBRANCH  20  24
ENDBRANCH   1  20
TORSDOF 5
ENDMDL
MODEL 9
REMARK VINA RESULT:    -6.736      7.102     10.338
REMARK INTER + INTRA:          -9.767
REMARK INTER:                  -8.885
REMARK INTRA:                  -0.882
REMARK UNBOUND:                -1.062
REMARK  Name = /home/qwerty/github/datacon2025hack/step_04_hit_selection/docking/ligands/lig_250.pdb
REMARK  8 active torsions:
REMARK  status: ('A' for Active; 'I' for Inactive)
REMARK    1  A    between atoms: C1_1  and  C2_2
REMARK    2  A    between atoms: C5_5  and  N1_6
REMARK    3  A    between atoms: N2_9  and  C7_10
REMARK    4  A    between atoms: C7_10  and  C8_11
REMARK    5  A    between atoms: N4_18  and  C13_19
REMARK    6  A    between atoms: C13_19  and  C14_20
REMARK    7  A    between atoms: C13_19  and  C15_21
REMARK    8  A    between atoms: C22_29  and  C23_30
REMARK                            x       y       z     vdW  Elec       q    Type
REMARK                         _______ _______ _______ _____ _____    ______ ____
ROOT
ATOM      1  C8  UNL     1      20.069   5.998  22.798  0.00  0.00    +0.024 C 
ATOM      2  C9  UNL     1      20.675   6.758  21.595  0.00  0.00    +0.008 C 
ATOM      3  C10 UNL     1      19.735   7.805  20.974  0.00  0.00    +0.019 C 
ATOM      4  C11 UNL     1      18.261   7.368  20.933  0.00  0.00    +0.109 C 
ATOM      5  N3  UNL     1      18.115   5.939  21.231  0.00  0.00    -0.285 N 
ATOM      6  C12 UNL     1      17.288   5.104  20.399  0.00  0.00    +0.303 C 
ATOM      7  O2  UNL     1      17.224   5.326  19.158  0.00  0.00    -0.253 OA
ATOM      8  N4  UNL     1      16.534   4.025  20.973  0.00  0.00    -0.293 N 
ATOM      9  C21 UNL     1      18.663   5.419  22.492  0.00  0.00    +0.114 C 
ATOM     10  H17 UNL     1      16.351   4.041  22.002  0.00  0.00    +0.151 HD
ENDROOT
BRANCH   8  11
ATOM     11  C13 UNL     1      16.006   2.909  20.183  0.00  0.00    +0.102 C 
ATOM     12  C14 UNL     1      14.494   3.064  19.997  0.00  0.00    +0.033 C 
BRANCH  11  13
ATOM     13  C15 UNL     1      16.345   1.595  20.857  0.00  0.00    -0.027 A 
ATOM     14  C16 UNL     1      16.332   0.385  20.137  0.00  0.00    +0.008 A 
ATOM     15  C17 UNL     1      16.633  -0.823  20.774  0.00  0.00    +0.038 A 
ATOM     16  C18 UNL     1      16.950  -0.837  22.133  0.00  0.00    +0.123 A 
ATOM     17  F1  UNL     1      17.244  -2.009  22.747  0.00  0.00    -0.205 F 
ATOM     18  C19 UNL     1      16.972   0.358  22.858  0.00  0.00    +0.038 A 
ATOM     19  C20 UNL     1      16.669   1.567  22.225  0.00  0.00    +0.008 A 
ENDBRANCH  11  13
ENDBRANCH   8  11
BRANCH   1  20
ATOM     20  C7  UNL     1      20.126   6.801  24.115  0.00  0.00    +0.110 C 
BRANCH  20  24
ATOM     21  N1  UNL     1      22.024   4.658  26.678  0.00  0.00    -0.269 N 
ATOM     22  C6  UNL     1      20.952   5.120  25.845  0.00  0.00    +0.304 C 
ATOM     23  O1  UNL     1      19.863   4.486  25.799  0.00  0.00    -0.253 OA
ATOM     24  N2  UNL     1      21.141   6.291  25.037  0.00  0.00    -0.299 N 
ATOM     25  H6  UNL     1      22.971   5.069  26.522  0.00  0.00    +0.156 HD
ATOM     26  H7  UNL     1      22.026   6.831  25.151  0.00  0.00    +0.150 HD
BRANCH  21  31
ATOM     27  C1  UNL     1      21.271   0.318  30.382  0.00  0.00    +0.044 C 
ATOM     28  C2  UNL     1      21.515   1.452  29.431  0.00  0.00    -0.050 A 
ATOM     29  C3  UNL     1      21.913   1.200  28.112  0.00  0.00    +0.005 A 
ATOM     30  C4  UNL     1      22.094   2.256  27.218  0.00  0.00    +0.024 A 
ATOM     31  C5  UNL     1      21.884   3.583  27.624  0.00  0.00    +0.038 A 
ATOM     32  C22 UNL     1      21.475   3.843  28.952  0.00  0.00    -0.029 A 
ATOM     33  C23 UNL     1      21.220   5.247  29.423  0.00  0.00    +0.045 C 
ATOM     34  C24 UNL     1      21.281   2.772  29.840  0.00  0.00    +0.008 A 
ENDBRANCH  21  31
ENDBRANCH  20  24
ENDBRANCH   1  20
TORSDOF 5
ENDMDL
