MODEL 1
REMARK VINA RESULT:    -7.975      0.000      0.000
REMARK INTER + INTRA:         -10.103
REMARK INTER:                  -9.373
REMARK INTRA:                  -0.729
REMARK UNBOUND:                -0.729
REMARK  Name = /home/qwerty/github/datacon2025hack/step_04_hit_selection/docking/ligands/lig_259.pdb
REMARK  3 active torsions:
REMARK  status: ('A' for Active; 'I' for Inactive)
REMARK    1  A    between atoms: C1_2  and  C17_22
REMARK    2  A    between atoms: N1_3  and  C2_4
REMARK    3  A    between atoms: C7_10  and  C8_11
REMARK                            x       y       z     vdW  Elec       q    Type
REMARK                         _______ _______ _______ _____ _____    ______ ____
ROOT
ATOM      1  C2  UNL     1      20.304   1.525  30.515  0.00  0.00    +0.061 A 
ATOM      2  C3  UNL     1      19.747   0.457  31.252  0.00  0.00    +0.025 A 
ATOM      3  C4  UNL     1      19.877   0.404  32.657  0.00  0.00    +0.004 A 
ATOM      4  C5  UNL     1      20.550   1.427  33.350  0.00  0.00    +0.028 A 
ATOM      5  C6  UNL     1      21.071   2.478  32.600  0.00  0.00    +0.068 A 
ATOM      6  N2  UNL     1      21.701   3.574  33.038  0.00  0.00    -0.337 N 
ATOM      7  C7  UNL     1      21.947   4.282  31.907  0.00  0.00    +0.156 A 
ATOM      8  N4  UNL     1      21.494   3.676  30.778  0.00  0.00    -0.224 NA
ATOM      9  C16 UNL     1      20.953   2.533  31.242  0.00  0.00    +0.111 A 
ATOM     10  H5  UNL     1      21.933   3.824  34.026  0.00  0.00    +0.167 HD
ENDROOT
BRANCH   7  11
ATOM     11  C8  UNL     1      22.629   5.586  31.889  0.00  0.00    +0.083 A 
ATOM     12  C9  UNL     1      22.353   6.634  31.012  0.00  0.00    +0.039 A 
ATOM     13  C10 UNL     1      23.229   7.635  31.370  0.00  0.00    +0.000 A 
ATOM     14  C11 UNL     1      23.410   8.913  30.844  0.00  0.00    +0.010 A 
ATOM     15  C12 UNL     1      24.400   9.727  31.425  0.00  0.00    +0.001 A 
ATOM     16  C13 UNL     1      25.174   9.250  32.506  0.00  0.00    +0.002 A 
ATOM     17  C14 UNL     1      24.968   7.956  33.015  0.00  0.00    +0.026 A 
ATOM     18  C15 UNL     1      23.981   7.171  32.418  0.00  0.00    +0.047 A 
ATOM     19  N3  UNL     1      23.623   5.919  32.746  0.00  0.00    -0.352 N 
ATOM     20  H11 UNL     1      24.031   5.328  33.506  0.00  0.00    +0.166 HD
ENDBRANCH   7  11
BRANCH   1  23
ATOM     21  O1  UNL     1      22.173   0.574  28.533  0.00  0.00    -0.270 OA
ATOM     22  C1  UNL     1      21.202   1.290  28.163  0.00  0.00    +0.248 C 
ATOM     23  N1  UNL     1      20.143   1.583  29.089  0.00  0.00    -0.280 N 
ATOM     24  H1  UNL     1      19.177   1.703  28.710  0.00  0.00    +0.155 HD
BRANCH  22  25
ATOM     25  C17 UNL     1      21.147   1.780  26.764  0.00  0.00    +0.040 A 
ATOM     26  C18 UNL     1      20.284   1.187  25.824  0.00  0.00    +0.013 A 
ATOM     27  C19 UNL     1      20.233   1.662  24.510  0.00  0.00    +0.004 A 
ATOM     28  C20 UNL     1      21.037   2.736  24.120  0.00  0.00    +0.038 A 
ATOM     29  C21 UNL     1      21.891   3.339  25.047  0.00  0.00    +0.124 A 
ATOM     30  F1  UNL     1      22.670   4.384  24.669  0.00  0.00    -0.205 F 
ATOM     31  C22 UNL     1      21.945   2.867  26.362  0.00  0.00    +0.051 A 
ENDBRANCH  22  25
ENDBRANCH   1  23
TORSDOF 3
ENDMDL
MODEL 2
REMARK VINA RESULT:    -7.847      3.925      9.621
REMARK INTER + INTRA:          -9.952
REMARK INTER:                  -9.225
REMARK INTRA:                  -0.727
REMARK UNBOUND:                -0.729
REMARK  Name = /home/qwerty/github/datacon2025hack/step_04_hit_selection/docking/ligands/lig_259.pdb
REMARK  3 active torsions:
REMARK  status: ('A' for Active; 'I' for Inactive)
REMARK    1  A    between atoms: C1_2  and  C17_22
REMARK    2  A    between atoms: N1_3  and  C2_4
REMARK    3  A    between atoms: C7_10  and  C8_11
REMARK                            x       y       z     vdW  Elec       q    Type
REMARK                         _______ _______ _______ _____ _____    ______ ____
ROOT
ATOM      1  C2  UNL     1      21.523   2.970  27.285  0.00  0.00    +0.061 A 
ATOM      2  C3  UNL     1      22.468   3.756  26.591  0.00  0.00    +0.025 A 
ATOM      3  C4  UNL     1      22.547   3.711  25.181  0.00  0.00    +0.004 A 
ATOM      4  C5  UNL     1      21.671   2.895  24.443  0.00  0.00    +0.028 A 
ATOM      5  C6  UNL     1      20.736   2.147  25.154  0.00  0.00    +0.068 A 
ATOM      6  N2  UNL     1      19.779   1.345  24.671  0.00  0.00    -0.337 N 
ATOM      7  C7  UNL     1      19.128   0.912  25.780  0.00  0.00    +0.156 A 
ATOM      8  N4  UNL     1      19.636   1.412  26.938  0.00  0.00    -0.224 NA
ATOM      9  C16 UNL     1      20.656   2.182  26.515  0.00  0.00    +0.111 A 
ATOM     10  H5  UNL     1      19.580   1.122  23.670  0.00  0.00    +0.167 HD
ENDROOT
BRANCH   7  11
ATOM     11  C8  UNL     1      17.976  -0.003  25.748  0.00  0.00    +0.083 A 
ATOM     12  C9  UNL     1      17.837  -1.104  24.904  0.00  0.00    +0.039 A 
ATOM     13  C10 UNL     1      16.616  -1.650  25.233  0.00  0.00    +0.000 A 
ATOM     14  C11 UNL     1      15.952  -2.763  24.719  0.00  0.00    +0.010 A 
ATOM     15  C12 UNL     1      14.695  -3.085  25.262  0.00  0.00    +0.001 A 
ATOM     16  C13 UNL     1      14.137  -2.296  26.293  0.00  0.00    +0.002 A 
ATOM     17  C14 UNL     1      14.832  -1.179  26.790  0.00  0.00    +0.026 A 
ATOM     18  C15 UNL     1      16.076  -0.884  26.233  0.00  0.00    +0.047 A 
ATOM     19  N3  UNL     1      16.898   0.127  26.558  0.00  0.00    -0.352 N 
ATOM     20  H11 UNL     1      16.735   0.859  27.286  0.00  0.00    +0.166 HD
ENDBRANCH   7  11
BRANCH   1  23
ATOM     21  O1  UNL     1      22.873   1.267  29.183  0.00  0.00    -0.270 OA
ATOM     22  C1  UNL     1      21.958   2.032  29.594  0.00  0.00    +0.248 C 
ATOM     23  N1  UNL     1      21.433   3.043  28.717  0.00  0.00    -0.280 N 
ATOM     24  H1  UNL     1      21.100   3.938  29.141  0.00  0.00    +0.155 HD
BRANCH  22  25
ATOM     25  C17 UNL     1      21.470   1.906  30.989  0.00  0.00    +0.040 A 
ATOM     26  C18 UNL     1      21.847   2.840  31.973  0.00  0.00    +0.013 A 
ATOM     27  C19 UNL     1      21.374   2.717  33.283  0.00  0.00    +0.004 A 
ATOM     28  C20 UNL     1      20.519   1.667  33.625  0.00  0.00    +0.038 A 
ATOM     29  C21 UNL     1      20.131   0.740  32.655  0.00  0.00    +0.124 A 
ATOM     30  F1  UNL     1      19.297  -0.277  32.987  0.00  0.00    -0.205 F 
ATOM     31  C22 UNL     1      20.600   0.859  31.343  0.00  0.00    +0.051 A 
ENDBRANCH  22  25
ENDBRANCH   1  23
TORSDOF 3
ENDMDL
MODEL 3
REMARK VINA RESULT:    -7.446     14.041     15.050
REMARK INTER + INTRA:          -9.481
REMARK INTER:                  -8.748
REMARK INTRA:                  -0.733
REMARK UNBOUND:                -0.729
REMARK  Name = /home/qwerty/github/datacon2025hack/step_04_hit_selection/docking/ligands/lig_259.pdb
REMARK  3 active torsions:
REMARK  status: ('A' for Active; 'I' for Inactive)
REMARK    1  A    between atoms: C1_2  and  C17_22
REMARK    2  A    between atoms: N1_3  and  C2_4
REMARK    3  A    between atoms: C7_10  and  C8_11
REMARK                            x       y       z     vdW  Elec       q    Type
REMARK                         _______ _______ _______ _____ _____    ______ ____
ROOT
ATOM      1  C2  UNL     1      11.192  13.131  28.361  0.00  0.00    +0.061 A 
ATOM      2  C3  UNL     1      11.768  14.106  27.517  0.00  0.00    +0.025 A 
ATOM      3  C4  UNL     1      12.525  15.169  28.056  0.00  0.00    +0.004 A 
ATOM      4  C5  UNL     1      12.734  15.265  29.444  0.00  0.00    +0.028 A 
ATOM      5  C6  UNL     1      12.172  14.277  30.249  0.00  0.00    +0.068 A 
ATOM      6  N2  UNL     1      12.275  14.134  31.576  0.00  0.00    -0.337 N 
ATOM      7  C7  UNL     1      11.588  12.993  31.834  0.00  0.00    +0.156 A 
ATOM      8  N4  UNL     1      11.060  12.414  30.723  0.00  0.00    -0.224 NA
ATOM      9  C16 UNL     1      11.436  13.250  29.736  0.00  0.00    +0.111 A 
ATOM     10  H5  UNL     1      12.782  14.755  32.246  0.00  0.00    +0.167 HD
ENDROOT
BRANCH   7  11
ATOM     11  C8  UNL     1      11.428  12.420  33.180  0.00  0.00    +0.083 A 
ATOM     12  C9  UNL     1      11.413  11.060  33.487  0.00  0.00    +0.039 A 
ATOM     13  C10 UNL     1      11.244  11.007  34.852  0.00  0.00    +0.000 A 
ATOM     14  C11 UNL     1      11.154   9.915  35.714  0.00  0.00    +0.010 A 
ATOM     15  C12 UNL     1      10.978  10.174  37.086  0.00  0.00    +0.001 A 
ATOM     16  C13 UNL     1      10.897  11.504  37.558  0.00  0.00    +0.002 A 
ATOM     17  C14 UNL     1      10.990  12.585  36.663  0.00  0.00    +0.026 A 
ATOM     18  C15 UNL     1      11.163  12.297  35.310  0.00  0.00    +0.047 A 
ATOM     19  N3  UNL     1      11.276  13.171  34.296  0.00  0.00    -0.352 N 
ATOM     20  H11 UNL     1      11.250  14.214  34.362  0.00  0.00    +0.166 HD
ENDBRANCH   7  11
BRANCH   1  23
ATOM     21  O1  UNL     1       8.336  13.021  27.968  0.00  0.00    -0.270 OA
ATOM     22  C1  UNL     1       9.011  11.963  27.834  0.00  0.00    +0.248 C 
ATOM     23  N1  UNL     1      10.446  12.038  27.801  0.00  0.00    -0.280 N 
ATOM     24  H1  UNL     1      10.962  11.341  27.219  0.00  0.00    +0.155 HD
BRANCH  22  25
ATOM     25  C17 UNL     1       8.312  10.666  27.667  0.00  0.00    +0.040 A 
ATOM     26  C18 UNL     1       8.128  10.104  26.389  0.00  0.00    +0.013 A 
ATOM     27  C19 UNL     1       7.476   8.875  26.244  0.00  0.00    +0.004 A 
ATOM     28  C20 UNL     1       7.005   8.193  27.368  0.00  0.00    +0.038 A 
ATOM     29  C21 UNL     1       7.191   8.736  28.642  0.00  0.00    +0.124 A 
ATOM     30  F1  UNL     1       6.737   8.071  29.733  0.00  0.00    -0.205 F 
ATOM     31  C22 UNL     1       7.843   9.964  28.792  0.00  0.00    +0.051 A 
ENDBRANCH  22  25
ENDBRANCH   1  23
TORSDOF 3
ENDMDL
MODEL 4
REMARK VINA RESULT:    -7.408     13.971     16.120
REMARK INTER + INTRA:          -9.436
REMARK INTER:                  -8.713
REMARK INTRA:                  -0.723
REMARK UNBOUND:                -0.729
REMARK  Name = /home/qwerty/github/datacon2025hack/step_04_hit_selection/docking/ligands/lig_259.pdb
REMARK  3 active torsions:
REMARK  status: ('A' for Active; 'I' for Inactive)
REMARK    1  A    between atoms: C1_2  and  C17_22
REMARK    2  A    between atoms: N1_3  and  C2_4
REMARK    3  A    between atoms: C7_10  and  C8_11
REMARK                            x       y       z     vdW  Elec       q    Type
REMARK                         _______ _______ _______ _____ _____    ______ ____
ROOT
ATOM      1  C2  UNL     1       8.856  10.626  29.114  0.00  0.00    +0.061 A 
ATOM      2  C3  UNL     1       7.904  10.065  29.993  0.00  0.00    +0.025 A 
ATOM      3  C4  UNL     1       6.877   9.227  29.504  0.00  0.00    +0.004 A 
ATOM      4  C5  UNL     1       6.795   8.922  28.134  0.00  0.00    +0.028 A 
ATOM      5  C6  UNL     1       7.760   9.473  27.294  0.00  0.00    +0.068 A 
ATOM      6  N2  UNL     1       7.912   9.289  25.977  0.00  0.00    -0.337 N 
ATOM      7  C7  UNL     1       9.023  10.007  25.674  0.00  0.00    +0.156 A 
ATOM      8  N4  UNL     1       9.574  10.633  26.748  0.00  0.00    -0.224 NA
ATOM      9  C16 UNL     1       8.752  10.287  27.757  0.00  0.00    +0.111 A 
ATOM     10  H5  UNL     1       7.317   8.712  25.341  0.00  0.00    +0.167 HD
ENDROOT
BRANCH   7  11
ATOM     11  C8  UNL     1       9.593  10.103  24.321  0.00  0.00    +0.083 A 
ATOM     12  C9  UNL     1      10.947  10.234  24.018  0.00  0.00    +0.039 A 
ATOM     13  C10 UNL     1      10.999  10.283  22.643  0.00  0.00    +0.000 A 
ATOM     14  C11 UNL     1      12.086  10.408  21.780  0.00  0.00    +0.010 A 
ATOM     15  C12 UNL     1      11.828  10.429  20.397  0.00  0.00    +0.001 A 
ATOM     16  C13 UNL     1      10.503  10.326  19.915  0.00  0.00    +0.002 A 
ATOM     17  C14 UNL     1       9.427  10.202  20.812  0.00  0.00    +0.026 A 
ATOM     18  C15 UNL     1       9.714  10.184  22.176  0.00  0.00    +0.047 A 
ATOM     19  N3  UNL     1       8.843  10.073  23.193  0.00  0.00    -0.352 N 
ATOM     20  H11 UNL     1       7.805   9.982  23.123  0.00  0.00    +0.166 HD
ENDBRANCH   7  11
BRANCH   1  23
ATOM     21  O1  UNL     1       8.733  13.469  29.592  0.00  0.00    -0.270 OA
ATOM     22  C1  UNL     1       9.853  12.891  29.633  0.00  0.00    +0.248 C 
ATOM     23  N1  UNL     1       9.912  11.455  29.624  0.00  0.00    -0.280 N 
ATOM     24  H1  UNL     1      10.692  10.991  30.140  0.00  0.00    +0.155 HD
BRANCH  22  25
ATOM     25  C17 UNL     1      11.091  13.703  29.735  0.00  0.00    +0.040 A 
ATOM     26  C18 UNL     1      11.613  14.069  30.991  0.00  0.00    +0.013 A 
ATOM     27  C19 UNL     1      12.785  14.826  31.077  0.00  0.00    +0.004 A 
ATOM     28  C20 UNL     1      13.451  15.223  29.915  0.00  0.00    +0.038 A 
ATOM     29  C21 UNL     1      12.948  14.858  28.663  0.00  0.00    +0.124 A 
ATOM     30  F1  UNL     1      13.597  15.240  27.535  0.00  0.00    -0.205 F 
ATOM     31  C22 UNL     1      11.776  14.100  28.572  0.00  0.00    +0.051 A 
ENDBRANCH  22  25
ENDBRANCH   1  23
TORSDOF 3
ENDMDL
MODEL 5
REMARK VINA RESULT:    -7.392      5.978      9.011
REMARK INTER + INTRA:          -9.418
REMARK INTER:                  -8.753
REMARK INTRA:                  -0.665
REMARK UNBOUND:                -0.729
REMARK  Name = /home/qwerty/github/datacon2025hack/step_04_hit_selection/docking/ligands/lig_259.pdb
REMARK  3 active torsions:
REMARK  status: ('A' for Active; 'I' for Inactive)
REMARK    1  A    between atoms: C1_2  and  C17_22
REMARK    2  A    between atoms: N1_3  and  C2_4
REMARK    3  A    between atoms: C7_10  and  C8_11
REMARK                            x       y       z     vdW  Elec       q    Type
REMARK                         _______ _______ _______ _____ _____    ______ ____
ROOT
ATOM      1  C2  UNL     1      20.216   1.030  25.737  0.00  0.00    +0.061 A 
ATOM      2  C3  UNL     1      20.829   0.868  26.998  0.00  0.00    +0.025 A 
ATOM      3  C4  UNL     1      21.838   1.758  27.429  0.00  0.00    +0.004 A 
ATOM      4  C5  UNL     1      22.237   2.833  26.614  0.00  0.00    +0.028 A 
ATOM      5  C6  UNL     1      21.600   2.980  25.384  0.00  0.00    +0.068 A 
ATOM      6  N2  UNL     1      21.776   3.942  24.471  0.00  0.00    -0.337 N 
ATOM      7  C7  UNL     1      20.879   3.637  23.500  0.00  0.00    +0.156 A 
ATOM      8  N4  UNL     1      20.147   2.524  23.768  0.00  0.00    -0.224 NA
ATOM      9  C16 UNL     1      20.628   2.122  24.960  0.00  0.00    +0.111 A 
ATOM     10  H5  UNL     1      22.442   4.746  24.513  0.00  0.00    +0.167 HD
ENDROOT
BRANCH   7  11
ATOM     11  C8  UNL     1      20.698   4.430  22.274  0.00  0.00    +0.083 A 
ATOM     12  C9  UNL     1      19.486   4.934  21.804  0.00  0.00    +0.039 A 
ATOM     13  C10 UNL     1      19.807   5.601  20.642  0.00  0.00    +0.000 A 
ATOM     14  C11 UNL     1      19.001   6.299  19.746  0.00  0.00    +0.010 A 
ATOM     15  C12 UNL     1      19.620   6.887  18.627  0.00  0.00    +0.001 A 
ATOM     16  C13 UNL     1      21.014   6.763  18.434  0.00  0.00    +0.002 A 
ATOM     17  C14 UNL     1      21.801   6.051  19.357  0.00  0.00    +0.026 A 
ATOM     18  C15 UNL     1      21.159   5.480  20.455  0.00  0.00    +0.047 A 
ATOM     19  N3  UNL     1      21.717   4.766  21.447  0.00  0.00    -0.352 N 
ATOM     20  H11 UNL     1      22.728   4.523  21.554  0.00  0.00    +0.166 HD
ENDBRANCH   7  11
BRANCH   1  23
ATOM     21  O1  UNL     1      17.377   1.539  25.827  0.00  0.00    -0.270 OA
ATOM     22  C1  UNL     1      17.779   0.366  25.592  0.00  0.00    +0.248 C 
ATOM     23  N1  UNL     1      19.172   0.136  25.319  0.00  0.00    -0.280 N 
ATOM     24  H1  UNL     1      19.424  -0.639  24.666  0.00  0.00    +0.155 HD
BRANCH  22  25
ATOM     25  C17 UNL     1      16.802  -0.749  25.556  0.00  0.00    +0.040 A 
ATOM     26  C18 UNL     1      17.028  -1.883  24.753  0.00  0.00    +0.013 A 
ATOM     27  C19 UNL     1      16.105  -2.933  24.734  0.00  0.00    +0.004 A 
ATOM     28  C20 UNL     1      14.950  -2.866  25.517  0.00  0.00    +0.038 A 
ATOM     29  C21 UNL     1      14.719  -1.751  26.326  0.00  0.00    +0.124 A 
ATOM     30  F1  UNL     1      13.600  -1.688  27.089  0.00  0.00    -0.205 F 
ATOM     31  C22 UNL     1      15.640  -0.698  26.349  0.00  0.00    +0.051 A 
ENDBRANCH  22  25
ENDBRANCH   1  23
TORSDOF 3
ENDMDL
MODEL 6
REMARK VINA RESULT:    -7.304      8.577     11.288
REMARK INTER + INTRA:          -9.314
REMARK INTER:                  -8.582
REMARK INTRA:                  -0.732
REMARK UNBOUND:                -0.729
REMARK  Name = /home/qwerty/github/datacon2025hack/step_04_hit_selection/docking/ligands/lig_259.pdb
REMARK  3 active torsions:
REMARK  status: ('A' for Active; 'I' for Inactive)
REMARK    1  A    between atoms: C1_2  and  C17_22
REMARK    2  A    between atoms: N1_3  and  C2_4
REMARK    3  A    between atoms: C7_10  and  C8_11
REMARK                            x       y       z     vdW  Elec       q    Type
REMARK                         _______ _______ _______ _____ _____    ______ ____
ROOT
ATOM      1  C2  UNL     1      17.176  13.808  35.291  0.00  0.00    +0.061 A 
ATOM      2  C3  UNL     1      15.942  14.284  35.785  0.00  0.00    +0.025 A 
ATOM      3  C4  UNL     1      15.216  13.544  36.744  0.00  0.00    +0.004 A 
ATOM      4  C5  UNL     1      15.719  12.326  37.237  0.00  0.00    +0.028 A 
ATOM      5  C6  UNL     1      16.948  11.892  36.747  0.00  0.00    +0.068 A 
ATOM      6  N2  UNL     1      17.640  10.802  37.098  0.00  0.00    -0.337 N 
ATOM      7  C7  UNL     1      18.775  10.886  36.360  0.00  0.00    +0.156 A 
ATOM      8  N4  UNL     1      18.823  11.985  35.561  0.00  0.00    -0.224 NA
ATOM      9  C16 UNL     1      17.653  12.599  35.817  0.00  0.00    +0.111 A 
ATOM     10  H5  UNL     1      17.367  10.070  37.792  0.00  0.00    +0.167 HD
ENDROOT
BRANCH   7  11
ATOM     11  C8  UNL     1      19.862   9.895  36.413  0.00  0.00    +0.083 A 
ATOM     12  C9  UNL     1      20.830   9.698  35.429  0.00  0.00    +0.039 A 
ATOM     13  C10 UNL     1      21.624   8.682  35.912  0.00  0.00    +0.000 A 
ATOM     14  C11 UNL     1      22.745   8.065  35.359  0.00  0.00    +0.010 A 
ATOM     15  C12 UNL     1      23.360   7.037  36.097  0.00  0.00    +0.001 A 
ATOM     16  C13 UNL     1      22.846   6.655  37.357  0.00  0.00    +0.002 A 
ATOM     17  C14 UNL     1      21.712   7.296  37.888  0.00  0.00    +0.026 A 
ATOM     18  C15 UNL     1      21.124   8.311  37.134  0.00  0.00    +0.047 A 
ATOM     19  N3  UNL     1      20.046   9.046  37.452  0.00  0.00    -0.352 N 
ATOM     20  H11 UNL     1      19.472   8.974  38.323  0.00  0.00    +0.166 HD
ENDBRANCH   7  11
BRANCH   1  23
ATOM     21  O1  UNL     1      16.998  13.624  32.417  0.00  0.00    -0.270 OA
ATOM     22  C1  UNL     1      17.941  14.289  32.928  0.00  0.00    +0.248 C 
ATOM     23  N1  UNL     1      17.920  14.581  34.335  0.00  0.00    -0.280 N 
ATOM     24  H1  UNL     1      18.346  15.478  34.658  0.00  0.00    +0.155 HD
BRANCH  22  25
ATOM     25  C17 UNL     1      19.032  14.796  32.061  0.00  0.00    +0.040 A 
ATOM     26  C18 UNL     1      19.185  16.176  31.826  0.00  0.00    +0.013 A 
ATOM     27  C19 UNL     1      20.223  16.645  31.015  0.00  0.00    +0.004 A 
ATOM     28  C20 UNL     1      21.121  15.746  30.434  0.00  0.00    +0.038 A 
ATOM     29  C21 UNL     1      20.985  14.375  30.668  0.00  0.00    +0.124 A 
ATOM     30  F1  UNL     1      21.859  13.503  30.107  0.00  0.00    -0.205 F 
ATOM     31  C22 UNL     1      19.949  13.902  31.479  0.00  0.00    +0.051 A 
ENDBRANCH  22  25
ENDBRANCH   1  23
TORSDOF 3
ENDMDL
MODEL 7
REMARK VINA RESULT:    -7.076      5.861     10.626
REMARK INTER + INTRA:          -9.046
REMARK INTER:                  -8.310
REMARK INTRA:                  -0.736
REMARK UNBOUND:                -0.729
REMARK  Name = /home/qwerty/github/datacon2025hack/step_04_hit_selection/docking/ligands/lig_259.pdb
REMARK  3 active torsions:
REMARK  status: ('A' for Active; 'I' for Inactive)
REMARK    1  A    between atoms: C1_2  and  C17_22
REMARK    2  A    between atoms: N1_3  and  C2_4
REMARK    3  A    between atoms: C7_10  and  C8_11
REMARK                            x       y       z     vdW  Elec       q    Type
REMARK                         _______ _______ _______ _____ _____    ______ ____
ROOT
ATOM      1  C2  UNL     1      18.420  -0.944  24.613  0.00  0.00    +0.061 A 
ATOM      2  C3  UNL     1      18.405  -2.249  25.151  0.00  0.00    +0.025 A 
ATOM      3  C4  UNL     1      17.278  -3.085  24.983  0.00  0.00    +0.004 A 
ATOM      4  C5  UNL     1      16.157  -2.636  24.261  0.00  0.00    +0.028 A 
ATOM      5  C6  UNL     1      16.210  -1.352  23.725  0.00  0.00    +0.068 A 
ATOM      6  N2  UNL     1      15.295  -0.734  22.969  0.00  0.00    -0.337 N 
ATOM      7  C7  UNL     1      15.865   0.464  22.681  0.00  0.00    +0.156 A 
ATOM      8  N4  UNL     1      17.102   0.620  23.224  0.00  0.00    -0.224 NA
ATOM      9  C16 UNL     1      17.293  -0.537  23.886  0.00  0.00    +0.111 A 
ATOM     10  H5  UNL     1      14.365  -1.101  22.665  0.00  0.00    +0.167 HD
ENDROOT
BRANCH   7  11
ATOM     11  C8  UNL     1      15.224   1.499  21.856  0.00  0.00    +0.083 A 
ATOM     12  C9  UNL     1      15.891   2.464  21.101  0.00  0.00    +0.039 A 
ATOM     13  C10 UNL     1      14.891   3.200  20.506  0.00  0.00    +0.000 A 
ATOM     14  C11 UNL     1      14.960   4.292  19.643  0.00  0.00    +0.010 A 
ATOM     15  C12 UNL     1      13.749   4.848  19.189  0.00  0.00    +0.001 A 
ATOM     16  C13 UNL     1      12.513   4.304  19.603  0.00  0.00    +0.002 A 
ATOM     17  C14 UNL     1      12.476   3.201  20.476  0.00  0.00    +0.026 A 
ATOM     18  C15 UNL     1      13.692   2.673  20.909  0.00  0.00    +0.047 A 
ATOM     19  N3  UNL     1      13.881   1.631  21.735  0.00  0.00    -0.352 N 
ATOM     20  H11 UNL     1      13.143   1.046  22.188  0.00  0.00    +0.166 HD
ENDBRANCH   7  11
BRANCH   1  23
ATOM     21  O1  UNL     1      19.017   0.784  26.846  0.00  0.00    -0.270 OA
ATOM     22  C1  UNL     1      19.710   0.882  25.796  0.00  0.00    +0.248 C 
ATOM     23  N1  UNL     1      19.581  -0.112  24.766  0.00  0.00    -0.280 N 
ATOM     24  H1  UNL     1      20.424  -0.339  24.193  0.00  0.00    +0.155 HD
BRANCH  22  25
ATOM     25  C17 UNL     1      20.679   1.997  25.662  0.00  0.00    +0.040 A 
ATOM     26  C18 UNL     1      21.690   2.194  26.621  0.00  0.00    +0.013 A 
ATOM     27  C19 UNL     1      22.605   3.243  26.481  0.00  0.00    +0.004 A 
ATOM     28  C20 UNL     1      22.525   4.101  25.382  0.00  0.00    +0.038 A 
ATOM     29  C21 UNL     1      21.532   3.909  24.418  0.00  0.00    +0.124 A 
ATOM     30  F1  UNL     1      21.457   4.741  23.349  0.00  0.00    -0.205 F 
ATOM     31  C22 UNL     1      20.615   2.862  24.554  0.00  0.00    +0.051 A 
ENDBRANCH  22  25
ENDBRANCH   1  23
TORSDOF 3
ENDMDL
MODEL 8
REMARK VINA RESULT:    -6.998     12.204     13.554
REMARK INTER + INTRA:          -8.954
REMARK INTER:                  -8.271
REMARK INTRA:                  -0.683
REMARK UNBOUND:                -0.729
REMARK  Name = /home/qwerty/github/datacon2025hack/step_04_hit_selection/docking/ligands/lig_259.pdb
REMARK  3 active torsions:
REMARK  status: ('A' for Active; 'I' for Inactive)
REMARK    1  A    between atoms: C1_2  and  C17_22
REMARK    2  A    between atoms: N1_3  and  C2_4
REMARK    3  A    between atoms: C7_10  and  C8_11
REMARK                            x       y       z     vdW  Elec       q    Type
REMARK                         _______ _______ _______ _____ _____    ______ ____
ROOT
ATOM      1  C2  UNL     1      13.527   3.510  20.078  0.00  0.00    +0.061 A 
ATOM      2  C3  UNL     1      13.551   2.112  20.274  0.00  0.00    +0.025 A 
ATOM      3  C4  UNL     1      14.772   1.402  20.253  0.00  0.00    +0.004 A 
ATOM      4  C5  UNL     1      15.988   2.079  20.053  0.00  0.00    +0.028 A 
ATOM      5  C6  UNL     1      15.935   3.460  19.883  0.00  0.00    +0.068 A 
ATOM      6  N2  UNL     1      16.954   4.314  19.728  0.00  0.00    -0.337 N 
ATOM      7  C7  UNL     1      16.354   5.528  19.658  0.00  0.00    +0.156 A 
ATOM      8  N4  UNL     1      15.000   5.471  19.766  0.00  0.00    -0.224 NA
ATOM      9  C16 UNL     1      14.760   4.153  19.898  0.00  0.00    +0.111 A 
ATOM     10  H5  UNL     1      17.974   4.088  19.685  0.00  0.00    +0.167 HD
ENDROOT
BRANCH   7  11
ATOM     11  C8  UNL     1      17.084   6.795  19.491  0.00  0.00    +0.083 A 
ATOM     12  C9  UNL     1      18.408   6.919  19.072  0.00  0.00    +0.039 A 
ATOM     13  C10 UNL     1      18.651   8.275  19.064  0.00  0.00    +0.000 A 
ATOM     14  C11 UNL     1      19.800   8.989  18.732  0.00  0.00    +0.010 A 
ATOM     15  C12 UNL     1      19.751  10.392  18.822  0.00  0.00    +0.001 A 
ATOM     16  C13 UNL     1      18.566  11.041  19.236  0.00  0.00    +0.002 A 
ATOM     17  C14 UNL     1      17.421  10.292  19.566  0.00  0.00    +0.026 A 
ATOM     18  C15 UNL     1      17.501   8.904  19.468  0.00  0.00    +0.047 A 
ATOM     19  N3  UNL     1      16.534   8.009  19.732  0.00  0.00    -0.352 N 
ATOM     20  H11 UNL     1      15.561   8.213  20.054  0.00  0.00    +0.166 HD
ENDBRANCH   7  11
BRANCH   1  23
ATOM     21  O1  UNL     1      12.346   4.747  22.402  0.00  0.00    -0.270 OA
ATOM     22  C1  UNL     1      11.652   4.628  21.355  0.00  0.00    +0.248 C 
ATOM     23  N1  UNL     1      12.283   4.227  20.127  0.00  0.00    -0.280 N 
ATOM     24  H1  UNL     1      11.896   4.597  19.231  0.00  0.00    +0.155 HD
BRANCH  22  25
ATOM     25  C17 UNL     1      10.204   4.949  21.397  0.00  0.00    +0.040 A 
ATOM     26  C18 UNL     1       9.683   6.036  20.670  0.00  0.00    +0.013 A 
ATOM     27  C19 UNL     1       8.316   6.324  20.710  0.00  0.00    +0.004 A 
ATOM     28  C20 UNL     1       7.453   5.530  21.469  0.00  0.00    +0.038 A 
ATOM     29  C21 UNL     1       7.957   4.443  22.188  0.00  0.00    +0.124 A 
ATOM     30  F1  UNL     1       7.118   3.670  22.922  0.00  0.00    -0.205 F 
ATOM     31  C22 UNL     1       9.324   4.151  22.151  0.00  0.00    +0.051 A 
ENDBRANCH  22  25
ENDBRANCH   1  23
TORSDOF 3
ENDMDL
MODEL 9
REMARK VINA RESULT:    -5.096     14.951     16.317
REMARK INTER + INTRA:          -6.719
REMARK INTER:                  -6.032
REMARK INTRA:                  -0.687
REMARK UNBOUND:                -0.729
REMARK  Name = /home/qwerty/github/datacon2025hack/step_04_hit_selection/docking/ligands/lig_259.pdb
REMARK  3 active torsions:
REMARK  status: ('A' for Active; 'I' for Inactive)
REMARK    1  A    between atoms: C1_2  and  C17_22
REMARK    2  A    between atoms: N1_3  and  C2_4
REMARK    3  A    between atoms: C7_10  and  C8_11
REMARK                            x       y       z     vdW  Elec       q    Type
REMARK                         _______ _______ _______ _____ _____    ______ ____
ROOT
ATOM      1  C2  UNL     1       8.003  10.627  26.872  0.00  0.00    +0.061 A 
ATOM      2  C3  UNL     1       8.379  11.893  27.370  0.00  0.00    +0.025 A 
ATOM      3  C4  UNL     1       8.351  12.160  28.757  0.00  0.00    +0.004 A 
ATOM      4  C5  UNL     1       7.963  11.162  29.668  0.00  0.00    +0.028 A 
ATOM      5  C6  UNL     1       7.618   9.916  29.150  0.00  0.00    +0.068 A 
ATOM      6  N2  UNL     1       7.268   8.810  29.817  0.00  0.00    -0.337 N 
ATOM      7  C7  UNL     1       7.089   7.884  28.842  0.00  0.00    +0.156 A 
ATOM      8  N4  UNL     1       7.315   8.364  27.590  0.00  0.00    -0.224 NA
ATOM      9  C16 UNL     1       7.639   9.652  27.811  0.00  0.00    +0.111 A 
ATOM     10  H5  UNL     1       7.171   8.694  30.851  0.00  0.00    +0.167 HD
ENDROOT
BRANCH   7  11
ATOM     11  C8  UNL     1       6.696   6.490  29.099  0.00  0.00    +0.083 A 
ATOM     12  C9  UNL     1       6.784   5.440  28.185  0.00  0.00    +0.039 A 
ATOM     13  C10 UNL     1       6.312   4.339  28.864  0.00  0.00    +0.000 A 
ATOM     14  C11 UNL     1       6.166   3.015  28.456  0.00  0.00    +0.010 A 
ATOM     15  C12 UNL     1       5.646   2.094  29.384  0.00  0.00    +0.001 A 
ATOM     16  C13 UNL     1       5.289   2.516  30.685  0.00  0.00    +0.002 A 
ATOM     17  C14 UNL     1       5.448   3.860  31.068  0.00  0.00    +0.026 A 
ATOM     18  C15 UNL     1       5.965   4.749  30.126  0.00  0.00    +0.047 A 
ATOM     19  N3  UNL     1       6.195   6.062  30.283  0.00  0.00    -0.352 N 
ATOM     20  H11 UNL     1       6.023   6.632  31.142  0.00  0.00    +0.166 HD
ENDBRANCH   7  11
BRANCH   1  23
ATOM     21  O1  UNL     1      10.146   9.307  25.460  0.00  0.00    -0.270 OA
ATOM     22  C1  UNL     1       9.247   9.893  24.796  0.00  0.00    +0.248 C 
ATOM     23  N1  UNL     1       8.061  10.357  25.462  0.00  0.00    -0.280 N 
ATOM     24  H1  UNL     1       7.164  10.360  24.926  0.00  0.00    +0.155 HD
BRANCH  22  25
ATOM     25  C17 UNL     1       9.409  10.053  23.330  0.00  0.00    +0.040 A 
ATOM     26  C18 UNL     1       8.308  10.371  22.512  0.00  0.00    +0.013 A 
ATOM     27  C19 UNL     1       8.472  10.529  21.133  0.00  0.00    +0.004 A 
ATOM     28  C20 UNL     1       9.735  10.377  20.554  0.00  0.00    +0.038 A 
ATOM     29  C21 UNL     1      10.837  10.071  21.357  0.00  0.00    +0.124 A 
ATOM     30  F1  UNL     1      12.063   9.927  20.796  0.00  0.00    -0.205 F 
ATOM     31  C22 UNL     1      10.677   9.913  22.737  0.00  0.00    +0.051 A 
ENDBRANCH  22  25
ENDBRANCH   1  23
TORSDOF 3
ENDMDL
