MODEL 1
REMARK VINA RESULT:    -7.460      0.000      0.000
REMARK INTER + INTRA:          -9.832
REMARK INTER:                  -9.204
REMARK INTRA:                  -0.627
REMARK UNBOUND:                -0.627
REMARK  Name = /home/qwerty/github/datacon2025hack/step_04_hit_selection/docking/ligands/lig_189.pdb
REMARK  4 active torsions:
REMARK  status: ('A' for Active; 'I' for Inactive)
REMARK    1  A    between atoms: N1_3  and  C2_4
REMARK    2  A    between atoms: N2_11  and  C8_12
REMARK    3  A    between atoms: C13_17  and  S1_18
REMARK    4  A    between atoms: S1_18  and  N3_21
REMARK                            x       y       z     vdW  Elec       q    Type
REMARK                         _______ _______ _______ _____ _____    ______ ____
ROOT
ATOM      1  C8  UNL     1      18.059   8.986  18.950  0.00  0.00    +0.035 A 
ATOM      2  C9  UNL     1      19.348   8.593  18.561  0.00  0.00    +0.024 A 
ATOM      3  C10 UNL     1      20.425   9.476  18.671  0.00  0.00    +0.010 A 
ATOM      4  C11 UNL     1      20.232  10.764  19.188  0.00  0.00    -0.016 A 
ATOM      5  C12 UNL     1      21.308  11.656  19.304  0.00  0.00    +0.037 A 
ATOM      6  C13 UNL     1      21.109  12.939  19.837  0.00  0.00    +0.106 A 
ATOM      7  C19 UNL     1      19.828  13.328  20.249  0.00  0.00    +0.029 A 
ATOM      8  C20 UNL     1      18.750  12.447  20.138  0.00  0.00    +0.010 A 
ATOM      9  C21 UNL     1      18.940  11.163  19.606  0.00  0.00    -0.016 A 
ATOM     10  C22 UNL     1      17.864  10.269  19.491  0.00  0.00    +0.032 A 
ENDROOT
BRANCH   1  14
ATOM     11  O1  UNL     1      17.493   6.799  20.755  0.00  0.00    -0.252 OA
ATOM     12  C1  UNL     1      16.818   6.900  19.693  0.00  0.00    +0.308 C 
ATOM     13  N1  UNL     1      15.829   5.910  19.370  0.00  0.00    -0.269 N 
ATOM     14  N2  UNL     1      16.975   8.045  18.843  0.00  0.00    -0.269 N 
ATOM     15  H1  UNL     1      15.098   6.166  18.668  0.00  0.00    +0.156 HD
ATOM     16  H6  UNL     1      16.215   8.248  18.156  0.00  0.00    +0.156 HD
BRANCH  13  17
ATOM     17  C2  UNL     1      15.723   4.633  20.021  0.00  0.00    +0.035 A 
ATOM     18  C3  UNL     1      14.760   4.452  21.027  0.00  0.00    +0.024 A 
ATOM     19  C4  UNL     1      14.621   3.213  21.661  0.00  0.00    +0.017 A 
ATOM     20  C5  UNL     1      15.433   2.139  21.284  0.00  0.00    +0.018 A 
ATOM     21 BR1  UNL     1      15.240   0.446  22.149  0.00  0.00    -0.050 Br
ATOM     22  C6  UNL     1      16.379   2.302  20.269  0.00  0.00    +0.017 A 
ATOM     23  C7  UNL     1      16.520   3.540  19.634  0.00  0.00    +0.024 A 
ENDBRANCH  13  17
ENDBRANCH   1  14
BRANCH   6  24
ATOM     24  S1  UNL     1      22.467  14.056  19.996  0.00  0.00    +0.061 S 
ATOM     25  O2  UNL     1      23.667  13.485  19.292  0.00  0.00    -0.153 OA
ATOM     26  O3  UNL     1      22.114  15.358  19.333  0.00  0.00    -0.153 OA
BRANCH  24  27
ATOM     27  N3  UNL     1      22.862  14.351  21.672  0.00  0.00    -0.177 NA
ATOM     28  C14 UNL     1      22.719  13.113  22.456  0.00  0.00    +0.109 C 
ATOM     29  C15 UNL     1      22.822  13.420  23.963  0.00  0.00    +0.017 C 
ATOM     30  C16 UNL     1      23.597  14.717  24.248  0.00  0.00    +0.003 C 
ATOM     31  C17 UNL     1      24.740  14.907  23.247  0.00  0.00    +0.017 C 
ATOM     32  C18 UNL     1      24.231  14.894  21.787  0.00  0.00    +0.109 C 
ENDBRANCH  24  27
ENDBRANCH   6  24
TORSDOF 4
ENDMDL
MODEL 2
REMARK VINA RESULT:    -7.361      5.166      5.666
REMARK INTER + INTRA:          -9.710
REMARK INTER:                  -9.274
REMARK INTRA:                  -0.435
REMARK UNBOUND:                -0.627
REMARK  Name = /home/qwerty/github/datacon2025hack/step_04_hit_selection/docking/ligands/lig_189.pdb
REMARK  4 active torsions:
REMARK  status: ('A' for Active; 'I' for Inactive)
REMARK    1  A    between atoms: N1_3  and  C2_4
REMARK    2  A    between atoms: N2_11  and  C8_12
REMARK    3  A    between atoms: C13_17  and  S1_18
REMARK    4  A    between atoms: S1_18  and  N3_21
REMARK                            x       y       z     vdW  Elec       q    Type
REMARK                         _______ _______ _______ _____ _____    ______ ____
ROOT
ATOM      1  C8  UNL     1      21.579   6.322  21.899  0.00  0.00    +0.035 A 
ATOM      2  C9  UNL     1      20.433   7.128  21.834  0.00  0.00    +0.024 A 
ATOM      3  C10 UNL     1      20.526   8.468  21.449  0.00  0.00    +0.010 A 
ATOM      4  C11 UNL     1      21.768   9.019  21.107  0.00  0.00    -0.016 A 
ATOM      5  C12 UNL     1      21.871  10.363  20.718  0.00  0.00    +0.037 A 
ATOM      6  C13 UNL     1      23.116  10.903  20.364  0.00  0.00    +0.106 A 
ATOM      7  C19 UNL     1      24.260  10.096  20.404  0.00  0.00    +0.029 A 
ATOM      8  C20 UNL     1      24.168   8.756  20.791  0.00  0.00    +0.010 A 
ATOM      9  C21 UNL     1      22.927   8.209  21.147  0.00  0.00    -0.016 A 
ATOM     10  C22 UNL     1      22.824   6.863  21.535  0.00  0.00    +0.032 A 
ENDROOT
BRANCH   1  14
ATOM     11  O1  UNL     1      20.994   5.314  24.545  0.00  0.00    -0.252 OA
ATOM     12  C1  UNL     1      21.284   4.491  23.633  0.00  0.00    +0.308 C 
ATOM     13  N1  UNL     1      21.374   3.088  23.928  0.00  0.00    -0.269 N 
ATOM     14  N2  UNL     1      21.445   4.940  22.279  0.00  0.00    -0.269 N 
ATOM     15  H1  UNL     1      21.317   2.420  23.126  0.00  0.00    +0.156 HD
ATOM     16  H6  UNL     1      21.385   4.225  21.520  0.00  0.00    +0.156 HD
BRANCH  13  17
ATOM     17  C2  UNL     1      21.437   2.546  25.257  0.00  0.00    +0.035 A 
ATOM     18  C3  UNL     1      20.508   1.567  25.646  0.00  0.00    +0.024 A 
ATOM     19  C4  UNL     1      20.562   1.007  26.926  0.00  0.00    +0.017 A 
ATOM     20  C5  UNL     1      21.553   1.409  27.825  0.00  0.00    +0.018 A 
ATOM     21 BR1  UNL     1      21.627   0.641  29.573  0.00  0.00    -0.050 Br
ATOM     22  C6  UNL     1      22.497   2.366  27.441  0.00  0.00    +0.017 A 
ATOM     23  C7  UNL     1      22.445   2.928  26.162  0.00  0.00    +0.024 A 
ENDBRANCH  13  17
ENDBRANCH   1  14
BRANCH   6  24
ATOM     24  S1  UNL     1      23.242  12.591  19.859  0.00  0.00    +0.061 S 
ATOM     25  O2  UNL     1      24.095  12.678  18.624  0.00  0.00    -0.153 OA
ATOM     26  O3  UNL     1      21.873  13.106  19.515  0.00  0.00    -0.153 OA
BRANCH  24  27
ATOM     27  N3  UNL     1      23.935  13.587  21.116  0.00  0.00    -0.177 NA
ATOM     28  C14 UNL     1      23.590  15.000  20.896  0.00  0.00    +0.109 C 
ATOM     29  C15 UNL     1      24.398  15.903  21.849  0.00  0.00    +0.017 C 
ATOM     30  C16 UNL     1      24.865  15.157  23.110  0.00  0.00    +0.003 C 
ATOM     31  C17 UNL     1      23.819  14.136  23.565  0.00  0.00    +0.017 C 
ATOM     32  C18 UNL     1      23.473  13.130  22.443  0.00  0.00    +0.109 C 
ENDBRANCH  24  27
ENDBRANCH   6  24
TORSDOF 4
ENDMDL
MODEL 3
REMARK VINA RESULT:    -7.068     14.336     16.815
REMARK INTER + INTRA:          -9.348
REMARK INTER:                  -8.849
REMARK INTRA:                  -0.499
REMARK UNBOUND:                -0.627
REMARK  Name = /home/qwerty/github/datacon2025hack/step_04_hit_selection/docking/ligands/lig_189.pdb
REMARK  4 active torsions:
REMARK  status: ('A' for Active; 'I' for Inactive)
REMARK    1  A    between atoms: N1_3  and  C2_4
REMARK    2  A    between atoms: N2_11  and  C8_12
REMARK    3  A    between atoms: C13_17  and  S1_18
REMARK    4  A    between atoms: S1_18  and  N3_21
REMARK                            x       y       z     vdW  Elec       q    Type
REMARK                         _______ _______ _______ _____ _____    ______ ____
ROOT
ATOM      1  C8  UNL     1      18.934  10.267  37.009  0.00  0.00    +0.035 A 
ATOM      2  C9  UNL     1      19.186   9.055  37.669  0.00  0.00    +0.024 A 
ATOM      3  C10 UNL     1      20.128   8.153  37.169  0.00  0.00    +0.010 A 
ATOM      4  C11 UNL     1      20.847   8.458  36.005  0.00  0.00    -0.016 A 
ATOM      5  C12 UNL     1      21.797   7.560  35.496  0.00  0.00    +0.037 A 
ATOM      6  C13 UNL     1      22.523   7.879  34.340  0.00  0.00    +0.106 A 
ATOM      7  C19 UNL     1      22.294   9.098  33.690  0.00  0.00    +0.029 A 
ATOM      8  C20 UNL     1      21.349   9.999  34.188  0.00  0.00    +0.010 A 
ATOM      9  C21 UNL     1      20.619   9.688  35.344  0.00  0.00    -0.016 A 
ATOM     10  C22 UNL     1      19.669  10.587  35.854  0.00  0.00    +0.032 A 
ENDROOT
BRANCH   1  14
ATOM     11  O1  UNL     1      16.149  10.493  36.267  0.00  0.00    -0.252 OA
ATOM     12  C1  UNL     1      16.635  11.341  37.064  0.00  0.00    +0.308 C 
ATOM     13  N1  UNL     1      15.826  12.426  37.545  0.00  0.00    -0.269 N 
ATOM     14  N2  UNL     1      17.971  11.182  37.562  0.00  0.00    -0.269 N 
ATOM     15  H1  UNL     1      16.143  12.922  38.409  0.00  0.00    +0.156 HD
ATOM     16  H6  UNL     1      18.234  11.708  38.426  0.00  0.00    +0.156 HD
BRANCH  13  17
ATOM     17  C2  UNL     1      14.563  12.805  36.973  0.00  0.00    +0.035 A 
ATOM     18  C3  UNL     1      14.471  13.997  36.237  0.00  0.00    +0.024 A 
ATOM     19  C4  UNL     1      13.258  14.377  35.652  0.00  0.00    +0.017 A 
ATOM     20  C5  UNL     1      12.131  13.562  35.785  0.00  0.00    +0.018 A 
ATOM     21 BR1  UNL     1      10.476  14.081  34.982  0.00  0.00    -0.050 Br
ATOM     22  C6  UNL     1      12.217  12.362  36.496  0.00  0.00    +0.017 A 
ATOM     23  C7  UNL     1      13.428  11.980  37.083  0.00  0.00    +0.024 A 
ENDBRANCH  13  17
ENDBRANCH   1  14
BRANCH   6  24
ATOM     24  S1  UNL     1      23.730   6.754  33.709  0.00  0.00    +0.061 S 
ATOM     25  O2  UNL     1      24.729   7.511  32.878  0.00  0.00    -0.153 OA
ATOM     26  O3  UNL     1      24.464   6.123  34.858  0.00  0.00    -0.153 OA
BRANCH  24  27
ATOM     27  N3  UNL     1      22.995   5.503  32.737  0.00  0.00    -0.177 NA
ATOM     28  C14 UNL     1      22.183   4.611  33.580  0.00  0.00    +0.109 C 
ATOM     29  C15 UNL     1      21.740   3.372  32.777  0.00  0.00    +0.017 C 
ATOM     30  C16 UNL     1      21.721   3.629  31.262  0.00  0.00    +0.003 C 
ATOM     31  C17 UNL     1      21.281   5.063  30.952  0.00  0.00    +0.017 C 
ATOM     32  C18 UNL     1      22.177   6.104  31.662  0.00  0.00    +0.109 C 
ENDBRANCH  24  27
ENDBRANCH   6  24
TORSDOF 4
ENDMDL
MODEL 4
REMARK VINA RESULT:    -7.062      8.418      9.704
REMARK INTER + INTRA:          -9.340
REMARK INTER:                  -8.666
REMARK INTRA:                  -0.674
REMARK UNBOUND:                -0.627
REMARK  Name = /home/qwerty/github/datacon2025hack/step_04_hit_selection/docking/ligands/lig_189.pdb
REMARK  4 active torsions:
REMARK  status: ('A' for Active; 'I' for Inactive)
REMARK    1  A    between atoms: N1_3  and  C2_4
REMARK    2  A    between atoms: N2_11  and  C8_12
REMARK    3  A    between atoms: C13_17  and  S1_18
REMARK    4  A    between atoms: S1_18  and  N3_21
REMARK                            x       y       z     vdW  Elec       q    Type
REMARK                         _______ _______ _______ _____ _____    ______ ____
ROOT
ATOM      1  C8  UNL     1      21.693   2.835  26.282  0.00  0.00    +0.035 A 
ATOM      2  C9  UNL     1      22.534   3.936  26.497  0.00  0.00    +0.024 A 
ATOM      3  C10 UNL     1      22.666   4.933  25.527  0.00  0.00    +0.010 A 
ATOM      4  C11 UNL     1      21.944   4.851  24.329  0.00  0.00    -0.016 A 
ATOM      5  C12 UNL     1      22.069   5.847  23.350  0.00  0.00    +0.037 A 
ATOM      6  C13 UNL     1      21.331   5.765  22.159  0.00  0.00    +0.106 A 
ATOM      7  C19 UNL     1      20.470   4.680  21.949  0.00  0.00    +0.029 A 
ATOM      8  C20 UNL     1      20.340   3.682  22.918  0.00  0.00    +0.010 A 
ATOM      9  C21 UNL     1      21.074   3.756  24.111  0.00  0.00    -0.016 A 
ATOM     10  C22 UNL     1      20.948   2.760  25.092  0.00  0.00    +0.032 A 
ENDROOT
BRANCH   1  14
ATOM     11  O1  UNL     1      19.923   2.936  28.566  0.00  0.00    -0.252 OA
ATOM     12  C1  UNL     1      20.765   1.999  28.492  0.00  0.00    +0.308 C 
ATOM     13  N1  UNL     1      20.872   1.039  29.555  0.00  0.00    -0.269 N 
ATOM     14  N2  UNL     1      21.564   1.837  27.311  0.00  0.00    -0.269 N 
ATOM     15  H1  UNL     1      21.344   0.131  29.342  0.00  0.00    +0.156 HD
ATOM     16  H6  UNL     1      22.018   0.909  27.154  0.00  0.00    +0.156 HD
BRANCH  13  17
ATOM     17  C2  UNL     1      20.285   1.206  30.856  0.00  0.00    +0.035 A 
ATOM     18  C3  UNL     1      19.042   0.613  31.132  0.00  0.00    +0.024 A 
ATOM     19  C4  UNL     1      18.460   0.743  32.396  0.00  0.00    +0.017 A 
ATOM     20  C5  UNL     1      19.121   1.454  33.402  0.00  0.00    +0.018 A 
ATOM     21 BR1  UNL     1      18.326   1.627  35.131  0.00  0.00    -0.050 Br
ATOM     22  C6  UNL     1      20.369   2.029  33.145  0.00  0.00    +0.017 A 
ATOM     23  C7  UNL     1      20.953   1.901  31.881  0.00  0.00    +0.024 A 
ENDBRANCH  13  17
ENDBRANCH   1  14
BRANCH   6  24
ATOM     24  S1  UNL     1      21.477   7.028  20.934  0.00  0.00    +0.061 S 
ATOM     25  O2  UNL     1      21.177   6.445  19.581  0.00  0.00    -0.153 OA
ATOM     26  O3  UNL     1      20.464   8.103  21.211  0.00  0.00    -0.153 OA
BRANCH  24  27
ATOM     27  N3  UNL     1      23.076   7.730  20.922  0.00  0.00    -0.177 NA
ATOM     28  C14 UNL     1      24.021   6.840  20.229  0.00  0.00    +0.109 C 
ATOM     29  C15 UNL     1      25.467   7.331  20.433  0.00  0.00    +0.017 C 
ATOM     30  C16 UNL     1      25.538   8.834  20.753  0.00  0.00    +0.003 C 
ATOM     31  C17 UNL     1      24.460   9.610  19.992  0.00  0.00    +0.017 C 
ATOM     32  C18 UNL     1      23.044   9.064  20.288  0.00  0.00    +0.109 C 
ENDBRANCH  24  27
ENDBRANCH   6  24
TORSDOF 4
ENDMDL
MODEL 5
REMARK VINA RESULT:    -6.962     11.991     15.019
REMARK INTER + INTRA:          -9.217
REMARK INTER:                  -8.882
REMARK INTRA:                  -0.335
REMARK UNBOUND:                -0.627
REMARK  Name = /home/qwerty/github/datacon2025hack/step_04_hit_selection/docking/ligands/lig_189.pdb
REMARK  4 active torsions:
REMARK  status: ('A' for Active; 'I' for Inactive)
REMARK    1  A    between atoms: N1_3  and  C2_4
REMARK    2  A    between atoms: N2_11  and  C8_12
REMARK    3  A    between atoms: C13_17  and  S1_18
REMARK    4  A    between atoms: S1_18  and  N3_21
REMARK                            x       y       z     vdW  Elec       q    Type
REMARK                         _______ _______ _______ _____ _____    ______ ____
ROOT
ATOM      1  C8  UNL     1       9.608  12.919  29.061  0.00  0.00    +0.035 A 
ATOM      2  C9  UNL     1       8.288  12.462  28.940  0.00  0.00    +0.024 A 
ATOM      3  C10 UNL     1       7.918  11.623  27.885  0.00  0.00    +0.010 A 
ATOM      4  C11 UNL     1       8.871  11.215  26.942  0.00  0.00    -0.016 A 
ATOM      5  C12 UNL     1       8.510  10.372  25.881  0.00  0.00    +0.037 A 
ATOM      6  C13 UNL     1       9.472   9.956  24.949  0.00  0.00    +0.106 A 
ATOM      7  C19 UNL     1      10.798  10.390  25.079  0.00  0.00    +0.029 A 
ATOM      8  C20 UNL     1      11.168  11.231  26.132  0.00  0.00    +0.010 A 
ATOM      9  C21 UNL     1      10.211  11.652  27.067  0.00  0.00    -0.016 A 
ATOM     10  C22 UNL     1      10.573  12.494  28.131  0.00  0.00    +0.032 A 
ENDROOT
BRANCH   1  14
ATOM     11  O1  UNL     1      11.800  12.520  30.904  0.00  0.00    -0.252 OA
ATOM     12  C1  UNL     1      10.978  13.449  31.132  0.00  0.00    +0.308 C 
ATOM     13  N1  UNL     1      11.104  14.250  32.317  0.00  0.00    -0.269 N 
ATOM     14  N2  UNL     1       9.960  13.765  30.171  0.00  0.00    -0.269 N 
ATOM     15  H1  UNL     1      10.615  15.174  32.332  0.00  0.00    +0.156 HD
ATOM     16  H6  UNL     1       9.501  14.701  30.240  0.00  0.00    +0.156 HD
BRANCH  13  17
ATOM     17  C2  UNL     1      11.939  13.909  33.437  0.00  0.00    +0.035 A 
ATOM     18  C3  UNL     1      11.424  13.089  34.453  0.00  0.00    +0.024 A 
ATOM     19  C4  UNL     1      12.223  12.723  35.542  0.00  0.00    +0.017 A 
ATOM     20  C5  UNL     1      13.548  13.163  35.617  0.00  0.00    +0.018 A 
ATOM     21 BR1  UNL     1      14.638  12.660  37.103  0.00  0.00    -0.050 Br
ATOM     22  C6  UNL     1      14.077  13.961  34.599  0.00  0.00    +0.017 A 
ATOM     23  C7  UNL     1      13.280  14.328  33.510  0.00  0.00    +0.024 A 
ENDBRANCH  13  17
ENDBRANCH   1  14
BRANCH   6  24
ATOM     24  S1  UNL     1       9.020   8.882  23.622  0.00  0.00    +0.061 S 
ATOM     25  O2  UNL     1       9.185   7.453  24.060  0.00  0.00    -0.153 OA
ATOM     26  O3  UNL     1       7.572   9.101  23.283  0.00  0.00    -0.153 OA
BRANCH  24  27
ATOM     27  N3  UNL     1       9.996   9.170  22.202  0.00  0.00    -0.177 NA
ATOM     28  C14 UNL     1      10.092   7.946  21.391  0.00  0.00    +0.109 C 
ATOM     29  C15 UNL     1      11.146   8.122  20.280  0.00  0.00    +0.017 C 
ATOM     30  C16 UNL     1      11.379   9.598  19.919  0.00  0.00    +0.003 C 
ATOM     31  C17 UNL     1      10.078  10.400  20.012  0.00  0.00    +0.017 C 
ATOM     32  C18 UNL     1       9.432  10.284  21.412  0.00  0.00    +0.109 C 
ENDBRANCH  24  27
ENDBRANCH   6  24
TORSDOF 4
ENDMDL
MODEL 6
REMARK VINA RESULT:    -6.823      8.355     10.361
REMARK INTER + INTRA:          -9.045
REMARK INTER:                  -8.472
REMARK INTRA:                  -0.574
REMARK UNBOUND:                -0.627
REMARK  Name = /home/qwerty/github/datacon2025hack/step_04_hit_selection/docking/ligands/lig_189.pdb
REMARK  4 active torsions:
REMARK  status: ('A' for Active; 'I' for Inactive)
REMARK    1  A    between atoms: N1_3  and  C2_4
REMARK    2  A    between atoms: N2_11  and  C8_12
REMARK    3  A    between atoms: C13_17  and  S1_18
REMARK    4  A    between atoms: S1_18  and  N3_21
REMARK                            x       y       z     vdW  Elec       q    Type
REMARK                         _______ _______ _______ _____ _____    ______ ____
ROOT
ATOM      1  C8  UNL     1      16.685  16.075  28.283  0.00  0.00    +0.035 A 
ATOM      2  C9  UNL     1      16.741  16.789  27.078  0.00  0.00    +0.024 A 
ATOM      3  C10 UNL     1      17.893  16.764  26.287  0.00  0.00    +0.010 A 
ATOM      4  C11 UNL     1      19.005  16.010  26.684  0.00  0.00    -0.016 A 
ATOM      5  C12 UNL     1      20.165  15.977  25.897  0.00  0.00    +0.037 A 
ATOM      6  C13 UNL     1      21.268  15.208  26.294  0.00  0.00    +0.106 A 
ATOM      7  C19 UNL     1      21.209  14.473  27.485  0.00  0.00    +0.029 A 
ATOM      8  C20 UNL     1      20.058  14.499  28.277  0.00  0.00    +0.010 A 
ATOM      9  C21 UNL     1      18.952  15.267  27.887  0.00  0.00    -0.016 A 
ATOM     10  C22 UNL     1      17.789  15.298  28.675  0.00  0.00    +0.032 A 
ENDROOT
BRANCH   1  14
ATOM     11  O1  UNL     1      14.626  14.047  28.347  0.00  0.00    -0.252 OA
ATOM     12  C1  UNL     1      14.426  15.133  28.956  0.00  0.00    +0.308 C 
ATOM     13  N1  UNL     1      13.174  15.369  29.619  0.00  0.00    -0.269 N 
ATOM     14  N2  UNL     1      15.476  16.106  29.063  0.00  0.00    -0.269 N 
ATOM     15  H1  UNL     1      13.144  16.119  30.347  0.00  0.00    +0.156 HD
ATOM     16  H6  UNL     1      15.389  16.835  29.806  0.00  0.00    +0.156 HD
BRANCH  13  17
ATOM     17  C2  UNL     1      11.992  14.577  29.416  0.00  0.00    +0.035 A 
ATOM     18  C3  UNL     1      11.450  13.861  30.495  0.00  0.00    +0.024 A 
ATOM     19  C4  UNL     1      10.288  13.101  30.329  0.00  0.00    +0.017 A 
ATOM     20  C5  UNL     1       9.648  13.061  29.087  0.00  0.00    +0.018 A 
ATOM     21 BR1  UNL     1       8.058  12.025  28.862  0.00  0.00    -0.050 Br
ATOM     22  C6  UNL     1      10.166  13.789  28.012  0.00  0.00    +0.017 A 
ATOM     23  C7  UNL     1      11.328  14.550  28.175  0.00  0.00    +0.024 A 
ENDBRANCH  13  17
ENDBRANCH   1  14
BRANCH   6  24
ATOM     24  S1  UNL     1      22.723  15.155  25.294  0.00  0.00    +0.061 S 
ATOM     25  O2  UNL     1      23.356  16.518  25.264  0.00  0.00    -0.153 OA
ATOM     26  O3  UNL     1      23.707  14.198  25.906  0.00  0.00    -0.153 OA
BRANCH  24  27
ATOM     27  N3  UNL     1      22.362  14.646  23.662  0.00  0.00    -0.177 NA
ATOM     28  C14 UNL     1      22.408  15.797  22.746  0.00  0.00    +0.109 C 
ATOM     29  C15 UNL     1      21.850  15.403  21.364  0.00  0.00    +0.017 C 
ATOM     30  C16 UNL     1      21.949  13.892  21.099  0.00  0.00    +0.003 C 
ATOM     31  C17 UNL     1      23.221  13.306  21.718  0.00  0.00    +0.017 C 
ATOM     32  C18 UNL     1      23.305  13.593  23.235  0.00  0.00    +0.109 C 
ENDBRANCH  24  27
ENDBRANCH   6  24
TORSDOF 4
ENDMDL
MODEL 7
REMARK VINA RESULT:    -6.806     14.454     19.071
REMARK INTER + INTRA:          -9.025
REMARK INTER:                  -8.447
REMARK INTRA:                  -0.577
REMARK UNBOUND:                -0.627
REMARK  Name = /home/qwerty/github/datacon2025hack/step_04_hit_selection/docking/ligands/lig_189.pdb
REMARK  4 active torsions:
REMARK  status: ('A' for Active; 'I' for Inactive)
REMARK    1  A    between atoms: N1_3  and  C2_4
REMARK    2  A    between atoms: N2_11  and  C8_12
REMARK    3  A    between atoms: C13_17  and  S1_18
REMARK    4  A    between atoms: S1_18  and  N3_21
REMARK                            x       y       z     vdW  Elec       q    Type
REMARK                         _______ _______ _______ _____ _____    ______ ____
ROOT
ATOM      1  C8  UNL     1       6.354   4.866  29.157  0.00  0.00    +0.035 A 
ATOM      2  C9  UNL     1       5.663   4.699  30.366  0.00  0.00    +0.024 A 
ATOM      3  C10 UNL     1       5.813   3.530  31.117  0.00  0.00    +0.010 A 
ATOM      4  C11 UNL     1       6.672   2.514  30.675  0.00  0.00    -0.016 A 
ATOM      5  C12 UNL     1       6.831   1.338  31.423  0.00  0.00    +0.037 A 
ATOM      6  C13 UNL     1       7.703   0.332  30.982  0.00  0.00    +0.106 A 
ATOM      7  C19 UNL     1       8.415   0.505  29.787  0.00  0.00    +0.029 A 
ATOM      8  C20 UNL     1       8.263   1.672  29.035  0.00  0.00    +0.010 A 
ATOM      9  C21 UNL     1       7.392   2.682  29.469  0.00  0.00    -0.016 A 
ATOM     10  C22 UNL     1       7.234   3.860  28.722  0.00  0.00    +0.032 A 
ENDROOT
BRANCH   1  14
ATOM     11  O1  UNL     1       8.253   7.040  28.992  0.00  0.00    -0.252 OA
ATOM     12  C1  UNL     1       7.110   7.193  28.479  0.00  0.00    +0.308 C 
ATOM     13  N1  UNL     1       6.751   8.446  27.876  0.00  0.00    -0.269 N 
ATOM     14  N2  UNL     1       6.192   6.091  28.419  0.00  0.00    -0.269 N 
ATOM     15  H1  UNL     1       5.944   8.450  27.211  0.00  0.00    +0.156 HD
ATOM     16  H6  UNL     1       5.400   6.155  27.741  0.00  0.00    +0.156 HD
BRANCH  13  17
ATOM     17  C2  UNL     1       7.490   9.666  28.050  0.00  0.00    +0.035 A 
ATOM     18  C3  UNL     1       8.220  10.188  26.970  0.00  0.00    +0.024 A 
ATOM     19  C4  UNL     1       8.930  11.386  27.106  0.00  0.00    +0.017 A 
ATOM     20  C5  UNL     1       8.904  12.080  28.319  0.00  0.00    +0.018 A 
ATOM     21 BR1  UNL     1       9.871  13.718  28.503  0.00  0.00    -0.050 Br
ATOM     22  C6  UNL     1       8.162  11.581  29.393  0.00  0.00    +0.017 A 
ATOM     23  C7  UNL     1       7.452  10.384  29.260  0.00  0.00    +0.024 A 
ENDBRANCH  13  17
ENDBRANCH   1  14
BRANCH   6  24
ATOM     24  S1  UNL     1       7.915  -1.142  31.931  0.00  0.00    +0.061 S 
ATOM     25  O2  UNL     1       6.567  -1.737  32.233  0.00  0.00    -0.153 OA
ATOM     26  O3  UNL     1       8.694  -2.141  31.123  0.00  0.00    -0.153 OA
BRANCH  24  27
ATOM     27  N3  UNL     1       8.759  -0.826  33.428  0.00  0.00    -0.177 NA
ATOM     28  C14 UNL     1       7.798  -0.548  34.508  0.00  0.00    +0.109 C 
ATOM     29  C15 UNL     1       8.535  -0.027  35.758  0.00  0.00    +0.017 C 
ATOM     30  C16 UNL     1      10.007  -0.468  35.799  0.00  0.00    +0.003 C 
ATOM     31  C17 UNL     1      10.178  -1.875  35.217  0.00  0.00    +0.017 C 
ATOM     32  C18 UNL     1       9.628  -1.969  33.775  0.00  0.00    +0.109 C 
ENDBRANCH  24  27
ENDBRANCH   6  24
TORSDOF 4
ENDMDL
MODEL 8
REMARK VINA RESULT:    -6.724     14.058     19.260
REMARK INTER + INTRA:          -8.924
REMARK INTER:                  -8.519
REMARK INTRA:                  -0.405
REMARK UNBOUND:                -0.627
REMARK  Name = /home/qwerty/github/datacon2025hack/step_04_hit_selection/docking/ligands/lig_189.pdb
REMARK  4 active torsions:
REMARK  status: ('A' for Active; 'I' for Inactive)
REMARK    1  A    between atoms: N1_3  and  C2_4
REMARK    2  A    between atoms: N2_11  and  C8_12
REMARK    3  A    between atoms: C13_17  and  S1_18
REMARK    4  A    between atoms: S1_18  and  N3_21
REMARK                            x       y       z     vdW  Elec       q    Type
REMARK                         _______ _______ _______ _____ _____    ______ ____
ROOT
ATOM      1  C8  UNL     1       8.311  -0.543  28.916  0.00  0.00    +0.035 A 
ATOM      2  C9  UNL     1       6.996  -0.230  29.289  0.00  0.00    +0.024 A 
ATOM      3  C10 UNL     1       6.604  -0.278  30.629  0.00  0.00    +0.010 A 
ATOM      4  C11 UNL     1       7.531  -0.625  31.622  0.00  0.00    -0.016 A 
ATOM      5  C12 UNL     1       7.148  -0.675  32.970  0.00  0.00    +0.037 A 
ATOM      6  C13 UNL     1       8.084  -1.008  33.960  0.00  0.00    +0.106 A 
ATOM      7  C19 UNL     1       9.406  -1.297  33.596  0.00  0.00    +0.029 A 
ATOM      8  C20 UNL     1       9.797  -1.252  32.255  0.00  0.00    +0.010 A 
ATOM      9  C21 UNL     1       8.866  -0.920  31.260  0.00  0.00    -0.016 A 
ATOM     10  C22 UNL     1       9.250  -0.869  29.910  0.00  0.00    +0.032 A 
ENDROOT
BRANCH   1  14
ATOM     11  O1  UNL     1       8.965   1.858  27.444  0.00  0.00    -0.252 OA
ATOM     12  C1  UNL     1       8.872   0.768  26.815  0.00  0.00    +0.308 C 
ATOM     13  N1  UNL     1       9.034   0.741  25.389  0.00  0.00    -0.269 N 
ATOM     14  N2  UNL     1       8.686  -0.463  27.529  0.00  0.00    -0.269 N 
ATOM     15  H1  UNL     1       9.249  -0.180  24.942  0.00  0.00    +0.156 HD
ATOM     16  H6  UNL     1       8.911  -1.353  27.029  0.00  0.00    +0.156 HD
BRANCH  13  17
ATOM     17  C2  UNL     1       9.020   1.910  24.553  0.00  0.00    +0.035 A 
ATOM     18  C3  UNL     1       9.984   2.045  23.541  0.00  0.00    +0.024 A 
ATOM     19  C4  UNL     1       9.978   3.162  22.700  0.00  0.00    +0.017 A 
ATOM     20  C5  UNL     1       8.999   4.148  22.852  0.00  0.00    +0.018 A 
ATOM     21 BR1  UNL     1       8.989   5.672  21.700  0.00  0.00    -0.050 Br
ATOM     22  C6  UNL     1       8.021   4.013  23.841  0.00  0.00    +0.017 A 
ATOM     23  C7  UNL     1       8.025   2.897  24.685  0.00  0.00    +0.024 A 
ENDBRANCH  13  17
ENDBRANCH   1  14
BRANCH   6  24
ATOM     24  S1  UNL     1       7.605  -1.055  35.659  0.00  0.00    +0.061 S 
ATOM     25  O2  UNL     1       6.118  -0.861  35.762  0.00  0.00    -0.153 OA
ATOM     26  O3  UNL     1       7.939  -2.405  36.228  0.00  0.00    -0.153 OA
BRANCH  24  27
ATOM     27  N3  UNL     1       8.418   0.180  36.589  0.00  0.00    -0.177 NA
ATOM     28  C14 UNL     1       8.427   1.454  35.851  0.00  0.00    +0.109 C 
ATOM     29  C15 UNL     1       9.352   2.470  36.549  0.00  0.00    +0.017 C 
ATOM     30  C16 UNL     1       9.541   2.163  38.043  0.00  0.00    +0.003 C 
ATOM     31  C17 UNL     1       8.257   1.599  38.657  0.00  0.00    +0.017 C 
ATOM     32  C18 UNL     1       7.769   0.338  37.907  0.00  0.00    +0.109 C 
ENDBRANCH  24  27
ENDBRANCH   6  24
TORSDOF 4
ENDMDL
MODEL 9
REMARK VINA RESULT:    -6.685      8.474     10.860
REMARK INTER + INTRA:          -8.876
REMARK INTER:                  -8.225
REMARK INTRA:                  -0.651
REMARK UNBOUND:                -0.627
REMARK  Name = /home/qwerty/github/datacon2025hack/step_04_hit_selection/docking/ligands/lig_189.pdb
REMARK  4 active torsions:
REMARK  status: ('A' for Active; 'I' for Inactive)
REMARK    1  A    between atoms: N1_3  and  C2_4
REMARK    2  A    between atoms: N2_11  and  C8_12
REMARK    3  A    between atoms: C13_17  and  S1_18
REMARK    4  A    between atoms: S1_18  and  N3_21
REMARK                            x       y       z     vdW  Elec       q    Type
REMARK                         _______ _______ _______ _____ _____    ______ ____
ROOT
ATOM      1  C8  UNL     1      21.047   1.822  26.584  0.00  0.00    +0.035 A 
ATOM      2  C9  UNL     1      20.276   1.226  25.576  0.00  0.00    +0.024 A 
ATOM      3  C10 UNL     1      20.081   1.871  24.352  0.00  0.00    +0.010 A 
ATOM      4  C11 UNL     1      20.670   3.121  24.112  0.00  0.00    -0.016 A 
ATOM      5  C12 UNL     1      20.481   3.776  22.886  0.00  0.00    +0.037 A 
ATOM      6  C13 UNL     1      21.086   5.019  22.648  0.00  0.00    +0.106 A 
ATOM      7  C19 UNL     1      21.877   5.608  23.643  0.00  0.00    +0.029 A 
ATOM      8  C20 UNL     1      22.070   4.964  24.868  0.00  0.00    +0.010 A 
ATOM      9  C21 UNL     1      21.468   3.721  25.114  0.00  0.00    -0.016 A 
ATOM     10  C22 UNL     1      21.658   3.064  26.340  0.00  0.00    +0.032 A 
ENDROOT
BRANCH   1  14
ATOM     11  O1  UNL     1      19.331   1.921  28.909  0.00  0.00    -0.252 OA
ATOM     12  C1  UNL     1      20.432   1.309  28.993  0.00  0.00    +0.308 C 
ATOM     13  N1  UNL     1      20.840   0.724  30.240  0.00  0.00    -0.269 N 
ATOM     14  N2  UNL     1      21.244   1.121  27.825  0.00  0.00    -0.269 N 
ATOM     15  H1  UNL     1      21.581  -0.012  30.211  0.00  0.00    +0.156 HD
ATOM     16  H6  UNL     1      21.975   0.374  27.857  0.00  0.00    +0.156 HD
BRANCH  13  17
ATOM     17  C2  UNL     1      20.225   1.014  31.506  0.00  0.00    +0.035 A 
ATOM     18  C3  UNL     1      19.093   0.285  31.905  0.00  0.00    +0.024 A 
ATOM     19  C4  UNL     1      18.490   0.532  33.142  0.00  0.00    +0.017 A 
ATOM     20  C5  UNL     1      19.020   1.501  33.999  0.00  0.00    +0.018 A 
ATOM     21 BR1  UNL     1      18.197   1.835  35.690  0.00  0.00    -0.050 Br
ATOM     22  C6  UNL     1      20.160   2.217  33.622  0.00  0.00    +0.017 A 
ATOM     23  C7  UNL     1      20.765   1.972  32.385  0.00  0.00    +0.024 A 
ENDBRANCH  13  17
ENDBRANCH   1  14
BRANCH   6  24
ATOM     24  S1  UNL     1      20.861   5.835  21.099  0.00  0.00    +0.061 S 
ATOM     25  O2  UNL     1      21.289   7.271  21.226  0.00  0.00    -0.153 OA
ATOM     26  O3  UNL     1      21.734   5.180  20.065  0.00  0.00    -0.153 OA
BRANCH  24  27
ATOM     27  N3  UNL     1      19.196   5.770  20.574  0.00  0.00    -0.177 NA
ATOM     28  C14 UNL     1      18.332   6.486  21.525  0.00  0.00    +0.109 C 
ATOM     29  C15 UNL     1      16.848   6.220  21.204  0.00  0.00    +0.017 C 
ATOM     30  C16 UNL     1      16.626   5.819  19.737  0.00  0.00    +0.003 C 
ATOM     31  C17 UNL     1      17.592   6.563  18.810  0.00  0.00    +0.017 C 
ATOM     32  C18 UNL     1      19.066   6.332  19.214  0.00  0.00    +0.109 C 
ENDBRANCH  24  27
ENDBRANCH   6  24
TORSDOF 4
ENDMDL
