REMARK  Name = /home/qwerty/github/datacon2025hack/step_04_hit_selection/docking/ligands/lig_33.pdb
REMARK  8 active torsions:
REMARK  status: ('A' for Active; 'I' for Inactive)
REMARK    1  A    between atoms: C1_1  and  C2_2
REMARK    2  A    between atoms: C5_5  and  C6_6
REMARK    3  A    between atoms: C6_6  and  N1_7
REMARK    4  A    between atoms: C7_8  and  C8_10
REMARK    5  A    between atoms: N2_12  and  C9_13
REMARK    6  A    between atoms: C18_24  and  O4_25
REMARK    7  A    between atoms: O4_25  and  C19_26
REMARK    8  A    between atoms: C19_26  and  C20_27
REMARK                            x       y       z     vdW  Elec       q    Type
REMARK                         _______ _______ _______ _____ _____    ______ ____
ROOT
ATOM      1  N1  UNL     1      -1.215  -0.744   1.714  0.00  0.00    -0.303 N 
ATOM      2  C7  UNL     1      -0.048  -1.574   1.590  0.00  0.00    +0.300 C 
ATOM      3  O1  UNL     1      -0.156  -2.831   1.636  0.00  0.00    -0.265 OA
ATOM      4  H8  UNL     1      -1.104   0.293   1.668  0.00  0.00    +0.149 HD
ENDROOT
BRANCH   2   5
ATOM      5  C8  UNL     1       1.283  -0.965   1.398  0.00  0.00    +0.303 C 
ATOM      6  O2  UNL     1       1.406   0.288   1.447  0.00  0.00    -0.265 OA
ATOM      7  N2  UNL     1       2.437  -1.795   1.178  0.00  0.00    -0.278 N 
ATOM      8  H9  UNL     1       2.381  -2.805   1.448  0.00  0.00    +0.155 HD
BRANCH   7   9
ATOM      9  C9  UNL     1       3.687  -1.311   0.653  0.00  0.00    +0.036 A 
ATOM     10  C10 UNL     1       3.734  -0.257  -0.278  0.00  0.00    +0.024 A 
ATOM     11  C11 UNL     1       4.956   0.167  -0.807  0.00  0.00    +0.007 A 
ATOM     12  C12 UNL     1       6.146  -0.478  -0.446  0.00  0.00    -0.026 A 
ATOM     13  C13 UNL     1       6.108  -1.538   0.482  0.00  0.00    +0.038 A 
ATOM     14  C14 UNL     1       4.881  -1.950   1.021  0.00  0.00    +0.047 A 
ATOM     15  N3  UNL     1       7.323  -2.206   0.853  0.00  0.00    -0.285 N 
ATOM     16  C15 UNL     1       8.528  -1.967   0.122  0.00  0.00    +0.218 C 
ATOM     17  O3  UNL     1       9.602  -2.518   0.481  0.00  0.00    -0.275 OA
ATOM     18  C16 UNL     1       8.490  -1.117  -1.115  0.00  0.00    +0.101 C 
ATOM     19  C17 UNL     1       7.473   0.020  -0.965  0.00  0.00    +0.046 C 
ATOM     20  H13 UNL     1       7.326  -2.904   1.632  0.00  0.00    +0.155 HD
ENDBRANCH   7   9
ENDBRANCH   2   5
BRANCH   1  21
ATOM     21  C6  UNL     1      -2.572  -1.285   1.790  0.00  0.00    +0.143 C 
BRANCH  21  26
ATOM     22  C1  UNL     1      -4.713  -1.791  -3.606  0.00  0.00    +0.044 C 
ATOM     23  C2  UNL     1      -4.197  -1.671  -2.202  0.00  0.00    -0.047 A 
ATOM     24  C3  UNL     1      -3.340  -2.648  -1.680  0.00  0.00    +0.004 A 
ATOM     25  C4  UNL     1      -2.832  -2.520  -0.385  0.00  0.00    +0.009 A 
ATOM     26  C5  UNL     1      -3.161  -1.406   0.408  0.00  0.00    +0.011 A 
ATOM     27  C18 UNL     1      -4.014  -0.415  -0.124  0.00  0.00    +0.125 A 
ATOM     28  C24 UNL     1      -4.517  -0.549  -1.425  0.00  0.00    +0.049 A 
BRANCH  27  29
ATOM     29  O4  UNL     1      -4.400   0.693   0.632  0.00  0.00    -0.491 OA
BRANCH  29  30
ATOM     30  C19 UNL     1      -3.661   1.909   0.611  0.00  0.00    +0.235 C 
BRANCH  30  31
ATOM     31  C20 UNL     1      -4.548   3.067   1.099  0.00  0.00    +0.054 C 
ATOM     32  C21 UNL     1      -3.771   4.353   1.204  0.00  0.00    +0.037 C 
ATOM     33  C22 UNL     1      -3.983   5.004  -0.152  0.00  0.00    +0.160 C 
ATOM     34  O5  UNL     1      -5.098   4.420  -0.791  0.00  0.00    -0.379 OA
ATOM     35  C23 UNL     1      -5.613   3.431   0.073  0.00  0.00    +0.166 C 
ENDBRANCH  30  31
ENDBRANCH  29  30
ENDBRANCH  27  29
ENDBRANCH  21  26
ENDBRANCH   1  21
TORSDOF 7
