REMARK  Name = /home/qwerty/github/datacon2025hack/step_04_hit_selection/docking/ligands/lig_39.pdb
REMARK  6 active torsions:
REMARK  status: ('A' for Active; 'I' for Inactive)
REMARK    1  A    between atoms: C1_1  and  C2_2
REMARK    2  A    between atoms: C4_4  and  C5_5
REMARK    3  A    between atoms: C7_7  and  C8_8
REMARK    4  A    between atoms: N1_10  and  C9_11
REMARK    5  A    between atoms: N2_14  and  C12_15
REMARK    6  A    between atoms: C15_18  and  C16_19
REMARK                            x       y       z     vdW  Elec       q    Type
REMARK                         _______ _______ _______ _____ _____    ______ ____
ROOT
ATOM      1  C9  UNL     1      -0.348  -0.162   1.244  0.00  0.00    +0.076 C 
ATOM      2  C10 UNL     1       0.425  -1.493   1.197  0.00  0.00    +0.041 C 
ATOM      3  C11 UNL     1       1.934  -1.245   1.288  0.00  0.00    +0.107 C 
ATOM      4  N2  UNL     1       2.387  -0.302   0.252  0.00  0.00    -0.329 N 
ATOM      5  C18 UNL     1       1.399   0.395  -0.585  0.00  0.00    +0.107 C 
ATOM      6  C19 UNL     1       0.225   0.901   0.265  0.00  0.00    +0.041 C 
ENDROOT
BRANCH   4   7
ATOM      7  C12 UNL     1       3.797  -0.196  -0.041  0.00  0.00    +0.048 A 
ATOM      8  C13 UNL     1       4.748  -0.195   0.992  0.00  0.00    +0.027 A 
ATOM      9  C14 UNL     1       6.109  -0.095   0.697  0.00  0.00    +0.033 A 
ATOM     10  C15 UNL     1       6.520   0.001  -0.640  0.00  0.00    +0.111 A 
ATOM     11  N7  UNL     1       5.586  -0.008  -1.629  0.00  0.00    -0.250 NA
ATOM     12  C17 UNL     1       4.255  -0.103  -1.367  0.00  0.00    +0.134 A 
BRANCH  10  13
ATOM     13  C16 UNL     1       7.945   0.111  -0.991  0.00  0.00    +0.222 A 
ATOM     14  N3  UNL     1       8.956   0.136  -0.098  0.00  0.00    -0.106 NA
ATOM     15  N4  UNL     1      10.052   0.245  -0.831  0.00  0.00    -0.048 NA
ATOM     16  N5  UNL     1       9.717   0.285  -2.108  0.00  0.00    -0.176 N 
ATOM     17  N6  UNL     1       8.406   0.204  -2.253  0.00  0.00    -0.132 NA
ATOM     18  H17 UNL     1      10.396   0.369  -2.897  0.00  0.00    +0.214 HD
ENDBRANCH  10  13
ENDBRANCH   4   7
BRANCH   1  21
ATOM     19  C8  UNL     1      -2.771   0.603   1.266  0.00  0.00    +0.244 C 
ATOM     20  O1  UNL     1      -2.450   1.635   1.918  0.00  0.00    -0.270 OA
ATOM     21  N1  UNL     1      -1.773  -0.391   0.975  0.00  0.00    -0.308 N 
ATOM     22  H9  UNL     1      -2.082  -1.331   0.639  0.00  0.00    +0.149 HD
BRANCH  19  29
ATOM     23  C1  UNL     1      -7.642   1.670   1.820  0.00  0.00    +0.044 C 
ATOM     24  C2  UNL     1      -6.547   0.935   1.104  0.00  0.00    -0.049 A 
ATOM     25  C3  UNL     1      -6.843   0.153  -0.022  0.00  0.00    +0.006 A 
ATOM     26  C4  UNL     1      -5.820  -0.509  -0.715  0.00  0.00    -0.049 A 
ATOM     27  C5  UNL     1      -6.139  -1.308  -1.944  0.00  0.00    +0.044 C 
ATOM     28  C6  UNL     1      -4.489  -0.356  -0.299  0.00  0.00    +0.016 A 
ATOM     29  C7  UNL     1      -4.175   0.430   0.824  0.00  0.00    +0.037 A 
ATOM     30  C20 UNL     1      -5.213   1.084   1.512  0.00  0.00    +0.016 A 
ENDBRANCH  19  29
ENDBRANCH   1  21
TORSDOF 4
