MODEL 1
REMARK VINA RESULT:    -6.632      0.000      0.000
REMARK INTER + INTRA:          -7.834
REMARK INTER:                  -7.408
REMARK INTRA:                  -0.426
REMARK UNBOUND:                -0.426
REMARK  Name = /home/qwerty/github/datacon2025hack/step_04_hit_selection/docking/ligands/lig_448.pdb
REMARK  3 active torsions:
REMARK  status: ('A' for Active; 'I' for Inactive)
REMARK    1  A    between atoms: C1_1  and  C2_2
REMARK    2  A    between atoms: C5_5  and  N1_6
REMARK    3  A    between atoms: N2_9  and  C7_10
REMARK                            x       y       z     vdW  Elec       q    Type
REMARK                         _______ _______ _______ _____ _____    ______ ____
ROOT
ATOM      1  C1  UNL     1      10.187   0.677  23.182  0.00  0.00    +0.044 C 
ATOM      2  C2  UNL     1      10.192   1.971  22.420  0.00  0.00    -0.039 A 
ATOM      3  C3  UNL     1       9.056   2.802  22.405  0.00  0.00    +0.006 A 
ATOM      4  C4  UNL     1       9.057   4.010  21.684  0.00  0.00    +0.024 A 
ATOM      5  C5  UNL     1      10.200   4.423  20.969  0.00  0.00    +0.043 A 
ATOM      6  C10 UNL     1      11.335   3.597  21.006  0.00  0.00    +0.015 A 
ATOM      7  C11 UNL     1      11.321   2.394  21.706  0.00  0.00    +0.035 A 
ATOM      8  C12 UNL     1      12.629   1.757  21.548  0.00  0.00    +0.195 C 
ATOM      9  O2  UNL     1      12.998   0.654  22.031  0.00  0.00    -0.287 OA
ATOM     10  C13 UNL     1      13.436   2.654  20.737  0.00  0.00    +0.030 A 
ATOM     11  C14 UNL     1      14.769   2.535  20.345  0.00  0.00    +0.012 A 
ATOM     12  C15 UNL     1      15.341   3.587  19.612  0.00  0.00    +0.001 A 
ATOM     13  C16 UNL     1      14.584   4.734  19.303  0.00  0.00    +0.001 A 
ATOM     14  C17 UNL     1      13.244   4.838  19.715  0.00  0.00    +0.009 A 
ATOM     15  C18 UNL     1      12.677   3.768  20.416  0.00  0.00    -0.005 A 
ENDROOT
BRANCH   5  16
ATOM     16  N1  UNL     1      10.158   5.602  20.154  0.00  0.00    -0.269 N 
ATOM     17  C6  UNL     1      10.344   6.922  20.683  0.00  0.00    +0.304 C 
ATOM     18  O1  UNL     1      10.684   7.082  21.888  0.00  0.00    -0.253 OA
ATOM     19  N2  UNL     1      10.167   8.058  19.831  0.00  0.00    -0.296 N 
ATOM     20  H6  UNL     1       9.966   5.492  19.135  0.00  0.00    +0.156 HD
ATOM     21  H7  UNL     1       9.831   7.913  18.852  0.00  0.00    +0.151 HD
BRANCH  19  22
ATOM     22  C7  UNL     1      10.318   9.421  20.334  0.00  0.00    +0.075 C 
ATOM     23  C8  UNL     1      10.685  10.435  19.263  0.00  0.00    +0.024 C 
ATOM     24  C9  UNL     1      11.742   9.940  20.237  0.00  0.00    +0.024 C 
ENDBRANCH  19  22
ENDBRANCH   5  16
TORSDOF 2
ENDMDL
MODEL 2
REMARK VINA RESULT:    -6.282     17.204     18.002
REMARK INTER + INTRA:          -7.443
REMARK INTER:                  -7.025
REMARK INTRA:                  -0.417
REMARK UNBOUND:                -0.426
REMARK  Name = /home/qwerty/github/datacon2025hack/step_04_hit_selection/docking/ligands/lig_448.pdb
REMARK  3 active torsions:
REMARK  status: ('A' for Active; 'I' for Inactive)
REMARK    1  A    between atoms: C1_1  and  C2_2
REMARK    2  A    between atoms: C5_5  and  N1_6
REMARK    3  A    between atoms: N2_9  and  C7_10
REMARK                            x       y       z     vdW  Elec       q    Type
REMARK                         _______ _______ _______ _____ _____    ______ ____
ROOT
ATOM      1  C1  UNL     1      24.705   5.670  33.032  0.00  0.00    +0.044 C 
ATOM      2  C2  UNL     1      23.920   6.519  33.990  0.00  0.00    -0.039 A 
ATOM      3  C3  UNL     1      24.006   6.306  35.379  0.00  0.00    +0.006 A 
ATOM      4  C4  UNL     1      23.262   7.095  36.275  0.00  0.00    +0.024 A 
ATOM      5  C5  UNL     1      22.423   8.126  35.806  0.00  0.00    +0.043 A 
ATOM      6  C10 UNL     1      22.359   8.344  34.420  0.00  0.00    +0.015 A 
ATOM      7  C11 UNL     1      23.082   7.548  33.537  0.00  0.00    +0.035 A 
ATOM      8  C12 UNL     1      22.803   8.003  32.174  0.00  0.00    +0.195 C 
ATOM      9  O2  UNL     1      23.268   7.526  31.106  0.00  0.00    -0.287 OA
ATOM     10  C13 UNL     1      21.892   9.131  32.289  0.00  0.00    +0.030 A 
ATOM     11  C14 UNL     1      21.367   9.949  31.290  0.00  0.00    +0.012 A 
ATOM     12  C15 UNL     1      20.555  11.028  31.674  0.00  0.00    +0.001 A 
ATOM     13  C16 UNL     1      20.303  11.278  33.038  0.00  0.00    +0.001 A 
ATOM     14  C17 UNL     1      20.850  10.447  34.030  0.00  0.00    +0.009 A 
ATOM     15  C18 UNL     1      21.629   9.355  33.631  0.00  0.00    -0.005 A 
ENDROOT
BRANCH   5  16
ATOM     16  N1  UNL     1      21.592   8.857  36.717  0.00  0.00    -0.269 N 
ATOM     17  C6  UNL     1      20.246   8.471  37.025  0.00  0.00    +0.304 C 
ATOM     18  O1  UNL     1      19.783   7.380  36.592  0.00  0.00    -0.253 OA
ATOM     19  N2  UNL     1      19.436   9.318  37.848  0.00  0.00    -0.296 N 
ATOM     20  H6  UNL     1      21.981   9.718  37.160  0.00  0.00    +0.156 HD
ATOM     21  H7  UNL     1      19.813  10.243  38.152  0.00  0.00    +0.151 HD
BRANCH  19  22
ATOM     22  C7  UNL     1      18.052   8.978  38.164  0.00  0.00    +0.075 C 
ATOM     23  C8  UNL     1      17.070   9.292  37.047  0.00  0.00    +0.024 C 
ATOM     24  C9  UNL     1      17.146  10.193  38.270  0.00  0.00    +0.024 C 
ENDBRANCH  19  22
ENDBRANCH   5  16
TORSDOF 2
ENDMDL
MODEL 3
REMARK VINA RESULT:    -6.149     17.683     18.534
REMARK INTER + INTRA:          -7.295
REMARK INTER:                  -6.871
REMARK INTRA:                  -0.423
REMARK UNBOUND:                -0.426
REMARK  Name = /home/qwerty/github/datacon2025hack/step_04_hit_selection/docking/ligands/lig_448.pdb
REMARK  3 active torsions:
REMARK  status: ('A' for Active; 'I' for Inactive)
REMARK    1  A    between atoms: C1_1  and  C2_2
REMARK    2  A    between atoms: C5_5  and  N1_6
REMARK    3  A    between atoms: N2_9  and  C7_10
REMARK                            x       y       z     vdW  Elec       q    Type
REMARK                         _______ _______ _______ _____ _____    ______ ____
ROOT
ATOM      1  C1  UNL     1      17.178   6.860  38.247  0.00  0.00    +0.044 C 
ATOM      2  C2  UNL     1      18.478   7.255  37.607  0.00  0.00    -0.039 A 
ATOM      3  C3  UNL     1      19.528   6.327  37.477  0.00  0.00    +0.006 A 
ATOM      4  C4  UNL     1      20.749   6.700  36.886  0.00  0.00    +0.024 A 
ATOM      5  C5  UNL     1      20.947   8.008  36.400  0.00  0.00    +0.043 A 
ATOM      6  C10 UNL     1      19.887   8.922  36.517  0.00  0.00    +0.015 A 
ATOM      7  C11 UNL     1      18.688   8.553  37.120  0.00  0.00    +0.035 A 
ATOM      8  C12 UNL     1      17.792   9.710  37.107  0.00  0.00    +0.195 C 
ATOM      9  O2  UNL     1      16.622   9.767  37.566  0.00  0.00    -0.287 OA
ATOM     10  C13 UNL     1      18.510  10.786  36.442  0.00  0.00    +0.030 A 
ATOM     11  C14 UNL     1      18.080  12.075  36.130  0.00  0.00    +0.012 A 
ATOM     12  C15 UNL     1      18.952  12.910  35.414  0.00  0.00    +0.001 A 
ATOM     13  C16 UNL     1      20.218  12.439  35.010  0.00  0.00    +0.001 A 
ATOM     14  C17 UNL     1      20.628  11.133  35.328  0.00  0.00    +0.009 A 
ATOM     15  C18 UNL     1      19.762  10.323  36.072  0.00  0.00    -0.005 A 
ENDROOT
BRANCH   5  16
ATOM     16  N1  UNL     1      22.227   8.408  35.894  0.00  0.00    -0.269 N 
ATOM     17  C6  UNL     1      22.592   8.287  34.513  0.00  0.00    +0.304 C 
ATOM     18  O1  UNL     1      21.733   7.935  33.657  0.00  0.00    -0.253 OA
ATOM     19  N2  UNL     1      23.929   8.592  34.104  0.00  0.00    -0.296 N 
ATOM     20  H6  UNL     1      22.929   8.787  36.567  0.00  0.00    +0.156 HD
ATOM     21  H7  UNL     1      24.643   8.827  34.830  0.00  0.00    +0.151 HD
BRANCH  19  22
ATOM     22  C7  UNL     1      24.352   8.455  32.712  0.00  0.00    +0.075 C 
ATOM     23  C8  UNL     1      25.515   9.356  32.330  0.00  0.00    +0.024 C 
ATOM     24  C9  UNL     1      24.104   9.705  31.885  0.00  0.00    +0.024 C 
ENDBRANCH  19  22
ENDBRANCH   5  16
TORSDOF 2
ENDMDL
MODEL 4
REMARK VINA RESULT:    -6.109      1.170      3.888
REMARK INTER + INTRA:          -7.249
REMARK INTER:                  -6.919
REMARK INTRA:                  -0.330
REMARK UNBOUND:                -0.426
REMARK  Name = /home/qwerty/github/datacon2025hack/step_04_hit_selection/docking/ligands/lig_448.pdb
REMARK  3 active torsions:
REMARK  status: ('A' for Active; 'I' for Inactive)
REMARK    1  A    between atoms: C1_1  and  C2_2
REMARK    2  A    between atoms: C5_5  and  N1_6
REMARK    3  A    between atoms: N2_9  and  C7_10
REMARK                            x       y       z     vdW  Elec       q    Type
REMARK                         _______ _______ _______ _____ _____    ______ ____
ROOT
ATOM      1  C1  UNL     1      13.631   1.371  21.564  0.00  0.00    +0.044 C 
ATOM      2  C2  UNL     1      12.850   2.552  21.063  0.00  0.00    -0.039 A 
ATOM      3  C3  UNL     1      13.335   3.339  20.003  0.00  0.00    +0.006 A 
ATOM      4  C4  UNL     1      12.608   4.451  19.540  0.00  0.00    +0.024 A 
ATOM      5  C5  UNL     1      11.369   4.796  20.119  0.00  0.00    +0.043 A 
ATOM      6  C10 UNL     1      10.884   3.993  21.163  0.00  0.00    +0.015 A 
ATOM      7  C11 UNL     1      11.617   2.906  21.630  0.00  0.00    +0.035 A 
ATOM      8  C12 UNL     1      10.867   2.280  22.719  0.00  0.00    +0.195 C 
ATOM      9  O2  UNL     1      11.209   1.274  23.394  0.00  0.00    -0.287 OA
ATOM     10  C13 UNL     1       9.633   3.036  22.866  0.00  0.00    +0.030 A 
ATOM     11  C14 UNL     1       8.557   2.816  23.724  0.00  0.00    +0.012 A 
ATOM     12  C15 UNL     1       7.441   3.659  23.619  0.00  0.00    +0.001 A 
ATOM     13  C16 UNL     1       7.412   4.685  22.652  0.00  0.00    +0.001 A 
ATOM     14  C17 UNL     1       8.504   4.884  21.790  0.00  0.00    +0.009 A 
ATOM     15  C18 UNL     1       9.624   4.057  21.929  0.00  0.00    -0.005 A 
ENDROOT
BRANCH   5  16
ATOM     16  N1  UNL     1      10.685   5.988  19.711  0.00  0.00    -0.269 N 
ATOM     17  C6  UNL     1      10.937   7.271  20.300  0.00  0.00    +0.304 C 
ATOM     18  O1  UNL     1      11.881   7.418  21.125  0.00  0.00    -0.253 OA
ATOM     19  N2  UNL     1      10.128   8.392  19.928  0.00  0.00    -0.296 N 
ATOM     20  H6  UNL     1       9.959   5.912  18.966  0.00  0.00    +0.156 HD
ATOM     21  H7  UNL     1       9.316   8.244  19.288  0.00  0.00    +0.151 HD
BRANCH  19  22
ATOM     22  C7  UNL     1      10.331   9.711  20.523  0.00  0.00    +0.075 C 
ATOM     23  C8  UNL     1      10.128  10.862  19.552  0.00  0.00    +0.024 C 
ATOM     24  C9  UNL     1      11.533  10.445  19.956  0.00  0.00    +0.024 C 
ENDBRANCH  19  22
ENDBRANCH   5  16
TORSDOF 2
ENDMDL
MODEL 5
REMARK VINA RESULT:    -6.105      1.792      4.228
REMARK INTER + INTRA:          -7.245
REMARK INTER:                  -6.824
REMARK INTRA:                  -0.421
REMARK UNBOUND:                -0.426
REMARK  Name = /home/qwerty/github/datacon2025hack/step_04_hit_selection/docking/ligands/lig_448.pdb
REMARK  3 active torsions:
REMARK  status: ('A' for Active; 'I' for Inactive)
REMARK    1  A    between atoms: C1_1  and  C2_2
REMARK    2  A    between atoms: C5_5  and  N1_6
REMARK    3  A    between atoms: N2_9  and  C7_10
REMARK                            x       y       z     vdW  Elec       q    Type
REMARK                         _______ _______ _______ _____ _____    ______ ____
ROOT
ATOM      1  C1  UNL     1      16.699   2.915  20.893  0.00  0.00    +0.044 C 
ATOM      2  C2  UNL     1      15.311   3.362  20.532  0.00  0.00    -0.039 A 
ATOM      3  C3  UNL     1      15.103   4.324  19.526  0.00  0.00    +0.006 A 
ATOM      4  C4  UNL     1      13.804   4.750  19.194  0.00  0.00    +0.024 A 
ATOM      5  C5  UNL     1      12.678   4.215  19.853  0.00  0.00    +0.043 A 
ATOM      6  C10 UNL     1      12.895   3.241  20.842  0.00  0.00    +0.015 A 
ATOM      7  C11 UNL     1      14.183   2.838  21.179  0.00  0.00    +0.035 A 
ATOM      8  C12 UNL     1      14.088   1.834  22.239  0.00  0.00    +0.195 C 
ATOM      9  O2  UNL     1      15.040   1.240  22.807  0.00  0.00    -0.287 OA
ATOM     10  C13 UNL     1      12.671   1.639  22.504  0.00  0.00    +0.030 A 
ATOM     11  C14 UNL     1      12.049   0.756  23.384  0.00  0.00    +0.012 A 
ATOM     12  C15 UNL     1      10.646   0.713  23.401  0.00  0.00    +0.001 A 
ATOM     13  C16 UNL     1       9.899   1.533  22.531  0.00  0.00    +0.001 A 
ATOM     14  C17 UNL     1      10.546   2.410  21.645  0.00  0.00    +0.009 A 
ATOM     15  C18 UNL     1      11.944   2.467  21.663  0.00  0.00    -0.005 A 
ENDROOT
BRANCH   5  16
ATOM     16  N1  UNL     1      11.367   4.727  19.582  0.00  0.00    -0.269 N 
ATOM     17  C6  UNL     1      10.783   5.806  20.325  0.00  0.00    +0.304 C 
ATOM     18  O1  UNL     1      11.469   6.437  21.175  0.00  0.00    -0.253 OA
ATOM     19  N2  UNL     1       9.424   6.181  20.078  0.00  0.00    -0.296 N 
ATOM     20  H6  UNL     1      10.809   4.281  18.822  0.00  0.00    +0.156 HD
ATOM     21  H7  UNL     1       8.852   5.615  19.412  0.00  0.00    +0.151 HD
BRANCH  19  22
ATOM     22  C7  UNL     1       8.780   7.255  20.830  0.00  0.00    +0.075 C 
ATOM     23  C8  UNL     1       8.288   6.835  22.205  0.00  0.00    +0.024 C 
ATOM     24  C9  UNL     1       7.299   7.016  21.066  0.00  0.00    +0.024 C 
ENDBRANCH  19  22
ENDBRANCH   5  16
TORSDOF 2
ENDMDL
MODEL 6
REMARK VINA RESULT:    -5.984     11.069     13.141
REMARK INTER + INTRA:          -7.110
REMARK INTER:                  -6.672
REMARK INTRA:                  -0.438
REMARK UNBOUND:                -0.426
REMARK  Name = /home/qwerty/github/datacon2025hack/step_04_hit_selection/docking/ligands/lig_448.pdb
REMARK  3 active torsions:
REMARK  status: ('A' for Active; 'I' for Inactive)
REMARK    1  A    between atoms: C1_1  and  C2_2
REMARK    2  A    between atoms: C5_5  and  N1_6
REMARK    3  A    between atoms: N2_9  and  C7_10
REMARK                            x       y       z     vdW  Elec       q    Type
REMARK                         _______ _______ _______ _____ _____    ______ ____
ROOT
ATOM      1  C1  UNL     1       8.317  10.917  28.096  0.00  0.00    +0.044 C 
ATOM      2  C2  UNL     1       9.310  11.988  28.445  0.00  0.00    -0.039 A 
ATOM      3  C3  UNL     1       9.506  13.093  27.596  0.00  0.00    +0.006 A 
ATOM      4  C4  UNL     1      10.444  14.091  27.919  0.00  0.00    +0.024 A 
ATOM      5  C5  UNL     1      11.200  14.016  29.107  0.00  0.00    +0.043 A 
ATOM      6  C10 UNL     1      10.982  12.919  29.957  0.00  0.00    +0.015 A 
ATOM      7  C11 UNL     1      10.067  11.925  29.623  0.00  0.00    +0.035 A 
ATOM      8  C12 UNL     1      10.073  10.920  30.687  0.00  0.00    +0.195 C 
ATOM      9  O2  UNL     1       9.382   9.869  30.740  0.00  0.00    -0.287 OA
ATOM     10  C13 UNL     1      11.023  11.377  31.689  0.00  0.00    +0.030 A 
ATOM     11  C14 UNL     1      11.356  10.808  32.917  0.00  0.00    +0.012 A 
ATOM     12  C15 UNL     1      12.263  11.492  33.741  0.00  0.00    +0.001 A 
ATOM     13  C16 UNL     1      12.800  12.730  33.335  0.00  0.00    +0.001 A 
ATOM     14  C17 UNL     1      12.444  13.291  32.097  0.00  0.00    +0.009 A 
ATOM     15  C18 UNL     1      11.565  12.582  31.270  0.00  0.00    -0.005 A 
ENDROOT
BRANCH   5  16
ATOM     16  N1  UNL     1      12.224  14.981  29.377  0.00  0.00    -0.269 N 
ATOM     17  C6  UNL     1      13.586  14.810  28.963  0.00  0.00    +0.304 C 
ATOM     18  O1  UNL     1      13.907  13.843  28.219  0.00  0.00    -0.253 OA
ATOM     19  N2  UNL     1      14.577  15.757  29.376  0.00  0.00    -0.296 N 
ATOM     20  H6  UNL     1      11.968  15.837  29.917  0.00  0.00    +0.156 HD
ATOM     21  H7  UNL     1      14.308  16.520  30.037  0.00  0.00    +0.151 HD
BRANCH  19  22
ATOM     22  C7  UNL     1      15.980  15.606  29.001  0.00  0.00    +0.075 C 
ATOM     23  C8  UNL     1      16.796  16.880  29.144  0.00  0.00    +0.024 C 
ATOM     24  C9  UNL     1      16.360  16.407  27.767  0.00  0.00    +0.024 C 
ENDBRANCH  19  22
ENDBRANCH   5  16
TORSDOF 2
ENDMDL
MODEL 7
REMARK VINA RESULT:    -5.939     17.666     18.796
REMARK INTER + INTRA:          -7.059
REMARK INTER:                  -6.636
REMARK INTRA:                  -0.423
REMARK UNBOUND:                -0.426
REMARK  Name = /home/qwerty/github/datacon2025hack/step_04_hit_selection/docking/ligands/lig_448.pdb
REMARK  3 active torsions:
REMARK  status: ('A' for Active; 'I' for Inactive)
REMARK    1  A    between atoms: C1_1  and  C2_2
REMARK    2  A    between atoms: C5_5  and  N1_6
REMARK    3  A    between atoms: N2_9  and  C7_10
REMARK                            x       y       z     vdW  Elec       q    Type
REMARK                         _______ _______ _______ _____ _____    ______ ____
ROOT
ATOM      1  C1  UNL     1      16.617  12.842  36.250  0.00  0.00    +0.044 C 
ATOM      2  C2  UNL     1      17.868  12.012  36.287  0.00  0.00    -0.039 A 
ATOM      3  C3  UNL     1      19.120  12.582  35.988  0.00  0.00    +0.006 A 
ATOM      4  C4  UNL     1      20.290  11.802  36.013  0.00  0.00    +0.024 A 
ATOM      5  C5  UNL     1      20.240  10.433  36.349  0.00  0.00    +0.043 A 
ATOM      6  C10 UNL     1      18.989   9.878  36.665  0.00  0.00    +0.015 A 
ATOM      7  C11 UNL     1      17.832  10.651  36.620  0.00  0.00    +0.035 A 
ATOM      8  C12 UNL     1      16.698   9.799  36.981  0.00  0.00    +0.195 C 
ATOM      9  O2  UNL     1      15.487  10.138  37.047  0.00  0.00    -0.287 OA
ATOM     10  C13 UNL     1      17.240   8.481  37.269  0.00  0.00    +0.030 A 
ATOM     11  C14 UNL     1      16.584   7.331  37.707  0.00  0.00    +0.012 A 
ATOM     12  C15 UNL     1      17.356   6.191  37.982  0.00  0.00    +0.001 A 
ATOM     13  C16 UNL     1      18.757   6.228  37.834  0.00  0.00    +0.001 A 
ATOM     14  C17 UNL     1      19.399   7.400  37.399  0.00  0.00    +0.009 A 
ATOM     15  C18 UNL     1      18.614   8.518  37.096  0.00  0.00    -0.005 A 
ENDROOT
BRANCH   5  16
ATOM     16  N1  UNL     1      21.420   9.623  36.272  0.00  0.00    -0.269 N 
ATOM     17  C6  UNL     1      21.803   8.915  35.086  0.00  0.00    +0.304 C 
ATOM     18  O1  UNL     1      21.168   9.088  34.010  0.00  0.00    -0.253 OA
ATOM     19  N2  UNL     1      22.927   8.028  35.122  0.00  0.00    -0.296 N 
ATOM     20  H6  UNL     1      22.014   9.533  37.125  0.00  0.00    +0.156 HD
ATOM     21  H7  UNL     1      23.407   7.852  36.033  0.00  0.00    +0.151 HD
BRANCH  19  22
ATOM     22  C7  UNL     1      23.335   7.265  33.946  0.00  0.00    +0.075 C 
ATOM     23  C8  UNL     1      24.483   6.304  34.203  0.00  0.00    +0.024 C 
ATOM     24  C9  UNL     1      24.734   7.609  33.465  0.00  0.00    +0.024 C 
ENDBRANCH  19  22
ENDBRANCH   5  16
TORSDOF 2
ENDMDL
MODEL 8
REMARK VINA RESULT:    -5.903     15.437     16.868
REMARK INTER + INTRA:          -7.020
REMARK INTER:                  -6.604
REMARK INTRA:                  -0.416
REMARK UNBOUND:                -0.426
REMARK  Name = /home/qwerty/github/datacon2025hack/step_04_hit_selection/docking/ligands/lig_448.pdb
REMARK  3 active torsions:
REMARK  status: ('A' for Active; 'I' for Inactive)
REMARK    1  A    between atoms: C1_1  and  C2_2
REMARK    2  A    between atoms: C5_5  and  N1_6
REMARK    3  A    between atoms: N2_9  and  C7_10
REMARK                            x       y       z     vdW  Elec       q    Type
REMARK                         _______ _______ _______ _____ _____    ______ ____
ROOT
ATOM      1  C1  UNL     1      18.382   5.837  36.138  0.00  0.00    +0.044 C 
ATOM      2  C2  UNL     1      19.353   5.081  35.277  0.00  0.00    -0.039 A 
ATOM      3  C3  UNL     1      19.087   3.756  34.886  0.00  0.00    +0.006 A 
ATOM      4  C4  UNL     1      20.001   3.044  34.087  0.00  0.00    +0.024 A 
ATOM      5  C5  UNL     1      21.200   3.645  33.650  0.00  0.00    +0.043 A 
ATOM      6  C10 UNL     1      21.446   4.974  34.029  0.00  0.00    +0.015 A 
ATOM      7  C11 UNL     1      20.548   5.667  34.835  0.00  0.00    +0.035 A 
ATOM      8  C12 UNL     1      21.081   7.009  35.069  0.00  0.00    +0.195 C 
ATOM      9  O2  UNL     1      20.555   7.925  35.754  0.00  0.00    -0.287 OA
ATOM     10  C13 UNL     1      22.337   7.093  34.340  0.00  0.00    +0.030 A 
ATOM     11  C14 UNL     1      23.206   8.173  34.196  0.00  0.00    +0.012 A 
ATOM     12  C15 UNL     1      24.331   8.014  33.372  0.00  0.00    +0.001 A 
ATOM     13  C16 UNL     1      24.553   6.797  32.698  0.00  0.00    +0.001 A 
ATOM     14  C17 UNL     1      23.660   5.723  32.850  0.00  0.00    +0.009 A 
ATOM     15  C18 UNL     1      22.561   5.884  33.701  0.00  0.00    -0.005 A 
ENDROOT
BRANCH   5  16
ATOM     16  N1  UNL     1      22.171   2.881  32.924  0.00  0.00    -0.269 N 
ATOM     17  C6  UNL     1      22.082   2.646  31.512  0.00  0.00    +0.304 C 
ATOM     18  O1  UNL     1      21.196   3.225  30.827  0.00  0.00    -0.253 OA
ATOM     19  N2  UNL     1      23.022   1.772  30.879  0.00  0.00    -0.296 N 
ATOM     20  H6  UNL     1      22.967   2.462  33.453  0.00  0.00    +0.156 HD
ATOM     21  H7  UNL     1      23.715   1.257  31.467  0.00  0.00    +0.151 HD
BRANCH  19  22
ATOM     22  C7  UNL     1      22.952   1.483  29.449  0.00  0.00    +0.075 C 
ATOM     23  C8  UNL     1      22.661   0.026  29.128  0.00  0.00    +0.024 C 
ATOM     24  C9  UNL     1      24.070   0.575  28.966  0.00  0.00    +0.024 C 
ENDBRANCH  19  22
ENDBRANCH   5  16
TORSDOF 2
ENDMDL
MODEL 9
REMARK VINA RESULT:    -5.873      7.606     10.436
REMARK INTER + INTRA:          -6.985
REMARK INTER:                  -6.567
REMARK INTRA:                  -0.419
REMARK UNBOUND:                -0.426
REMARK  Name = /home/qwerty/github/datacon2025hack/step_04_hit_selection/docking/ligands/lig_448.pdb
REMARK  3 active torsions:
REMARK  status: ('A' for Active; 'I' for Inactive)
REMARK    1  A    between atoms: C1_1  and  C2_2
REMARK    2  A    between atoms: C5_5  and  N1_6
REMARK    3  A    between atoms: N2_9  and  C7_10
REMARK                            x       y       z     vdW  Elec       q    Type
REMARK                         _______ _______ _______ _____ _____    ______ ____
ROOT
ATOM      1  C1  UNL     1      10.424  13.492  29.096  0.00  0.00    +0.044 C 
ATOM      2  C2  UNL     1       9.500  12.341  28.820  0.00  0.00    -0.039 A 
ATOM      3  C3  UNL     1       8.397  12.087  29.656  0.00  0.00    +0.006 A 
ATOM      4  C4  UNL     1       7.536  11.003  29.403  0.00  0.00    +0.024 A 
ATOM      5  C5  UNL     1       7.751  10.152  28.299  0.00  0.00    +0.043 A 
ATOM      6  C10 UNL     1       8.843  10.425  27.460  0.00  0.00    +0.015 A 
ATOM      7  C11 UNL     1       9.702  11.487  27.726  0.00  0.00    +0.035 A 
ATOM      8  C12 UNL     1      10.740  11.508  26.695  0.00  0.00    +0.195 C 
ATOM      9  O2  UNL     1      11.698  12.319  26.600  0.00  0.00    -0.287 OA
ATOM     10  C13 UNL     1      10.444  10.416  25.782  0.00  0.00    +0.030 A 
ATOM     11  C14 UNL     1      11.097  10.042  24.608  0.00  0.00    +0.012 A 
ATOM     12  C15 UNL     1      10.564   8.979  23.862  0.00  0.00    +0.001 A 
ATOM     13  C16 UNL     1       9.387   8.330  24.288  0.00  0.00    +0.001 A 
ATOM     14  C17 UNL     1       8.740   8.729  25.469  0.00  0.00    +0.009 A 
ATOM     15  C18 UNL     1       9.301   9.767  26.221  0.00  0.00    -0.005 A 
ENDROOT
BRANCH   5  16
ATOM     16  N1  UNL     1       6.932   8.991  28.108  0.00  0.00    -0.269 N 
ATOM     17  C6  UNL     1       7.211   7.729  28.729  0.00  0.00    +0.304 C 
ATOM     18  O1  UNL     1       8.133   7.632  29.585  0.00  0.00    -0.253 OA
ATOM     19  N2  UNL     1       6.420   6.584  28.394  0.00  0.00    -0.296 N 
ATOM     20  H6  UNL     1       6.108   9.067  27.472  0.00  0.00    +0.156 HD
ATOM     21  H7  UNL     1       5.697   6.666  27.644  0.00  0.00    +0.151 HD
BRANCH  19  22
ATOM     22  C7  UNL     1       6.686   5.274  28.981  0.00  0.00    +0.075 C 
ATOM     23  C8  UNL     1       5.483   4.346  28.988  0.00  0.00    +0.024 C 
ATOM     24  C9  UNL     1       5.923   5.030  30.272  0.00  0.00    +0.024 C 
ENDBRANCH  19  22
ENDBRANCH   5  16
TORSDOF 2
ENDMDL
