MODEL 1
REMARK VINA RESULT:    -5.860      0.000      0.000
REMARK INTER + INTRA:          -7.799
REMARK INTER:                  -7.058
REMARK INTRA:                  -0.741
REMARK UNBOUND:                -0.741
REMARK  Name = /home/qwerty/github/datacon2025hack/step_04_hit_selection/docking/ligands/lig_792.pdb
REMARK  4 active torsions:
REMARK  status: ('A' for Active; 'I' for Inactive)
REMARK    1  A    between atoms: C6_9  and  C7_10
REMARK    2  A    between atoms: N4_17  and  C13_18
REMARK    3  A    between atoms: C13_18  and  C14_19
REMARK    4  A    between atoms: C14_19  and  O1_20
REMARK                            x       y       z     vdW  Elec       q    Type
REMARK                         _______ _______ _______ _____ _____    ______ ____
ROOT
ATOM      1  C1  UNL     1      19.758   1.408  24.577  0.00  0.00    +0.008 C 
ATOM      2  C2  UNL     1      20.546   1.597  25.644  0.00  0.00    -0.074 C 
ATOM      3  C3  UNL     1      21.582   2.698  25.629  0.00  0.00    +0.049 C 
ATOM      4  C4  UNL     1      22.449   2.650  26.891  0.00  0.00    +0.112 C 
ATOM      5  N1  UNL     1      21.596   2.532  28.082  0.00  0.00    -0.299 N 
ATOM      6  C5  UNL     1      21.567   3.614  29.026  0.00  0.00    +0.220 A 
ATOM      7  N2  UNL     1      21.446   4.902  28.657  0.00  0.00    -0.113 NA
ATOM      8  N3  UNL     1      21.565   5.628  29.758  0.00  0.00    -0.128 NA
ATOM      9  C6  UNL     1      21.763   4.771  30.779  0.00  0.00    +0.166 A 
ATOM     10  N4  UNL     1      21.777   3.485  30.355  0.00  0.00    -0.292 N 
ATOM     11  C17 UNL     1      20.554   1.493  28.147  0.00  0.00    +0.112 C 
ATOM     12  C18 UNL     1      20.453   0.684  26.844  0.00  0.00    +0.049 C 
ENDROOT
BRANCH   9  13
ATOM     13  C7  UNL     1      21.988   5.224  32.164  0.00  0.00    +0.019 A 
ATOM     14  C8  UNL     1      20.907   5.413  33.043  0.00  0.00    +0.012 A 
ATOM     15  C9  UNL     1      21.132   5.862  34.348  0.00  0.00    +0.016 A 
ATOM     16  C10 UNL     1      22.432   6.140  34.780  0.00  0.00    +0.018 A 
ATOM     17 BR1  UNL     1      22.736   6.755  36.563  0.00  0.00    -0.050 Br
ATOM     18  C11 UNL     1      23.509   5.975  33.903  0.00  0.00    +0.016 A 
ATOM     19  C12 UNL     1      23.288   5.526  32.598  0.00  0.00    +0.012 A 
ENDBRANCH   9  13
BRANCH  10  20
ATOM     20  C13 UNL     1      22.225   2.293  31.087  0.00  0.00    +0.161 C 
BRANCH  20  21
ATOM     21  C14 UNL     1      21.037   1.480  31.638  0.00  0.00    +0.084 C 
ATOM     22  C15 UNL     1      20.462   1.759  33.023  0.00  0.00    +0.039 C 
ATOM     23  C16 UNL     1      19.723   2.239  31.783  0.00  0.00    +0.039 C 
BRANCH  21  24
ATOM     24  O1  UNL     1      20.857   0.178  31.157  0.00  0.00    -0.387 OA
ATOM     25  H13 UNL     1      20.009  -0.140  31.561  0.00  0.00    +0.210 HD
ENDBRANCH  21  24
ENDBRANCH  20  21
ENDBRANCH  10  20
TORSDOF 4
ENDMDL
MODEL 2
REMARK VINA RESULT:    -5.696      4.428      8.385
REMARK INTER + INTRA:          -7.602
REMARK INTER:                  -6.624
REMARK INTRA:                  -0.978
REMARK UNBOUND:                -0.741
REMARK  Name = /home/qwerty/github/datacon2025hack/step_04_hit_selection/docking/ligands/lig_792.pdb
REMARK  4 active torsions:
REMARK  status: ('A' for Active; 'I' for Inactive)
REMARK    1  A    between atoms: C6_9  and  C7_10
REMARK    2  A    between atoms: N4_17  and  C13_18
REMARK    3  A    between atoms: C13_18  and  C14_19
REMARK    4  A    between atoms: C14_19  and  O1_20
REMARK                            x       y       z     vdW  Elec       q    Type
REMARK                         _______ _______ _______ _____ _____    ______ ____
ROOT
ATOM      1  C1  UNL     1      21.412   2.915  33.527  0.00  0.00    +0.008 C 
ATOM      2  C2  UNL     1      21.370   2.291  32.342  0.00  0.00    -0.074 C 
ATOM      3  C3  UNL     1      20.564   1.022  32.187  0.00  0.00    +0.049 C 
ATOM      4  C4  UNL     1      20.760   0.415  30.795  0.00  0.00    +0.112 C 
ATOM      5  N1  UNL     1      20.603   1.453  29.767  0.00  0.00    -0.299 N 
ATOM      6  C5  UNL     1      19.501   1.361  28.850  0.00  0.00    +0.220 A 
ATOM      7  N2  UNL     1      18.243   1.090  29.245  0.00  0.00    -0.113 NA
ATOM      8  N3  UNL     1      17.515   0.973  28.146  0.00  0.00    -0.128 NA
ATOM      9  C6  UNL     1      18.340   1.169  27.099  0.00  0.00    +0.166 A 
ATOM     10  N4  UNL     1      19.610   1.411  27.504  0.00  0.00    -0.292 N 
ATOM     11  C17 UNL     1      21.346   2.720  29.873  0.00  0.00    +0.112 C 
ATOM     12  C18 UNL     1      22.170   2.807  31.168  0.00  0.00    +0.049 C 
ENDROOT
BRANCH   9  13
ATOM     13  C7  UNL     1      17.888   1.067  25.699  0.00  0.00    +0.019 A 
ATOM     14  C8  UNL     1      17.610   2.222  24.948  0.00  0.00    +0.012 A 
ATOM     15  C9  UNL     1      17.161   2.112  23.628  0.00  0.00    +0.016 A 
ATOM     16  C10 UNL     1      16.973   0.850  23.054  0.00  0.00    +0.018 A 
ATOM     17 BR1  UNL     1      16.360   0.703  21.251  0.00  0.00    -0.050 Br
ATOM     18  C11 UNL     1      17.228  -0.302  23.804  0.00  0.00    +0.016 A 
ATOM     19  C12 UNL     1      17.676  -0.195  25.124  0.00  0.00    +0.012 A 
ENDBRANCH   9  13
BRANCH  10  20
ATOM     20  C13 UNL     1      20.837   1.406  26.697  0.00  0.00    +0.161 C 
BRANCH  20  21
ATOM     21  C14 UNL     1      21.164   2.807  26.144  0.00  0.00    +0.084 C 
ATOM     22  C15 UNL     1      22.533   3.125  25.551  0.00  0.00    +0.039 C 
ATOM     23  C16 UNL     1      21.342   2.900  24.633  0.00  0.00    +0.039 C 
BRANCH  21  24
ATOM     24  O1  UNL     1      20.464   3.899  26.672  0.00  0.00    -0.387 OA
ATOM     25  H13 UNL     1      19.506   3.711  26.498  0.00  0.00    +0.210 HD
ENDBRANCH  21  24
ENDBRANCH  20  21
ENDBRANCH  10  20
TORSDOF 4
ENDMDL
MODEL 3
REMARK VINA RESULT:    -5.654     12.789     14.595
REMARK INTER + INTRA:          -7.551
REMARK INTER:                  -6.734
REMARK INTRA:                  -0.817
REMARK UNBOUND:                -0.741
REMARK  Name = /home/qwerty/github/datacon2025hack/step_04_hit_selection/docking/ligands/lig_792.pdb
REMARK  4 active torsions:
REMARK  status: ('A' for Active; 'I' for Inactive)
REMARK    1  A    between atoms: C6_9  and  C7_10
REMARK    2  A    between atoms: N4_17  and  C13_18
REMARK    3  A    between atoms: C13_18  and  C14_19
REMARK    4  A    between atoms: C14_19  and  O1_20
REMARK                            x       y       z     vdW  Elec       q    Type
REMARK                         _______ _______ _______ _____ _____    ______ ____
ROOT
ATOM      1  C1  UNL     1      20.755  16.124  29.427  0.00  0.00    +0.008 C 
ATOM      2  C2  UNL     1      19.447  16.043  29.704  0.00  0.00    -0.074 C 
ATOM      3  C3  UNL     1      18.490  17.063  29.129  0.00  0.00    +0.049 C 
ATOM      4  C4  UNL     1      17.075  16.855  29.675  0.00  0.00    +0.112 C 
ATOM      5  N1  UNL     1      16.701  15.438  29.575  0.00  0.00    -0.299 N 
ATOM      6  C5  UNL     1      15.630  15.062  28.696  0.00  0.00    +0.220 A 
ATOM      7  N2  UNL     1      15.522  15.524  27.437  0.00  0.00    -0.113 NA
ATOM      8  N3  UNL     1      14.375  15.067  26.959  0.00  0.00    -0.128 NA
ATOM      9  C6  UNL     1      13.799  14.339  27.936  0.00  0.00    +0.166 A 
ATOM     10  N4  UNL     1      14.560  14.317  29.056  0.00  0.00    -0.292 N 
ATOM     11  C17 UNL     1      17.601  14.395  30.098  0.00  0.00    +0.112 C 
ATOM     12  C18 UNL     1      18.919  14.976  30.636  0.00  0.00    +0.049 C 
ENDROOT
BRANCH   9  13
ATOM     13  C7  UNL     1      12.475  13.709  27.782  0.00  0.00    +0.019 A 
ATOM     14  C8  UNL     1      11.300  14.474  27.876  0.00  0.00    +0.012 A 
ATOM     15  C9  UNL     1      10.049  13.861  27.749  0.00  0.00    +0.016 A 
ATOM     16  C10 UNL     1       9.962  12.481  27.542  0.00  0.00    +0.018 A 
ATOM     17 BR1  UNL     1       8.253  11.647  27.369  0.00  0.00    -0.050 Br
ATOM     18  C11 UNL     1      11.127  11.712  27.469  0.00  0.00    +0.016 A 
ATOM     19  C12 UNL     1      12.379  12.321  27.596  0.00  0.00    +0.012 A 
ENDBRANCH   9  13
BRANCH  10  20
ATOM     20  C13 UNL     1      14.178  13.878  30.404  0.00  0.00    +0.161 C 
BRANCH  20  21
ATOM     21  C14 UNL     1      13.095  14.788  31.017  0.00  0.00    +0.084 C 
ATOM     22  C15 UNL     1      11.726  14.238  31.404  0.00  0.00    +0.039 C 
ATOM     23  C16 UNL     1      12.761  14.527  32.481  0.00  0.00    +0.039 C 
BRANCH  21  24
ATOM     24  O1  UNL     1      13.136  16.152  30.710  0.00  0.00    -0.387 OA
ATOM     25  H13 UNL     1      12.640  16.249  29.856  0.00  0.00    +0.210 HD
ENDBRANCH  21  24
ENDBRANCH  20  21
ENDBRANCH  10  20
TORSDOF 4
ENDMDL
MODEL 4
REMARK VINA RESULT:    -5.631      4.038      8.293
REMARK INTER + INTRA:          -7.524
REMARK INTER:                  -6.665
REMARK INTRA:                  -0.859
REMARK UNBOUND:                -0.741
REMARK  Name = /home/qwerty/github/datacon2025hack/step_04_hit_selection/docking/ligands/lig_792.pdb
REMARK  4 active torsions:
REMARK  status: ('A' for Active; 'I' for Inactive)
REMARK    1  A    between atoms: C6_9  and  C7_10
REMARK    2  A    between atoms: N4_17  and  C13_18
REMARK    3  A    between atoms: C13_18  and  C14_19
REMARK    4  A    between atoms: C14_19  and  O1_20
REMARK                            x       y       z     vdW  Elec       q    Type
REMARK                         _______ _______ _______ _____ _____    ______ ____
ROOT
ATOM      1  C1  UNL     1      18.007   9.704  38.159  0.00  0.00    +0.008 C 
ATOM      2  C2  UNL     1      18.955   9.004  37.521  0.00  0.00    -0.074 C 
ATOM      3  C3  UNL     1      19.255   7.584  37.943  0.00  0.00    +0.049 C 
ATOM      4  C4  UNL     1      20.450   7.023  37.167  0.00  0.00    +0.112 C 
ATOM      5  N1  UNL     1      20.286   7.288  35.731  0.00  0.00    -0.299 N 
ATOM      6  C5  UNL     1      20.117   6.178  34.835  0.00  0.00    +0.220 A 
ATOM      7  N2  UNL     1      19.273   5.160  35.085  0.00  0.00    -0.113 NA
ATOM      8  N3  UNL     1      19.450   4.272  34.119  0.00  0.00    -0.128 NA
ATOM      9  C6  UNL     1      20.402   4.759  33.299  0.00  0.00    +0.166 A 
ATOM     10  N4  UNL     1      20.856   5.963  33.723  0.00  0.00    -0.292 N 
ATOM     11  C17 UNL     1      19.972   8.647  35.259  0.00  0.00    +0.112 C 
ATOM     12  C18 UNL     1      19.772   9.637  36.418  0.00  0.00    +0.049 C 
ENDROOT
BRANCH   9  13
ATOM     13  C7  UNL     1      20.900   4.015  32.128  0.00  0.00    +0.019 A 
ATOM     14  C8  UNL     1      21.716   2.882  32.290  0.00  0.00    +0.012 A 
ATOM     15  C9  UNL     1      22.199   2.197  31.171  0.00  0.00    +0.016 A 
ATOM     16  C10 UNL     1      21.885   2.645  29.885  0.00  0.00    +0.018 A 
ATOM     17 BR1  UNL     1      22.547   1.708  28.358  0.00  0.00    -0.050 Br
ATOM     18  C11 UNL     1      21.092   3.785  29.717  0.00  0.00    +0.016 A 
ATOM     19  C12 UNL     1      20.607   4.472  30.834  0.00  0.00    +0.012 A 
ENDBRANCH   9  13
BRANCH  10  20
ATOM     20  C13 UNL     1      22.053   6.689  33.281  0.00  0.00    +0.161 C 
BRANCH  20  21
ATOM     21  C14 UNL     1      23.342   6.075  33.862  0.00  0.00    +0.084 C 
ATOM     22  C15 UNL     1      24.434   5.519  32.954  0.00  0.00    +0.039 C 
ATOM     23  C16 UNL     1      24.621   6.870  33.628  0.00  0.00    +0.039 C 
BRANCH  21  24
ATOM     24  O1  UNL     1      23.281   5.520  35.146  0.00  0.00    -0.387 OA
ATOM     25  H13 UNL     1      22.318   5.375  35.329  0.00  0.00    +0.210 HD
ENDBRANCH  21  24
ENDBRANCH  20  21
ENDBRANCH  10  20
TORSDOF 4
ENDMDL
MODEL 5
REMARK VINA RESULT:    -5.612      8.741     11.620
REMARK INTER + INTRA:          -7.500
REMARK INTER:                  -6.498
REMARK INTRA:                  -1.002
REMARK UNBOUND:                -0.741
REMARK  Name = /home/qwerty/github/datacon2025hack/step_04_hit_selection/docking/ligands/lig_792.pdb
REMARK  4 active torsions:
REMARK  status: ('A' for Active; 'I' for Inactive)
REMARK    1  A    between atoms: C6_9  and  C7_10
REMARK    2  A    between atoms: N4_17  and  C13_18
REMARK    3  A    between atoms: C13_18  and  C14_19
REMARK    4  A    between atoms: C14_19  and  O1_20
REMARK                            x       y       z     vdW  Elec       q    Type
REMARK                         _______ _______ _______ _____ _____    ______ ____
ROOT
ATOM      1  C1  UNL     1      22.242   7.038  37.758  0.00  0.00    +0.008 C 
ATOM      2  C2  UNL     1      21.280   7.546  36.977  0.00  0.00    -0.074 C 
ATOM      3  C3  UNL     1      20.082   6.699  36.609  0.00  0.00    +0.049 C 
ATOM      4  C4  UNL     1      19.179   7.433  35.614  0.00  0.00    +0.112 C 
ATOM      5  N1  UNL     1      18.927   8.804  36.079  0.00  0.00    -0.299 N 
ATOM      6  C5  UNL     1      17.591   9.179  36.448  0.00  0.00    +0.220 A 
ATOM      7  N2  UNL     1      16.808   8.413  37.231  0.00  0.00    -0.113 NA
ATOM      8  N3  UNL     1      15.622   9.000  37.275  0.00  0.00    -0.128 NA
ATOM      9  C6  UNL     1      15.699  10.110  36.515  0.00  0.00    +0.166 A 
ATOM     10  N4  UNL     1      16.930  10.255  35.968  0.00  0.00    -0.292 N 
ATOM     11  C17 UNL     1      20.051   9.671  36.472  0.00  0.00    +0.112 C 
ATOM     12  C18 UNL     1      21.403   8.941  36.408  0.00  0.00    +0.049 C 
ENDROOT
BRANCH   9  13
ATOM     13  C7  UNL     1      14.545  11.000  36.287  0.00  0.00    +0.019 A 
ATOM     14  C8  UNL     1      13.595  10.705  35.295  0.00  0.00    +0.012 A 
ATOM     15  C9  UNL     1      12.517  11.567  35.074  0.00  0.00    +0.016 A 
ATOM     16  C10 UNL     1      12.387  12.735  35.832  0.00  0.00    +0.018 A 
ATOM     17 BR1  UNL     1      10.913  13.912  35.528  0.00  0.00    -0.050 Br
ATOM     18  C11 UNL     1      13.341  13.045  36.806  0.00  0.00    +0.016 A 
ATOM     19  C12 UNL     1      14.421  12.185  37.028  0.00  0.00    +0.012 A 
ENDBRANCH   9  13
BRANCH  10  20
ATOM     20  C13 UNL     1      17.341  11.158  34.885  0.00  0.00    +0.161 C 
BRANCH  20  21
ATOM     21  C14 UNL     1      17.747  12.545  35.419  0.00  0.00    +0.084 C 
ATOM     22  C15 UNL     1      18.371  13.595  34.505  0.00  0.00    +0.039 C 
ATOM     23  C16 UNL     1      16.913  13.719  34.919  0.00  0.00    +0.039 C 
BRANCH  21  24
ATOM     24  O1  UNL     1      18.070  12.655  36.777  0.00  0.00    -0.387 OA
ATOM     25  H13 UNL     1      19.029  12.902  36.804  0.00  0.00    +0.210 HD
ENDBRANCH  21  24
ENDBRANCH  20  21
ENDBRANCH  10  20
TORSDOF 4
ENDMDL
MODEL 6
REMARK VINA RESULT:    -5.600      4.704      6.932
REMARK INTER + INTRA:          -7.487
REMARK INTER:                  -6.656
REMARK INTRA:                  -0.831
REMARK UNBOUND:                -0.741
REMARK  Name = /home/qwerty/github/datacon2025hack/step_04_hit_selection/docking/ligands/lig_792.pdb
REMARK  4 active torsions:
REMARK  status: ('A' for Active; 'I' for Inactive)
REMARK    1  A    between atoms: C6_9  and  C7_10
REMARK    2  A    between atoms: N4_17  and  C13_18
REMARK    3  A    between atoms: C13_18  and  C14_19
REMARK    4  A    between atoms: C14_19  and  O1_20
REMARK                            x       y       z     vdW  Elec       q    Type
REMARK                         _______ _______ _______ _____ _____    ______ ____
ROOT
ATOM      1  C1  UNL     1      20.246   8.284  19.165  0.00  0.00    +0.008 C 
ATOM      2  C2  UNL     1      20.312   7.193  19.941  0.00  0.00    -0.074 C 
ATOM      3  C3  UNL     1      21.627   6.466  20.107  0.00  0.00    +0.049 C 
ATOM      4  C4  UNL     1      21.444   5.186  20.927  0.00  0.00    +0.112 C 
ATOM      5  N1  UNL     1      20.666   5.473  22.140  0.00  0.00    -0.299 N 
ATOM      6  C5  UNL     1      21.299   5.332  23.421  0.00  0.00    +0.220 A 
ATOM      7  N2  UNL     1      22.524   5.822  23.689  0.00  0.00    -0.113 NA
ATOM      8  N3  UNL     1      22.837   5.422  24.911  0.00  0.00    -0.128 NA
ATOM      9  C6  UNL     1      21.802   4.690  25.367  0.00  0.00    +0.166 A 
ATOM     10  N4  UNL     1      20.809   4.603  24.449  0.00  0.00    -0.292 N 
ATOM     11  C17 UNL     1      19.387   6.197  22.046  0.00  0.00    +0.112 C 
ATOM     12  C18 UNL     1      19.072   6.643  20.608  0.00  0.00    +0.049 C 
ENDROOT
BRANCH   9  13
ATOM     13  C7  UNL     1      21.813   4.033  26.687  0.00  0.00    +0.019 A 
ATOM     14  C8  UNL     1      22.504   2.825  26.883  0.00  0.00    +0.012 A 
ATOM     15  C9  UNL     1      22.491   2.201  28.134  0.00  0.00    +0.016 A 
ATOM     16  C10 UNL     1      21.776   2.769  29.194  0.00  0.00    +0.018 A 
ATOM     17 BR1  UNL     1      21.759   1.915  30.901  0.00  0.00    -0.050 Br
ATOM     18  C11 UNL     1      21.069   3.960  28.999  0.00  0.00    +0.016 A 
ATOM     19  C12 UNL     1      21.080   4.586  27.749  0.00  0.00    +0.012 A 
ENDBRANCH   9  13
BRANCH  10  20
ATOM     20  C13 UNL     1      19.655   3.696  24.443  0.00  0.00    +0.161 C 
BRANCH  20  21
ATOM     21  C14 UNL     1      20.081   2.229  24.234  0.00  0.00    +0.084 C 
ATOM     22  C15 UNL     1      19.779   1.160  25.279  0.00  0.00    +0.039 C 
ATOM     23  C16 UNL     1      18.949   1.235  24.006  0.00  0.00    +0.039 C 
BRANCH  21  24
ATOM     24  O1  UNL     1      21.188   1.980  23.414  0.00  0.00    -0.387 OA
ATOM     25  H13 UNL     1      21.927   1.739  24.029  0.00  0.00    +0.210 HD
ENDBRANCH  21  24
ENDBRANCH  20  21
ENDBRANCH  10  20
TORSDOF 4
ENDMDL
MODEL 7
REMARK VINA RESULT:    -5.542     13.754     15.726
REMARK INTER + INTRA:          -7.416
REMARK INTER:                  -6.422
REMARK INTRA:                  -0.994
REMARK UNBOUND:                -0.741
REMARK  Name = /home/qwerty/github/datacon2025hack/step_04_hit_selection/docking/ligands/lig_792.pdb
REMARK  4 active torsions:
REMARK  status: ('A' for Active; 'I' for Inactive)
REMARK    1  A    between atoms: C6_9  and  C7_10
REMARK    2  A    between atoms: N4_17  and  C13_18
REMARK    3  A    between atoms: C13_18  and  C14_19
REMARK    4  A    between atoms: C14_19  and  O1_20
REMARK                            x       y       z     vdW  Elec       q    Type
REMARK                         _______ _______ _______ _____ _____    ______ ____
ROOT
ATOM      1  C1  UNL     1      12.625  14.635  31.212  0.00  0.00    +0.008 C 
ATOM      2  C2  UNL     1      11.727  14.213  30.312  0.00  0.00    -0.074 C 
ATOM      3  C3  UNL     1      11.844  14.647  28.869  0.00  0.00    +0.049 C 
ATOM      4  C4  UNL     1      10.648  14.154  28.050  0.00  0.00    +0.112 C 
ATOM      5  N1  UNL     1      10.411  12.728  28.316  0.00  0.00    -0.299 N 
ATOM      6  C5  UNL     1      10.598  11.782  27.252  0.00  0.00    +0.220 A 
ATOM      7  N2  UNL     1      11.674  11.796  26.443  0.00  0.00    -0.113 NA
ATOM      8  N3  UNL     1      11.470  10.869  25.520  0.00  0.00    -0.128 NA
ATOM      9  C6  UNL     1      10.271  10.310  25.776  0.00  0.00    +0.166 A 
ATOM     10  N4  UNL     1       9.683  10.867  26.862  0.00  0.00    -0.292 N 
ATOM     11  C17 UNL     1      10.308  12.239  29.702  0.00  0.00    +0.112 C 
ATOM     12  C18 UNL     1      10.558  13.352  30.733  0.00  0.00    +0.049 C 
ENDROOT
BRANCH   9  13
ATOM     13  C7  UNL     1       9.682   9.264  24.919  0.00  0.00    +0.019 A 
ATOM     14  C8  UNL     1       9.789   7.906  25.269  0.00  0.00    +0.012 A 
ATOM     15  C9  UNL     1       9.245   6.921  24.438  0.00  0.00    +0.016 A 
ATOM     16  C10 UNL     1       8.605   7.283  23.248  0.00  0.00    +0.018 A 
ATOM     17 BR1  UNL     1       7.864   5.935  22.115  0.00  0.00    -0.050 Br
ATOM     18  C11 UNL     1       8.515   8.630  22.885  0.00  0.00    +0.016 A 
ATOM     19  C12 UNL     1       9.059   9.617  23.713  0.00  0.00    +0.012 A 
ENDBRANCH   9  13
BRANCH  10  20
ATOM     20  C13 UNL     1       8.289  10.739  27.305  0.00  0.00    +0.161 C 
BRANCH  20  21
ATOM     21  C14 UNL     1       8.103   9.558  28.278  0.00  0.00    +0.084 C 
ATOM     22  C15 UNL     1       6.799   9.360  29.044  0.00  0.00    +0.039 C 
ATOM     23  C16 UNL     1       7.114   8.485  27.840  0.00  0.00    +0.039 C 
BRANCH  21  24
ATOM     24  O1  UNL     1       9.247   9.021  28.880  0.00  0.00    -0.387 OA
ATOM     25  H13 UNL     1       8.979   8.792  29.807  0.00  0.00    +0.210 HD
ENDBRANCH  21  24
ENDBRANCH  20  21
ENDBRANCH  10  20
TORSDOF 4
ENDMDL
MODEL 8
REMARK VINA RESULT:    -5.525      7.999     11.202
REMARK INTER + INTRA:          -7.396
REMARK INTER:                  -6.519
REMARK INTRA:                  -0.877
REMARK UNBOUND:                -0.741
REMARK  Name = /home/qwerty/github/datacon2025hack/step_04_hit_selection/docking/ligands/lig_792.pdb
REMARK  4 active torsions:
REMARK  status: ('A' for Active; 'I' for Inactive)
REMARK    1  A    between atoms: C6_9  and  C7_10
REMARK    2  A    between atoms: N4_17  and  C13_18
REMARK    3  A    between atoms: C13_18  and  C14_19
REMARK    4  A    between atoms: C14_19  and  O1_20
REMARK                            x       y       z     vdW  Elec       q    Type
REMARK                         _______ _______ _______ _____ _____    ______ ____
ROOT
ATOM      1  C1  UNL     1      11.231  12.290  35.205  0.00  0.00    +0.008 C 
ATOM      2  C2  UNL     1      12.550  12.295  35.441  0.00  0.00    -0.074 C 
ATOM      3  C3  UNL     1      13.065  12.069  36.845  0.00  0.00    +0.049 C 
ATOM      4  C4  UNL     1      14.585  12.241  36.904  0.00  0.00    +0.112 C 
ATOM      5  N1  UNL     1      15.219  11.485  35.815  0.00  0.00    -0.299 N 
ATOM      6  C5  UNL     1      16.065  10.372  36.142  0.00  0.00    +0.220 A 
ATOM      7  N2  UNL     1      15.721   9.433  37.043  0.00  0.00    -0.113 NA
ATOM      8  N3  UNL     1      16.765   8.630  37.177  0.00  0.00    -0.128 NA
ATOM      9  C6  UNL     1      17.731   9.095  36.360  0.00  0.00    +0.166 A 
ATOM     10  N4  UNL     1      17.329  10.203  35.693  0.00  0.00    -0.292 N 
ATOM     11  C17 UNL     1      14.748  11.645  34.429  0.00  0.00    +0.112 C 
ATOM     12  C18 UNL     1      13.532  12.582  34.330  0.00  0.00    +0.049 C 
ENDROOT
BRANCH   9  13
ATOM     13  C7  UNL     1      19.068   8.478  36.278  0.00  0.00    +0.019 A 
ATOM     14  C8  UNL     1      19.496   7.847  35.097  0.00  0.00    +0.012 A 
ATOM     15  C9  UNL     1      20.758   7.247  35.037  0.00  0.00    +0.016 A 
ATOM     16  C10 UNL     1      21.594   7.260  36.158  0.00  0.00    +0.018 A 
ATOM     17 BR1  UNL     1      23.317   6.439  36.074  0.00  0.00    -0.050 Br
ATOM     18  C11 UNL     1      21.165   7.867  37.342  0.00  0.00    +0.016 A 
ATOM     19  C12 UNL     1      19.903   8.467  37.405  0.00  0.00    +0.012 A 
ENDBRANCH   9  13
BRANCH  10  20
ATOM     20  C13 UNL     1      18.151  11.153  34.932  0.00  0.00    +0.161 C 
BRANCH  20  21
ATOM     21  C14 UNL     1      19.011  12.035  35.859  0.00  0.00    +0.084 C 
ATOM     22  C15 UNL     1      20.511  11.802  36.007  0.00  0.00    +0.039 C 
ATOM     23  C16 UNL     1      20.002  12.961  35.162  0.00  0.00    +0.039 C 
BRANCH  21  24
ATOM     24  O1  UNL     1      18.381  12.645  36.950  0.00  0.00    -0.387 OA
ATOM     25  H13 UNL     1      17.596  12.077  37.157  0.00  0.00    +0.210 HD
ENDBRANCH  21  24
ENDBRANCH  20  21
ENDBRANCH  10  20
TORSDOF 4
ENDMDL
MODEL 9
REMARK VINA RESULT:    -5.460     11.596     14.712
REMARK INTER + INTRA:          -7.318
REMARK INTER:                  -6.331
REMARK INTRA:                  -0.988
REMARK UNBOUND:                -0.741
REMARK  Name = /home/qwerty/github/datacon2025hack/step_04_hit_selection/docking/ligands/lig_792.pdb
REMARK  4 active torsions:
REMARK  status: ('A' for Active; 'I' for Inactive)
REMARK    1  A    between atoms: C6_9  and  C7_10
REMARK    2  A    between atoms: N4_17  and  C13_18
REMARK    3  A    between atoms: C13_18  and  C14_19
REMARK    4  A    between atoms: C14_19  and  O1_20
REMARK                            x       y       z     vdW  Elec       q    Type
REMARK                         _______ _______ _______ _____ _____    ______ ____
ROOT
ATOM      1  C1  UNL     1       8.087  11.081  21.482  0.00  0.00    +0.008 C 
ATOM      2  C2  UNL     1       8.704   9.977  21.925  0.00  0.00    -0.074 C 
ATOM      3  C3  UNL     1       7.998   8.642  21.862  0.00  0.00    +0.049 C 
ATOM      4  C4  UNL     1       8.833   7.549  22.533  0.00  0.00    +0.112 C 
ATOM      5  N1  UNL     1      10.220   7.610  22.053  0.00  0.00    -0.299 N 
ATOM      6  C5  UNL     1      10.739   6.514  21.284  0.00  0.00    +0.220 A 
ATOM      7  N2  UNL     1      10.060   5.949  20.268  0.00  0.00    -0.113 NA
ATOM      8  N3  UNL     1      10.774   4.911  19.861  0.00  0.00    -0.128 NA
ATOM      9  C6  UNL     1      11.874   4.857  20.638  0.00  0.00    +0.166 A 
ATOM     10  N4  UNL     1      11.885   5.851  21.557  0.00  0.00    -0.292 N 
ATOM     11  C17 UNL     1      10.955   8.887  22.070  0.00  0.00    +0.112 C 
ATOM     12  C18 UNL     1      10.080  10.058  22.545  0.00  0.00    +0.049 C 
ENDROOT
BRANCH   9  13
ATOM     13  C7  UNL     1      12.888   3.794  20.508  0.00  0.00    +0.019 A 
ATOM     14  C8  UNL     1      14.104   4.038  19.848  0.00  0.00    +0.012 A 
ATOM     15  C9  UNL     1      15.049   3.017  19.712  0.00  0.00    +0.016 A 
ATOM     16  C10 UNL     1      14.781   1.742  20.220  0.00  0.00    +0.018 A 
ATOM     17 BR1  UNL     1      16.073   0.348  20.033  0.00  0.00    -0.050 Br
ATOM     18  C11 UNL     1      13.564   1.487  20.859  0.00  0.00    +0.016 A 
ATOM     19  C12 UNL     1      12.617   2.506  20.996  0.00  0.00    +0.012 A 
ENDBRANCH   9  13
BRANCH  10  20
ATOM     20  C13 UNL     1      12.744   5.984  22.741  0.00  0.00    +0.161 C 
BRANCH  20  21
ATOM     21  C14 UNL     1      14.039   6.758  22.426  0.00  0.00    +0.084 C 
ATOM     22  C15 UNL     1      14.963   7.243  23.538  0.00  0.00    +0.039 C 
ATOM     23  C16 UNL     1      15.341   6.020  22.716  0.00  0.00    +0.039 C 
BRANCH  21  24
ATOM     24  O1  UNL     1      14.090   7.489  21.233  0.00  0.00    -0.387 OA
ATOM     25  H13 UNL     1      13.260   8.031  21.217  0.00  0.00    +0.210 HD
ENDBRANCH  21  24
ENDBRANCH  20  21
ENDBRANCH  10  20
TORSDOF 4
ENDMDL
