MODEL 1
REMARK VINA RESULT:    -6.274      0.000      0.000
REMARK INTER + INTRA:          -7.446
REMARK INTER:                  -7.008
REMARK INTRA:                  -0.438
REMARK UNBOUND:                -0.438
REMARK  Name = /home/qwerty/github/datacon2025hack/step_04_hit_selection/docking/ligands/lig_22.pdb
REMARK  4 active torsions:
REMARK  status: ('A' for Active; 'I' for Inactive)
REMARK    1  A    between atoms: C1_1  and  N1_2
REMARK    2  A    between atoms: N1_2  and  C2_3
REMARK    3  A    between atoms: N2_6  and  C4_7
REMARK    4  A    between atoms: C7_10  and  C8_11
REMARK                            x       y       z     vdW  Elec       q    Type
REMARK                         _______ _______ _______ _____ _____    ______ ____
ROOT
ATOM      1  C4  UNL     1      18.198  13.121  35.397  0.00  0.00    +0.035 A 
ATOM      2  C5  UNL     1      18.966  12.961  34.231  0.00  0.00    +0.024 A 
ATOM      3  C6  UNL     1      19.894  11.921  34.132  0.00  0.00    +0.013 A 
ATOM      4  C7  UNL     1      20.064  11.011  35.191  0.00  0.00    +0.017 A 
ATOM      5  C16 UNL     1      19.277  11.161  36.346  0.00  0.00    +0.013 A 
ATOM      6  C17 UNL     1      18.349  12.202  36.443  0.00  0.00    +0.024 A 
ENDROOT
BRANCH   4   7
ATOM      7  C8  UNL     1      21.041   9.900  35.111  0.00  0.00    +0.136 A 
ATOM      8  C9  UNL     1      21.830   9.560  34.008  0.00  0.00    +0.058 A 
ATOM      9  C10 UNL     1      22.561   8.474  34.430  0.00  0.00    +0.023 A 
ATOM     10  C11 UNL     1      23.514   7.703  33.769  0.00  0.00    +0.050 A 
ATOM     11  C12 UNL     1      24.098   6.636  34.478  0.00  0.00    +0.124 A 
ATOM     12  F1  UNL     1      25.031   5.857  33.875  0.00  0.00    -0.205 F 
ATOM     13  C13 UNL     1      23.716   6.371  35.813  0.00  0.00    +0.042 A 
ATOM     14  C14 UNL     1      22.749   7.170  36.449  0.00  0.00    +0.049 A 
ATOM     15  C15 UNL     1      22.190   8.217  35.722  0.00  0.00    +0.136 A 
ATOM     16  O2  UNL     1      21.284   9.075  36.118  0.00  0.00    -0.455 OA
ENDBRANCH   4   7
BRANCH   1  22
ATOM     17  C1  UNL     1      15.319  16.106  36.623  0.00  0.00    +0.133 C 
ATOM     18  N1  UNL     1      14.859  14.935  35.872  0.00  0.00    -0.291 N 
ATOM     19  C2  UNL     1      13.426  14.723  35.641  0.00  0.00    +0.133 C 
ATOM     20  C3  UNL     1      15.802  13.957  35.386  0.00  0.00    +0.306 C 
ATOM     21  O1  UNL     1      15.378  12.914  34.814  0.00  0.00    -0.252 OA
ATOM     22  N2  UNL     1      17.220  14.170  35.512  0.00  0.00    -0.269 N 
ATOM     23  H7  UNL     1      17.571  15.150  35.594  0.00  0.00    +0.156 HD
ENDBRANCH   1  22
TORSDOF 2
ENDMDL
MODEL 2
REMARK VINA RESULT:    -5.976      5.101      9.545
REMARK INTER + INTRA:          -7.113
REMARK INTER:                  -6.665
REMARK INTRA:                  -0.448
REMARK UNBOUND:                -0.438
REMARK  Name = /home/qwerty/github/datacon2025hack/step_04_hit_selection/docking/ligands/lig_22.pdb
REMARK  4 active torsions:
REMARK  status: ('A' for Active; 'I' for Inactive)
REMARK    1  A    between atoms: C1_1  and  N1_2
REMARK    2  A    between atoms: N1_2  and  C2_3
REMARK    3  A    between atoms: N2_6  and  C4_7
REMARK    4  A    between atoms: C7_10  and  C8_11
REMARK                            x       y       z     vdW  Elec       q    Type
REMARK                         _______ _______ _______ _____ _____    ______ ____
ROOT
ATOM      1  C4  UNL     1      19.121   8.152  37.706  0.00  0.00    +0.035 A 
ATOM      2  C5  UNL     1      17.884   7.511  37.523  0.00  0.00    +0.024 A 
ATOM      3  C6  UNL     1      16.729   8.259  37.278  0.00  0.00    +0.013 A 
ATOM      4  C7  UNL     1      16.789   9.661  37.198  0.00  0.00    +0.017 A 
ATOM      5  C16 UNL     1      18.032  10.297  37.359  0.00  0.00    +0.013 A 
ATOM      6  C17 UNL     1      19.187   9.548  37.603  0.00  0.00    +0.024 A 
ENDROOT
BRANCH   4   7
ATOM      7  C8  UNL     1      15.579  10.477  36.940  0.00  0.00    +0.136 A 
ATOM      8  C9  UNL     1      15.508  11.872  36.890  0.00  0.00    +0.058 A 
ATOM      9  C10 UNL     1      14.185  12.139  36.624  0.00  0.00    +0.023 A 
ATOM     10  C11 UNL     1      13.513  13.348  36.461  0.00  0.00    +0.050 A 
ATOM     11  C12 UNL     1      12.132  13.298  36.192  0.00  0.00    +0.124 A 
ATOM     12  F1  UNL     1      11.435  14.450  36.027  0.00  0.00    -0.205 F 
ATOM     13  C13 UNL     1      11.467  12.054  36.096  0.00  0.00    +0.042 A 
ATOM     14  C14 UNL     1      12.177  10.851  36.267  0.00  0.00    +0.049 A 
ATOM     15  C15 UNL     1      13.542  10.934  36.531  0.00  0.00    +0.136 A 
ATOM     16  O2  UNL     1      14.384   9.950  36.721  0.00  0.00    -0.455 OA
ENDBRANCH   4   7
BRANCH   1  22
ATOM     17  C1  UNL     1      23.079   6.689  38.658  0.00  0.00    +0.133 C 
ATOM     18  N1  UNL     1      22.642   6.714  37.259  0.00  0.00    -0.291 N 
ATOM     19  C2  UNL     1      23.579   6.355  36.189  0.00  0.00    +0.133 C 
ATOM     20  C3  UNL     1      21.304   7.128  36.914  0.00  0.00    +0.306 C 
ATOM     21  O1  UNL     1      20.975   7.221  35.698  0.00  0.00    -0.252 OA
ATOM     22  N2  UNL     1      20.328   7.402  37.936  0.00  0.00    -0.269 N 
ATOM     23  H7  UNL     1      20.446   6.953  38.871  0.00  0.00    +0.156 HD
ENDBRANCH   1  22
TORSDOF 2
ENDMDL
MODEL 3
REMARK VINA RESULT:    -5.963     17.275     19.317
REMARK INTER + INTRA:          -7.098
REMARK INTER:                  -6.678
REMARK INTRA:                  -0.420
REMARK UNBOUND:                -0.438
REMARK  Name = /home/qwerty/github/datacon2025hack/step_04_hit_selection/docking/ligands/lig_22.pdb
REMARK  4 active torsions:
REMARK  status: ('A' for Active; 'I' for Inactive)
REMARK    1  A    between atoms: C1_1  and  N1_2
REMARK    2  A    between atoms: N1_2  and  C2_3
REMARK    3  A    between atoms: N2_6  and  C4_7
REMARK    4  A    between atoms: C7_10  and  C8_11
REMARK                            x       y       z     vdW  Elec       q    Type
REMARK                         _______ _______ _______ _____ _____    ______ ____
ROOT
ATOM      1  C4  UNL     1      14.675   2.818  19.896  0.00  0.00    +0.035 A 
ATOM      2  C5  UNL     1      15.182   4.124  19.785  0.00  0.00    +0.024 A 
ATOM      3  C6  UNL     1      14.353   5.227  20.012  0.00  0.00    +0.013 A 
ATOM      4  C7  UNL     1      13.004   5.046  20.368  0.00  0.00    +0.017 A 
ATOM      5  C16 UNL     1      12.507   3.738  20.500  0.00  0.00    +0.013 A 
ATOM      6  C17 UNL     1      13.337   2.636  20.273  0.00  0.00    +0.024 A 
ENDROOT
BRANCH   4   7
ATOM      7  C8  UNL     1      12.105   6.198  20.613  0.00  0.00    +0.136 A 
ATOM      8  C9  UNL     1      10.747   6.280  20.292  0.00  0.00    +0.058 A 
ATOM      9  C10 UNL     1      10.369   7.533  20.716  0.00  0.00    +0.023 A 
ATOM     10  C11 UNL     1       9.137   8.180  20.664  0.00  0.00    +0.050 A 
ATOM     11  C12 UNL     1       9.061   9.485  21.189  0.00  0.00    +0.124 A 
ATOM     12  F1  UNL     1       7.882  10.155  21.159  0.00  0.00    -0.205 F 
ATOM     13  C13 UNL     1      10.206  10.100  21.744  0.00  0.00    +0.042 A 
ATOM     14  C14 UNL     1      11.435   9.416  21.780  0.00  0.00    +0.049 A 
ATOM     15  C15 UNL     1      11.478   8.128  21.253  0.00  0.00    +0.136 A 
ATOM     16  O2  UNL     1      12.508   7.322  21.187  0.00  0.00    -0.455 OA
ENDBRANCH   4   7
BRANCH   1  22
ATOM     17  C1  UNL     1      16.421  -1.067  19.147  0.00  0.00    +0.133 C 
ATOM     18  N1  UNL     1      16.510  -0.489  20.491  0.00  0.00    -0.291 N 
ATOM     19  C2  UNL     1      17.083  -1.271  21.592  0.00  0.00    +0.133 C 
ATOM     20  C3  UNL     1      16.002   0.834  20.757  0.00  0.00    +0.306 C 
ATOM     21  O1  UNL     1      16.014   1.279  21.939  0.00  0.00    -0.252 OA
ATOM     22  N2  UNL     1      15.514   1.668  19.690  0.00  0.00    -0.269 N 
ATOM     23  H7  UNL     1      15.863   1.493  18.722  0.00  0.00    +0.156 HD
ENDBRANCH   1  22
TORSDOF 2
ENDMDL
MODEL 4
REMARK VINA RESULT:    -5.942     10.361     12.357
REMARK INTER + INTRA:          -7.075
REMARK INTER:                  -6.638
REMARK INTRA:                  -0.437
REMARK UNBOUND:                -0.438
REMARK  Name = /home/qwerty/github/datacon2025hack/step_04_hit_selection/docking/ligands/lig_22.pdb
REMARK  4 active torsions:
REMARK  status: ('A' for Active; 'I' for Inactive)
REMARK    1  A    between atoms: C1_1  and  N1_2
REMARK    2  A    between atoms: N1_2  and  C2_3
REMARK    3  A    between atoms: N2_6  and  C4_7
REMARK    4  A    between atoms: C7_10  and  C8_11
REMARK                            x       y       z     vdW  Elec       q    Type
REMARK                         _______ _______ _______ _____ _____    ______ ____
ROOT
ATOM      1  C4  UNL     1      22.215   4.610  25.023  0.00  0.00    +0.035 A 
ATOM      2  C5  UNL     1      22.660   3.321  25.364  0.00  0.00    +0.024 A 
ATOM      3  C6  UNL     1      22.387   2.790  26.629  0.00  0.00    +0.013 A 
ATOM      4  C7  UNL     1      21.654   3.530  27.573  0.00  0.00    +0.017 A 
ATOM      5  C16 UNL     1      21.191   4.810  27.219  0.00  0.00    +0.013 A 
ATOM      6  C17 UNL     1      21.463   5.340  25.954  0.00  0.00    +0.024 A 
ENDROOT
BRANCH   4   7
ATOM      7  C8  UNL     1      21.353   2.991  28.919  0.00  0.00    +0.136 A 
ATOM      8  C9  UNL     1      21.349   3.703  30.122  0.00  0.00    +0.058 A 
ATOM      9  C10 UNL     1      21.013   2.768  31.073  0.00  0.00    +0.023 A 
ATOM     10  C11 UNL     1      20.853   2.885  32.452  0.00  0.00    +0.050 A 
ATOM     11  C12 UNL     1      20.499   1.728  33.171  0.00  0.00    +0.124 A 
ATOM     12  F1  UNL     1      20.333   1.794  34.515  0.00  0.00    -0.205 F 
ATOM     13  C13 UNL     1      20.317   0.497  32.499  0.00  0.00    +0.042 A 
ATOM     14  C14 UNL     1      20.487   0.414  31.105  0.00  0.00    +0.049 A 
ATOM     15  C15 UNL     1      20.837   1.577  30.423  0.00  0.00    +0.136 A 
ATOM     16  O2  UNL     1      21.042   1.722  29.138  0.00  0.00    -0.455 OA
ENDBRANCH   4   7
BRANCH   1  22
ATOM     17  C1  UNL     1      22.733   7.062  21.499  0.00  0.00    +0.133 C 
ATOM     18  N1  UNL     1      21.639   6.088  21.538  0.00  0.00    -0.291 N 
ATOM     19  C2  UNL     1      20.666   6.030  20.443  0.00  0.00    +0.133 C 
ATOM     20  C3  UNL     1      21.482   5.205  22.668  0.00  0.00    +0.306 C 
ATOM     21  O1  UNL     1      20.485   4.432  22.719  0.00  0.00    -0.252 OA
ATOM     22  N2  UNL     1      22.463   5.168  23.721  0.00  0.00    -0.269 N 
ATOM     23  H7  UNL     1      23.438   5.471  23.504  0.00  0.00    +0.156 HD
ENDBRANCH   1  22
TORSDOF 2
ENDMDL
MODEL 5
REMARK VINA RESULT:    -5.877     10.586     11.742
REMARK INTER + INTRA:          -7.003
REMARK INTER:                  -6.603
REMARK INTRA:                  -0.400
REMARK UNBOUND:                -0.438
REMARK  Name = /home/qwerty/github/datacon2025hack/step_04_hit_selection/docking/ligands/lig_22.pdb
REMARK  4 active torsions:
REMARK  status: ('A' for Active; 'I' for Inactive)
REMARK    1  A    between atoms: C1_1  and  N1_2
REMARK    2  A    between atoms: N1_2  and  C2_3
REMARK    3  A    between atoms: N2_6  and  C4_7
REMARK    4  A    between atoms: C7_10  and  C8_11
REMARK                            x       y       z     vdW  Elec       q    Type
REMARK                         _______ _______ _______ _____ _____    ______ ____
ROOT
ATOM      1  C4  UNL     1      18.325   0.480  33.071  0.00  0.00    +0.035 A 
ATOM      2  C5  UNL     1      19.583  -0.038  32.721  0.00  0.00    +0.024 A 
ATOM      3  C6  UNL     1      20.188   0.327  31.515  0.00  0.00    +0.013 A 
ATOM      4  C7  UNL     1      19.555   1.230  30.641  0.00  0.00    +0.017 A 
ATOM      5  C16 UNL     1      18.307   1.764  31.007  0.00  0.00    +0.013 A 
ATOM      6  C17 UNL     1      17.703   1.398  32.213  0.00  0.00    +0.024 A 
ENDROOT
BRANCH   4   7
ATOM      7  C8  UNL     1      20.175   1.633  29.358  0.00  0.00    +0.136 A 
ATOM      8  C9  UNL     1      21.418   2.249  29.188  0.00  0.00    +0.058 A 
ATOM      9  C10 UNL     1      21.537   2.414  27.828  0.00  0.00    +0.023 A 
ATOM     10  C11 UNL     1      22.560   2.970  27.062  0.00  0.00    +0.050 A 
ATOM     11  C12 UNL     1      22.389   2.998  25.665  0.00  0.00    +0.124 A 
ATOM     12  F1  UNL     1      23.358   3.531  24.879  0.00  0.00    -0.205 F 
ATOM     13  C13 UNL     1      21.214   2.475  25.077  0.00  0.00    +0.042 A 
ATOM     14  C14 UNL     1      20.202   1.921  25.882  0.00  0.00    +0.049 A 
ATOM     15  C15 UNL     1      20.400   1.908  27.260  0.00  0.00    +0.136 A 
ATOM     16  O2  UNL     1      19.595   1.444  28.182  0.00  0.00    -0.455 OA
ENDBRANCH   4   7
BRANCH   1  22
ATOM     17  C1  UNL     1      15.673  -0.308  36.395  0.00  0.00    +0.133 C 
ATOM     18  N1  UNL     1      16.631   0.798  36.490  0.00  0.00    -0.291 N 
ATOM     19  C2  UNL     1      16.608   1.694  37.651  0.00  0.00    +0.133 C 
ATOM     20  C3  UNL     1      17.578   1.043  35.430  0.00  0.00    +0.306 C 
ATOM     21  O1  UNL     1      18.337   2.050  35.494  0.00  0.00    -0.252 OA
ATOM     22  N2  UNL     1      17.693   0.137  34.317  0.00  0.00    -0.269 N 
ATOM     23  H7  UNL     1      17.393  -0.854  34.448  0.00  0.00    +0.156 HD
ENDBRANCH   1  22
TORSDOF 2
ENDMDL
MODEL 6
REMARK VINA RESULT:    -5.839      2.674      3.610
REMARK INTER + INTRA:          -6.960
REMARK INTER:                  -6.533
REMARK INTRA:                  -0.426
REMARK UNBOUND:                -0.438
REMARK  Name = /home/qwerty/github/datacon2025hack/step_04_hit_selection/docking/ligands/lig_22.pdb
REMARK  4 active torsions:
REMARK  status: ('A' for Active; 'I' for Inactive)
REMARK    1  A    between atoms: C1_1  and  N1_2
REMARK    2  A    between atoms: N1_2  and  C2_3
REMARK    3  A    between atoms: N2_6  and  C4_7
REMARK    4  A    between atoms: C7_10  and  C8_11
REMARK                            x       y       z     vdW  Elec       q    Type
REMARK                         _______ _______ _______ _____ _____    ______ ____
ROOT
ATOM      1  C4  UNL     1      14.844  11.248  36.960  0.00  0.00    +0.035 A 
ATOM      2  C5  UNL     1      14.931   9.951  36.425  0.00  0.00    +0.024 A 
ATOM      3  C6  UNL     1      16.162   9.290  36.368  0.00  0.00    +0.013 A 
ATOM      4  C7  UNL     1      17.328   9.907  36.856  0.00  0.00    +0.017 A 
ATOM      5  C16 UNL     1      17.233  11.195  37.411  0.00  0.00    +0.013 A 
ATOM      6  C17 UNL     1      16.001  11.854  37.468  0.00  0.00    +0.024 A 
ENDROOT
BRANCH   4   7
ATOM      7  C8  UNL     1      18.644   9.228  36.806  0.00  0.00    +0.136 A 
ATOM      8  C9  UNL     1      19.128   8.278  37.710  0.00  0.00    +0.058 A 
ATOM      9  C10 UNL     1      20.379   7.957  37.234  0.00  0.00    +0.023 A 
ATOM     10  C11 UNL     1      21.338   7.069  37.715  0.00  0.00    +0.050 A 
ATOM     11  C12 UNL     1      22.544   6.957  36.998  0.00  0.00    +0.124 A 
ATOM     12  F1  UNL     1      23.507   6.105  37.429  0.00  0.00    -0.205 F 
ATOM     13  C13 UNL     1      22.756   7.728  35.832  0.00  0.00    +0.042 A 
ATOM     14  C14 UNL     1      21.765   8.616  35.375  0.00  0.00    +0.049 A 
ATOM     15  C15 UNL     1      20.584   8.704  36.106  0.00  0.00    +0.136 A 
ATOM     16  O2  UNL     1      19.542   9.458  35.860  0.00  0.00    -0.455 OA
ENDBRANCH   4   7
BRANCH   1  22
ATOM     17  C1  UNL     1      10.715  12.532  36.998  0.00  0.00    +0.133 C 
ATOM     18  N1  UNL     1      11.620  13.064  35.975  0.00  0.00    -0.291 N 
ATOM     19  C2  UNL     1      11.101  13.930  34.912  0.00  0.00    +0.133 C 
ATOM     20  C3  UNL     1      13.019  12.712  35.978  0.00  0.00    +0.306 C 
ATOM     21  O1  UNL     1      13.763  13.114  35.040  0.00  0.00    -0.252 OA
ATOM     22  N2  UNL     1      13.586  11.939  37.051  0.00  0.00    -0.269 N 
ATOM     23  H7  UNL     1      13.112  11.956  37.982  0.00  0.00    +0.156 HD
ENDBRANCH   1  22
TORSDOF 2
ENDMDL
MODEL 7
REMARK VINA RESULT:    -5.830     12.713     13.660
REMARK INTER + INTRA:          -6.950
REMARK INTER:                  -6.507
REMARK INTRA:                  -0.443
REMARK UNBOUND:                -0.438
REMARK  Name = /home/qwerty/github/datacon2025hack/step_04_hit_selection/docking/ligands/lig_22.pdb
REMARK  4 active torsions:
REMARK  status: ('A' for Active; 'I' for Inactive)
REMARK    1  A    between atoms: C1_1  and  N1_2
REMARK    2  A    between atoms: N1_2  and  C2_3
REMARK    3  A    between atoms: N2_6  and  C4_7
REMARK    4  A    between atoms: C7_10  and  C8_11
REMARK                            x       y       z     vdW  Elec       q    Type
REMARK                         _______ _______ _______ _____ _____    ______ ____
ROOT
ATOM      1  C4  UNL     1      21.222   5.435  22.058  0.00  0.00    +0.035 A 
ATOM      2  C5  UNL     1      22.052   5.883  23.100  0.00  0.00    +0.024 A 
ATOM      3  C6  UNL     1      22.149   5.154  24.289  0.00  0.00    +0.013 A 
ATOM      4  C7  UNL     1      21.430   3.957  24.455  0.00  0.00    +0.017 A 
ATOM      5  C16 UNL     1      20.619   3.501  23.401  0.00  0.00    +0.013 A 
ATOM      6  C17 UNL     1      20.524   4.230  22.212  0.00  0.00    +0.024 A 
ENDROOT
BRANCH   4   7
ATOM      7  C8  UNL     1      21.515   3.168  25.706  0.00  0.00    +0.136 A 
ATOM      8  C9  UNL     1      20.456   2.551  26.378  0.00  0.00    +0.058 A 
ATOM      9  C10 UNL     1      21.042   1.952  27.468  0.00  0.00    +0.023 A 
ATOM     10  C11 UNL     1      20.492   1.192  28.498  0.00  0.00    +0.050 A 
ATOM     11  C12 UNL     1      21.365   0.706  29.490  0.00  0.00    +0.124 A 
ATOM     12  F1  UNL     1      20.874  -0.037  30.513  0.00  0.00    -0.205 F 
ATOM     13  C13 UNL     1      22.749   0.989  29.427  0.00  0.00    +0.042 A 
ATOM     14  C14 UNL     1      23.270   1.760  28.372  0.00  0.00    +0.049 A 
ATOM     15  C15 UNL     1      22.382   2.226  27.406  0.00  0.00    +0.136 A 
ATOM     16  O2  UNL     1      22.652   2.952  26.350  0.00  0.00    -0.455 OA
ENDBRANCH   4   7
BRANCH   1  22
ATOM     17  C1  UNL     1      21.640   8.045  18.634  0.00  0.00    +0.133 C 
ATOM     18  N1  UNL     1      20.473   8.194  19.509  0.00  0.00    -0.291 N 
ATOM     19  C2  UNL     1      19.523   9.289  19.290  0.00  0.00    +0.133 C 
ATOM     20  C3  UNL     1      20.267   7.293  20.618  0.00  0.00    +0.306 C 
ATOM     21  O1  UNL     1      19.301   7.491  21.407  0.00  0.00    -0.252 OA
ATOM     22  N2  UNL     1      21.124   6.155  20.816  0.00  0.00    -0.269 N 
ATOM     23  H7  UNL     1      21.631   5.763  19.991  0.00  0.00    +0.156 HD
ENDBRANCH   1  22
TORSDOF 2
ENDMDL
MODEL 8
REMARK VINA RESULT:    -5.816     10.528     12.521
REMARK INTER + INTRA:          -6.934
REMARK INTER:                  -6.490
REMARK INTRA:                  -0.444
REMARK UNBOUND:                -0.438
REMARK  Name = /home/qwerty/github/datacon2025hack/step_04_hit_selection/docking/ligands/lig_22.pdb
REMARK  4 active torsions:
REMARK  status: ('A' for Active; 'I' for Inactive)
REMARK    1  A    between atoms: C1_1  and  N1_2
REMARK    2  A    between atoms: N1_2  and  C2_3
REMARK    3  A    between atoms: N2_6  and  C4_7
REMARK    4  A    between atoms: C7_10  and  C8_11
REMARK                            x       y       z     vdW  Elec       q    Type
REMARK                         _______ _______ _______ _____ _____    ______ ____
ROOT
ATOM      1  C4  UNL     1      21.941   4.820  24.068  0.00  0.00    +0.035 A 
ATOM      2  C5  UNL     1      20.861   3.947  24.283  0.00  0.00    +0.024 A 
ATOM      3  C6  UNL     1      20.666   3.357  25.535  0.00  0.00    +0.013 A 
ATOM      4  C7  UNL     1      21.539   3.637  26.602  0.00  0.00    +0.017 A 
ATOM      5  C16 UNL     1      22.605   4.529  26.389  0.00  0.00    +0.013 A 
ATOM      6  C17 UNL     1      22.798   5.119  25.137  0.00  0.00    +0.024 A 
ENDROOT
BRANCH   4   7
ATOM      7  C8  UNL     1      21.354   3.024  27.938  0.00  0.00    +0.136 A 
ATOM      8  C9  UNL     1      20.904   1.728  28.206  0.00  0.00    +0.058 A 
ATOM      9  C10 UNL     1      20.906   1.641  29.579  0.00  0.00    +0.023 A 
ATOM     10  C11 UNL     1      20.558   0.593  30.428  0.00  0.00    +0.050 A 
ATOM     11  C12 UNL     1      20.668   0.810  31.814  0.00  0.00    +0.124 A 
ATOM     12  F1  UNL     1      20.339  -0.182  32.679  0.00  0.00    -0.205 F 
ATOM     13  C13 UNL     1      21.117   2.055  32.310  0.00  0.00    +0.042 A 
ATOM     14  C14 UNL     1      21.461   3.092  31.423  0.00  0.00    +0.049 A 
ATOM     15  C15 UNL     1      21.342   2.847  30.058  0.00  0.00    +0.136 A 
ATOM     16  O2  UNL     1      21.606   3.664  29.069  0.00  0.00    -0.455 OA
ENDBRANCH   4   7
BRANCH   1  22
ATOM     17  C1  UNL     1      23.350   6.982  20.598  0.00  0.00    +0.133 C 
ATOM     18  N1  UNL     1      22.215   7.512  21.359  0.00  0.00    -0.291 N 
ATOM     19  C2  UNL     1      21.641   8.816  21.013  0.00  0.00    +0.133 C 
ATOM     20  C3  UNL     1      21.675   6.779  22.478  0.00  0.00    +0.306 C 
ATOM     21  O1  UNL     1      20.751   7.292  23.170  0.00  0.00    -0.252 OA
ATOM     22  N2  UNL     1      22.149   5.458  22.796  0.00  0.00    -0.269 N 
ATOM     23  H7  UNL     1      22.581   4.887  22.036  0.00  0.00    +0.156 HD
ENDBRANCH   1  22
TORSDOF 2
ENDMDL
MODEL 9
REMARK VINA RESULT:    -5.795     13.279     15.418
REMARK INTER + INTRA:          -6.911
REMARK INTER:                  -6.475
REMARK INTRA:                  -0.436
REMARK UNBOUND:                -0.438
REMARK  Name = /home/qwerty/github/datacon2025hack/step_04_hit_selection/docking/ligands/lig_22.pdb
REMARK  4 active torsions:
REMARK  status: ('A' for Active; 'I' for Inactive)
REMARK    1  A    between atoms: C1_1  and  N1_2
REMARK    2  A    between atoms: N1_2  and  C2_3
REMARK    3  A    between atoms: N2_6  and  C4_7
REMARK    4  A    between atoms: C7_10  and  C8_11
REMARK                            x       y       z     vdW  Elec       q    Type
REMARK                         _______ _______ _______ _____ _____    ______ ____
ROOT
ATOM      1  C4  UNL     1       7.317   9.407  29.392  0.00  0.00    +0.035 A 
ATOM      2  C5  UNL     1       7.316   8.950  28.063  0.00  0.00    +0.024 A 
ATOM      3  C6  UNL     1       7.141   7.592  27.782  0.00  0.00    +0.013 A 
ATOM      4  C7  UNL     1       6.950   6.665  28.822  0.00  0.00    +0.017 A 
ATOM      5  C16 UNL     1       6.929   7.130  30.149  0.00  0.00    +0.013 A 
ATOM      6  C17 UNL     1       7.103   8.489  30.429  0.00  0.00    +0.024 A 
ENDROOT
BRANCH   4   7
ATOM      7  C8  UNL     1       6.764   5.221  28.551  0.00  0.00    +0.136 A 
ATOM      8  C9  UNL     1       5.890   4.353  29.213  0.00  0.00    +0.058 A 
ATOM      9  C10 UNL     1       6.086   3.136  28.601  0.00  0.00    +0.023 A 
ATOM     10  C11 UNL     1       5.497   1.895  28.831  0.00  0.00    +0.050 A 
ATOM     11  C12 UNL     1       5.912   0.816  28.027  0.00  0.00    +0.124 A 
ATOM     12  F1  UNL     1       5.368  -0.412  28.214  0.00  0.00    -0.205 F 
ATOM     13  C13 UNL     1       6.893   1.006  27.027  0.00  0.00    +0.042 A 
ATOM     14  C14 UNL     1       7.467   2.274  26.823  0.00  0.00    +0.049 A 
ATOM     15  C15 UNL     1       7.035   3.321  27.634  0.00  0.00    +0.136 A 
ATOM     16  O2  UNL     1       7.432   4.568  27.613  0.00  0.00    -0.455 OA
ENDBRANCH   4   7
BRANCH   1  22
ATOM     17  C1  UNL     1       7.529  13.726  29.482  0.00  0.00    +0.133 C 
ATOM     18  N1  UNL     1       8.766  12.947  29.583  0.00  0.00    -0.291 N 
ATOM     19  C2  UNL     1      10.065  13.626  29.598  0.00  0.00    +0.133 C 
ATOM     20  C3  UNL     1       8.725  11.505  29.629  0.00  0.00    +0.306 C 
ATOM     21  O1  UNL     1       9.805  10.852  29.632  0.00  0.00    -0.252 OA
ATOM     22  N2  UNL     1       7.471  10.803  29.705  0.00  0.00    -0.269 N 
ATOM     23  H7  UNL     1       6.644  11.302  30.103  0.00  0.00    +0.156 HD
ENDBRANCH   1  22
TORSDOF 2
ENDMDL
