MODEL 1
REMARK VINA RESULT:    -6.587      0.000      0.000
REMARK INTER + INTRA:          -7.931
REMARK INTER:                  -7.743
REMARK INTRA:                  -0.189
REMARK UNBOUND:                -0.189
REMARK  Name = /home/qwerty/github/datacon2025hack/step_04_hit_selection/docking/ligands/lig_291.pdb
REMARK  4 active torsions:
REMARK  status: ('A' for Active; 'I' for Inactive)
REMARK    1  A    between atoms: C1_1  and  C2_2
REMARK    2  A    between atoms: C4_4  and  N1_5
REMARK    3  A    between atoms: N2_8  and  C6_9
REMARK    4  A    between atoms: N3_16  and  C12_17
REMARK                            x       y       z     vdW  Elec       q    Type
REMARK                         _______ _______ _______ _____ _____    ______ ____
ROOT
ATOM      1  N1  UNL     1      22.467   2.909  32.963  0.00  0.00    -0.254 N 
ATOM      2  C5  UNL     1      22.461   4.327  32.743  0.00  0.00    +0.309 C 
ATOM      3  O1  UNL     1      21.405   4.909  32.375  0.00  0.00    -0.252 OA
ATOM      4  N2  UNL     1      23.647   5.089  33.018  0.00  0.00    -0.269 N 
ATOM      5  H5  UNL     1      23.291   2.497  33.453  0.00  0.00    +0.158 HD
ATOM      6  H6  UNL     1      24.393   4.635  33.592  0.00  0.00    +0.156 HD
ENDROOT
BRANCH   4   7
ATOM      7  C6  UNL     1      23.827   6.466  32.645  0.00  0.00    +0.035 A 
ATOM      8  C7  UNL     1      23.206   7.005  31.502  0.00  0.00    +0.026 A 
ATOM      9  C8  UNL     1      23.418   8.341  31.149  0.00  0.00    +0.040 A 
ATOM     10  C9  UNL     1      24.257   9.147  31.923  0.00  0.00    +0.124 A 
ATOM     11  F1  UNL     1      24.463  10.442  31.577  0.00  0.00    -0.205 F 
ATOM     12  C10 UNL     1      24.895   8.614  33.046  0.00  0.00    +0.040 A 
ATOM     13  C11 UNL     1      24.686   7.277  33.402  0.00  0.00    +0.026 A 
ENDBRANCH   4   7
BRANCH   1  17
ATOM     14  C1  UNL     1      18.128   0.474  32.638  0.00  0.00    +0.067 C 
ATOM     15  C2  UNL     1      19.513   0.970  32.393  0.00  0.00    +0.062 A 
ATOM     16  C3  UNL     1      20.258   1.743  33.263  0.00  0.00    +0.068 A 
ATOM     17  C4  UNL     1      21.407   2.030  32.549  0.00  0.00    +0.125 A 
ATOM     18  N3  UNL     1      21.324   1.460  31.327  0.00  0.00    -0.247 N 
ATOM     19  N4  UNL     1      20.162   0.832  31.220  0.00  0.00    -0.175 NA
BRANCH  18  20
ATOM     20  C12 UNL     1      22.295   1.606  30.233  0.00  0.00    +0.109 C 
ATOM     21  C13 UNL     1      22.347   0.413  29.276  0.00  0.00    +0.027 C 
ATOM     22  C14 UNL     1      21.801   1.293  28.160  0.00  0.00    +0.004 C 
ATOM     23  C15 UNL     1      21.759   2.484  29.109  0.00  0.00    +0.027 C 
ENDBRANCH  18  20
ENDBRANCH   1  17
TORSDOF 3
ENDMDL
MODEL 2
REMARK VINA RESULT:    -6.485     15.061     17.126
REMARK INTER + INTRA:          -7.811
REMARK INTER:                  -7.119
REMARK INTRA:                  -0.692
REMARK UNBOUND:                -0.189
REMARK  Name = /home/qwerty/github/datacon2025hack/step_04_hit_selection/docking/ligands/lig_291.pdb
REMARK  4 active torsions:
REMARK  status: ('A' for Active; 'I' for Inactive)
REMARK    1  A    between atoms: C1_1  and  C2_2
REMARK    2  A    between atoms: C4_4  and  N1_5
REMARK    3  A    between atoms: N2_8  and  C6_9
REMARK    4  A    between atoms: N3_16  and  C12_17
REMARK                            x       y       z     vdW  Elec       q    Type
REMARK                         _______ _______ _______ _____ _____    ______ ____
ROOT
ATOM      1  N1  UNL     1       9.261   6.689  20.255  0.00  0.00    -0.254 N 
ATOM      2  C5  UNL     1      10.385   5.877  20.626  0.00  0.00    +0.309 C 
ATOM      3  O1  UNL     1      10.966   6.062  21.729  0.00  0.00    -0.252 OA
ATOM      4  N2  UNL     1      10.794   4.802  19.765  0.00  0.00    -0.269 N 
ATOM      5  H5  UNL     1       8.688   6.382  19.439  0.00  0.00    +0.158 HD
ATOM      6  H6  UNL     1      10.125   4.492  19.025  0.00  0.00    +0.156 HD
ENDROOT
BRANCH   4   7
ATOM      7  C6  UNL     1      12.016   4.061  19.925  0.00  0.00    +0.035 A 
ATOM      8  C7  UNL     1      12.047   2.837  20.620  0.00  0.00    +0.026 A 
ATOM      9  C8  UNL     1      13.254   2.149  20.781  0.00  0.00    +0.040 A 
ATOM     10  C9  UNL     1      14.439   2.678  20.262  0.00  0.00    +0.124 A 
ATOM     11  F1  UNL     1      15.608   2.011  20.422  0.00  0.00    -0.205 F 
ATOM     12  C10 UNL     1      14.420   3.903  19.590  0.00  0.00    +0.040 A 
ATOM     13  C11 UNL     1      13.215   4.595  19.428  0.00  0.00    +0.026 A 
ENDBRANCH   4   7
BRANCH   1  17
ATOM     14  C1  UNL     1       7.284   9.934  23.484  0.00  0.00    +0.067 C 
ATOM     15  C2  UNL     1       8.034   9.318  22.351  0.00  0.00    +0.062 A 
ATOM     16  C3  UNL     1       7.925   8.006  21.931  0.00  0.00    +0.068 A 
ATOM     17  C4  UNL     1       8.884   7.895  20.940  0.00  0.00    +0.125 A 
ATOM     18  N3  UNL     1       9.519   9.080  20.804  0.00  0.00    -0.247 N 
ATOM     19  N4  UNL     1       9.019   9.942  21.676  0.00  0.00    -0.175 NA
BRANCH  18  20
ATOM     20  C12 UNL     1      10.666   9.353  19.925  0.00  0.00    +0.109 C 
ATOM     21  C13 UNL     1      10.873  10.835  19.606  0.00  0.00    +0.027 C 
ATOM     22  C14 UNL     1      12.184  10.813  20.379  0.00  0.00    +0.004 C 
ATOM     23  C15 UNL     1      11.985   9.335  20.690  0.00  0.00    +0.027 C 
ENDBRANCH  18  20
ENDBRANCH   1  17
TORSDOF 3
ENDMDL
MODEL 3
REMARK VINA RESULT:    -6.447     10.396     12.131
REMARK INTER + INTRA:          -7.766
REMARK INTER:                  -7.051
REMARK INTRA:                  -0.716
REMARK UNBOUND:                -0.189
REMARK  Name = /home/qwerty/github/datacon2025hack/step_04_hit_selection/docking/ligands/lig_291.pdb
REMARK  4 active torsions:
REMARK  status: ('A' for Active; 'I' for Inactive)
REMARK    1  A    between atoms: C1_1  and  C2_2
REMARK    2  A    between atoms: C4_4  and  N1_5
REMARK    3  A    between atoms: N2_8  and  C6_9
REMARK    4  A    between atoms: N3_16  and  C12_17
REMARK                            x       y       z     vdW  Elec       q    Type
REMARK                         _______ _______ _______ _____ _____    ______ ____
ROOT
ATOM      1  N1  UNL     1      16.544  11.708  37.961  0.00  0.00    -0.254 N 
ATOM      2  C5  UNL     1      15.423  11.850  37.076  0.00  0.00    +0.309 C 
ATOM      3  O1  UNL     1      15.202  10.984  36.187  0.00  0.00    -0.252 OA
ATOM      4  N2  UNL     1      14.514  12.947  37.258  0.00  0.00    -0.269 N 
ATOM      5  H5  UNL     1      16.581  12.326  38.800  0.00  0.00    +0.158 HD
ATOM      6  H6  UNL     1      14.554  13.464  38.165  0.00  0.00    +0.156 HD
ENDROOT
BRANCH   4   7
ATOM      7  C6  UNL     1      13.486  13.308  36.320  0.00  0.00    +0.035 A 
ATOM      8  C7  UNL     1      12.163  12.852  36.467  0.00  0.00    +0.026 A 
ATOM      9  C8  UNL     1      11.189  13.199  35.525  0.00  0.00    +0.040 A 
ATOM     10  C9  UNL     1      11.526  13.992  34.425  0.00  0.00    +0.124 A 
ATOM     11  F1  UNL     1      10.581  14.325  33.513  0.00  0.00    -0.205 F 
ATOM     12  C10 UNL     1      12.843  14.431  34.260  0.00  0.00    +0.040 A 
ATOM     13  C11 UNL     1      13.820  14.085  35.199  0.00  0.00    +0.026 A 
ENDBRANCH   4   7
BRANCH   1  17
ATOM     14  C1  UNL     1      19.215   7.511  37.622  0.00  0.00    +0.067 C 
ATOM     15  C2  UNL     1      18.781   8.938  37.596  0.00  0.00    +0.062 A 
ATOM     16  C3  UNL     1      17.602   9.431  38.122  0.00  0.00    +0.068 A 
ATOM     17  C4  UNL     1      17.611  10.765  37.758  0.00  0.00    +0.125 A 
ATOM     18  N3  UNL     1      18.732  11.025  37.051  0.00  0.00    -0.247 N 
ATOM     19  N4  UNL     1      19.437   9.910  36.932  0.00  0.00    -0.175 NA
BRANCH  18  20
ATOM     20  C12 UNL     1      19.073  12.300  36.403  0.00  0.00    +0.109 C 
ATOM     21  C13 UNL     1      20.513  12.378  35.890  0.00  0.00    +0.027 C 
ATOM     22  C14 UNL     1      19.994  12.430  34.459  0.00  0.00    +0.004 C 
ATOM     23  C15 UNL     1      18.560  12.364  34.969  0.00  0.00    +0.027 C 
ENDBRANCH  18  20
ENDBRANCH   1  17
TORSDOF 3
ENDMDL
MODEL 4
REMARK VINA RESULT:    -6.369     13.491     16.107
REMARK INTER + INTRA:          -7.674
REMARK INTER:                  -7.228
REMARK INTRA:                  -0.446
REMARK UNBOUND:                -0.189
REMARK  Name = /home/qwerty/github/datacon2025hack/step_04_hit_selection/docking/ligands/lig_291.pdb
REMARK  4 active torsions:
REMARK  status: ('A' for Active; 'I' for Inactive)
REMARK    1  A    between atoms: C1_1  and  C2_2
REMARK    2  A    between atoms: C4_4  and  N1_5
REMARK    3  A    between atoms: N2_8  and  C6_9
REMARK    4  A    between atoms: N3_16  and  C12_17
REMARK                            x       y       z     vdW  Elec       q    Type
REMARK                         _______ _______ _______ _____ _____    ______ ____
ROOT
ATOM      1  N1  UNL     1      11.162   3.597  20.313  0.00  0.00    -0.254 N 
ATOM      2  C5  UNL     1      12.276   2.975  20.971  0.00  0.00    +0.309 C 
ATOM      3  O1  UNL     1      12.845   3.551  21.938  0.00  0.00    -0.252 OA
ATOM      4  N2  UNL     1      12.688   1.659  20.570  0.00  0.00    -0.269 N 
ATOM      5  H5  UNL     1      10.597   3.013  19.659  0.00  0.00    +0.158 HD
ATOM      6  H6  UNL     1      12.026   1.100  19.985  0.00  0.00    +0.156 HD
ENDROOT
BRANCH   4   7
ATOM      7  C6  UNL     1      13.903   1.026  21.007  0.00  0.00    +0.035 A 
ATOM      8  C7  UNL     1      15.062   1.030  20.209  0.00  0.00    +0.026 A 
ATOM      9  C8  UNL     1      16.223   0.384  20.648  0.00  0.00    +0.040 A 
ATOM     10  C9  UNL     1      16.234  -0.279  21.878  0.00  0.00    +0.124 A 
ATOM     11  F1  UNL     1      17.359  -0.907  22.300  0.00  0.00    -0.205 F 
ATOM     12  C10 UNL     1      15.081  -0.307  22.666  0.00  0.00    +0.040 A 
ATOM     13  C11 UNL     1      13.918   0.336  22.229  0.00  0.00    +0.026 A 
ENDBRANCH   4   7
BRANCH   1  17
ATOM     14  C1  UNL     1      11.035   8.580  20.192  0.00  0.00    +0.067 C 
ATOM     15  C2  UNL     1      10.715   7.146  20.447  0.00  0.00    +0.062 A 
ATOM     16  C3  UNL     1      11.564   6.079  20.221  0.00  0.00    +0.068 A 
ATOM     17  C4  UNL     1      10.785   4.971  20.504  0.00  0.00    +0.125 A 
ATOM     18  N3  UNL     1       9.549   5.379  20.865  0.00  0.00    -0.247 N 
ATOM     19  N4  UNL     1       9.496   6.702  20.810  0.00  0.00    -0.175 NA
BRANCH  18  20
ATOM     20  C12 UNL     1       8.398   4.511  21.152  0.00  0.00    +0.109 C 
ATOM     21  C13 UNL     1       8.502   3.746  22.473  0.00  0.00    +0.027 C 
ATOM     22  C14 UNL     1       7.326   4.544  23.021  0.00  0.00    +0.004 C 
ATOM     23  C15 UNL     1       7.214   5.298  21.702  0.00  0.00    +0.027 C 
ENDBRANCH  18  20
ENDBRANCH   1  17
TORSDOF 3
ENDMDL
MODEL 5
REMARK VINA RESULT:    -6.315     14.311     16.121
REMARK INTER + INTRA:          -7.611
REMARK INTER:                  -6.947
REMARK INTRA:                  -0.664
REMARK UNBOUND:                -0.189
REMARK  Name = /home/qwerty/github/datacon2025hack/step_04_hit_selection/docking/ligands/lig_291.pdb
REMARK  4 active torsions:
REMARK  status: ('A' for Active; 'I' for Inactive)
REMARK    1  A    between atoms: C1_1  and  C2_2
REMARK    2  A    between atoms: C4_4  and  N1_5
REMARK    3  A    between atoms: N2_8  and  C6_9
REMARK    4  A    between atoms: N3_16  and  C12_17
REMARK                            x       y       z     vdW  Elec       q    Type
REMARK                         _______ _______ _______ _____ _____    ______ ____
ROOT
ATOM      1  N1  UNL     1      11.193   4.207  19.917  0.00  0.00    -0.254 N 
ATOM      2  C5  UNL     1      10.949   5.492  20.508  0.00  0.00    +0.309 C 
ATOM      3  O1  UNL     1      11.666   5.900  21.462  0.00  0.00    -0.252 OA
ATOM      4  N2  UNL     1       9.932   6.342  19.955  0.00  0.00    -0.269 N 
ATOM      5  H5  UNL     1      10.719   3.990  19.014  0.00  0.00    +0.158 HD
ATOM      6  H6  UNL     1       9.569   6.108  19.003  0.00  0.00    +0.156 HD
ENDROOT
BRANCH   4   7
ATOM      7  C6  UNL     1       9.460   7.548  20.579  0.00  0.00    +0.035 A 
ATOM      8  C7  UNL     1       8.344   7.544  21.437  0.00  0.00    +0.026 A 
ATOM      9  C8  UNL     1       7.892   8.736  22.012  0.00  0.00    +0.040 A 
ATOM     10  C9  UNL     1       8.539   9.942  21.727  0.00  0.00    +0.124 A 
ATOM     11  F1  UNL     1       8.097  11.097  22.283  0.00  0.00    -0.205 F 
ATOM     12  C10 UNL     1       9.633   9.958  20.859  0.00  0.00    +0.040 A 
ATOM     13  C11 UNL     1      10.088   8.768  20.281  0.00  0.00    +0.026 A 
ENDBRANCH   4   7
BRANCH   1  17
ATOM     14  C1  UNL     1      15.177   1.637  21.460  0.00  0.00    +0.067 C 
ATOM     15  C2  UNL     1      13.782   2.085  21.185  0.00  0.00    +0.062 A 
ATOM     16  C3  UNL     1      13.418   3.108  20.329  0.00  0.00    +0.068 A 
ATOM     17  C4  UNL     1      12.049   3.208  20.498  0.00  0.00    +0.125 A 
ATOM     18  N3  UNL     1      11.646   2.297  21.411  0.00  0.00    -0.247 N 
ATOM     19  N4  UNL     1      12.702   1.626  21.847  0.00  0.00    -0.175 NA
BRANCH  18  20
ATOM     20  C12 UNL     1      10.284   2.144  21.941  0.00  0.00    +0.109 C 
ATOM     21  C13 UNL     1       9.988   0.760  22.523  0.00  0.00    +0.027 C 
ATOM     22  C14 UNL     1       9.858   1.376  23.909  0.00  0.00    +0.004 C 
ATOM     23  C15 UNL     1      10.141   2.757  23.330  0.00  0.00    +0.027 C 
ENDBRANCH  18  20
ENDBRANCH   1  17
TORSDOF 3
ENDMDL
MODEL 6
REMARK VINA RESULT:    -6.241      3.268      7.248
REMARK INTER + INTRA:          -7.524
REMARK INTER:                  -7.061
REMARK INTRA:                  -0.463
REMARK UNBOUND:                -0.189
REMARK  Name = /home/qwerty/github/datacon2025hack/step_04_hit_selection/docking/ligands/lig_291.pdb
REMARK  4 active torsions:
REMARK  status: ('A' for Active; 'I' for Inactive)
REMARK    1  A    between atoms: C1_1  and  C2_2
REMARK    2  A    between atoms: C4_4  and  N1_5
REMARK    3  A    between atoms: N2_8  and  C6_9
REMARK    4  A    between atoms: N3_16  and  C12_17
REMARK                            x       y       z     vdW  Elec       q    Type
REMARK                         _______ _______ _______ _____ _____    ______ ____
ROOT
ATOM      1  N1  UNL     1      21.760   5.490  32.425  0.00  0.00    -0.254 N 
ATOM      2  C5  UNL     1      21.928   4.099  32.114  0.00  0.00    +0.309 C 
ATOM      3  O1  UNL     1      22.435   3.315  32.961  0.00  0.00    -0.252 OA
ATOM      4  N2  UNL     1      21.444   3.593  30.860  0.00  0.00    -0.269 N 
ATOM      5  H5  UNL     1      21.163   6.061  31.788  0.00  0.00    +0.158 HD
ATOM      6  H6  UNL     1      20.778   4.190  30.320  0.00  0.00    +0.156 HD
ENDROOT
BRANCH   4   7
ATOM      7  C6  UNL     1      21.736   2.279  30.353  0.00  0.00    +0.035 A 
ATOM      8  C7  UNL     1      22.874   2.032  29.563  0.00  0.00    +0.026 A 
ATOM      9  C8  UNL     1      23.120   0.749  29.064  0.00  0.00    +0.040 A 
ATOM     10  C9  UNL     1      22.230  -0.293  29.336  0.00  0.00    +0.124 A 
ATOM     11  F1  UNL     1      22.469  -1.535  28.848  0.00  0.00    -0.205 F 
ATOM     12  C10 UNL     1      21.086  -0.051  30.100  0.00  0.00    +0.040 A 
ATOM     13  C11 UNL     1      20.836   1.231  30.601  0.00  0.00    +0.026 A 
ENDBRANCH   4   7
BRANCH   1  17
ATOM     14  C1  UNL     1      23.241   6.637  37.046  0.00  0.00    +0.067 C 
ATOM     15  C2  UNL     1      23.025   6.638  35.570  0.00  0.00    +0.062 A 
ATOM     16  C3  UNL     1      22.110   5.857  34.889  0.00  0.00    +0.068 A 
ATOM     17  C4  UNL     1      22.365   6.136  33.558  0.00  0.00    +0.125 A 
ATOM     18  N3  UNL     1      23.380   7.024  33.477  0.00  0.00    -0.247 N 
ATOM     19  N4  UNL     1      23.799   7.315  34.699  0.00  0.00    -0.175 NA
BRANCH  18  20
ATOM     20  C12 UNL     1      24.016   7.504  32.242  0.00  0.00    +0.109 C 
ATOM     21  C13 UNL     1      23.216   8.578  31.501  0.00  0.00    +0.027 C 
ATOM     22  C14 UNL     1      24.313   9.592  31.797  0.00  0.00    +0.004 C 
ATOM     23  C15 UNL     1      25.116   8.521  32.526  0.00  0.00    +0.027 C 
ENDBRANCH  18  20
ENDBRANCH   1  17
TORSDOF 3
ENDMDL
MODEL 7
REMARK VINA RESULT:    -6.179     13.526     14.902
REMARK INTER + INTRA:          -7.451
REMARK INTER:                  -6.841
REMARK INTRA:                  -0.611
REMARK UNBOUND:                -0.189
REMARK  Name = /home/qwerty/github/datacon2025hack/step_04_hit_selection/docking/ligands/lig_291.pdb
REMARK  4 active torsions:
REMARK  status: ('A' for Active; 'I' for Inactive)
REMARK    1  A    between atoms: C1_1  and  C2_2
REMARK    2  A    between atoms: C4_4  and  N1_5
REMARK    3  A    between atoms: N2_8  and  C6_9
REMARK    4  A    between atoms: N3_16  and  C12_17
REMARK                            x       y       z     vdW  Elec       q    Type
REMARK                         _______ _______ _______ _____ _____    ______ ____
ROOT
ATOM      1  N1  UNL     1      11.531  14.429  34.052  0.00  0.00    -0.254 N 
ATOM      2  C5  UNL     1      11.687  13.941  32.711  0.00  0.00    +0.309 C 
ATOM      3  O1  UNL     1      11.872  12.712  32.500  0.00  0.00    -0.252 OA
ATOM      4  N2  UNL     1      11.556  14.852  31.608  0.00  0.00    -0.269 N 
ATOM      5  H5  UNL     1      11.185  15.405  34.176  0.00  0.00    +0.158 HD
ATOM      6  H6  UNL     1      11.117  15.782  31.797  0.00  0.00    +0.156 HD
ENDROOT
BRANCH   4   7
ATOM      7  C6  UNL     1      11.892  14.527  30.249  0.00  0.00    +0.035 A 
ATOM      8  C7  UNL     1      13.150  14.850  29.705  0.00  0.00    +0.026 A 
ATOM      9  C8  UNL     1      13.442  14.544  28.372  0.00  0.00    +0.040 A 
ATOM     10  C9  UNL     1      12.481  13.926  27.567  0.00  0.00    +0.124 A 
ATOM     11  F1  UNL     1      12.764  13.633  26.275  0.00  0.00    -0.205 F 
ATOM     12  C10 UNL     1      11.222  13.622  28.093  0.00  0.00    +0.040 A 
ATOM     13  C11 UNL     1      10.926  13.928  29.426  0.00  0.00    +0.026 A 
ENDBRANCH   4   7
BRANCH   1  17
ATOM     14  C1  UNL     1      11.364  11.039  37.705  0.00  0.00    +0.067 C 
ATOM     15  C2  UNL     1      11.764  12.170  36.818  0.00  0.00    +0.062 A 
ATOM     16  C3  UNL     1      10.983  12.731  35.825  0.00  0.00    +0.068 A 
ATOM     17  C4  UNL     1      11.823  13.653  35.226  0.00  0.00    +0.125 A 
ATOM     18  N3  UNL     1      13.028  13.617  35.836  0.00  0.00    -0.247 N 
ATOM     19  N4  UNL     1      13.003  12.700  36.792  0.00  0.00    -0.175 NA
BRANCH  18  20
ATOM     20  C12 UNL     1      14.224  14.374  35.439  0.00  0.00    +0.109 C 
ATOM     21  C13 UNL     1      14.255  15.815  35.951  0.00  0.00    +0.027 C 
ATOM     22  C14 UNL     1      15.449  15.470  36.831  0.00  0.00    +0.004 C 
ATOM     23  C15 UNL     1      15.427  14.037  36.313  0.00  0.00    +0.027 C 
ENDBRANCH  18  20
ENDBRANCH   1  17
TORSDOF 3
ENDMDL
MODEL 8
REMARK VINA RESULT:    -6.093      6.724      9.316
REMARK INTER + INTRA:          -7.350
REMARK INTER:                  -6.769
REMARK INTRA:                  -0.582
REMARK UNBOUND:                -0.189
REMARK  Name = /home/qwerty/github/datacon2025hack/step_04_hit_selection/docking/ligands/lig_291.pdb
REMARK  4 active torsions:
REMARK  status: ('A' for Active; 'I' for Inactive)
REMARK    1  A    between atoms: C1_1  and  C2_2
REMARK    2  A    between atoms: C4_4  and  N1_5
REMARK    3  A    between atoms: N2_8  and  C6_9
REMARK    4  A    between atoms: N3_16  and  C12_17
REMARK                            x       y       z     vdW  Elec       q    Type
REMARK                         _______ _______ _______ _____ _____    ______ ____
ROOT
ATOM      1  N1  UNL     1      17.396   1.026  24.877  0.00  0.00    -0.254 N 
ATOM      2  C5  UNL     1      18.772   1.081  25.280  0.00  0.00    +0.309 C 
ATOM      3  O1  UNL     1      19.670   0.583  24.547  0.00  0.00    -0.252 OA
ATOM      4  N2  UNL     1      19.127   1.772  26.488  0.00  0.00    -0.269 N 
ATOM      5  H5  UNL     1      16.713   1.614  25.401  0.00  0.00    +0.158 HD
ATOM      6  H6  UNL     1      18.416   2.414  26.906  0.00  0.00    +0.156 HD
ENDROOT
BRANCH   4   7
ATOM      7  C6  UNL     1      20.428   1.718  27.096  0.00  0.00    +0.035 A 
ATOM      8  C7  UNL     1      21.427   2.659  26.780  0.00  0.00    +0.026 A 
ATOM      9  C8  UNL     1      22.692   2.569  27.369  0.00  0.00    +0.040 A 
ATOM     10  C9  UNL     1      22.977   1.536  28.267  0.00  0.00    +0.124 A 
ATOM     11  F1  UNL     1      24.205   1.449  28.834  0.00  0.00    -0.205 F 
ATOM     12  C10 UNL     1      21.998   0.585  28.569  0.00  0.00    +0.040 A 
ATOM     13  C11 UNL     1      20.732   0.672  27.981  0.00  0.00    +0.026 A 
ENDBRANCH   4   7
BRANCH   1  17
ATOM     14  C1  UNL     1      16.527  -0.910  20.364  0.00  0.00    +0.067 C 
ATOM     15  C2  UNL     1      16.533  -0.648  21.833  0.00  0.00    +0.062 A 
ATOM     16  C3  UNL     1      17.031   0.486  22.447  0.00  0.00    +0.068 A 
ATOM     17  C4  UNL     1      16.910   0.210  23.797  0.00  0.00    +0.125 A 
ATOM     18  N3  UNL     1      16.380  -1.023  23.952  0.00  0.00    -0.247 N 
ATOM     19  N4  UNL     1      16.169  -1.557  22.758  0.00  0.00    -0.175 NA
BRANCH  18  20
ATOM     20  C12 UNL     1      16.178  -1.726  25.227  0.00  0.00    +0.109 C 
ATOM     21  C13 UNL     1      14.961  -1.249  26.022  0.00  0.00    +0.027 C 
ATOM     22  C14 UNL     1      14.300  -2.604  25.812  0.00  0.00    +0.004 C 
ATOM     23  C15 UNL     1      15.515  -3.085  25.029  0.00  0.00    +0.027 C 
ENDBRANCH  18  20
ENDBRANCH   1  17
TORSDOF 3
ENDMDL
MODEL 9
REMARK VINA RESULT:    -6.057      2.232      3.657
REMARK INTER + INTRA:          -7.308
REMARK INTER:                  -6.612
REMARK INTRA:                  -0.695
REMARK UNBOUND:                -0.189
REMARK  Name = /home/qwerty/github/datacon2025hack/step_04_hit_selection/docking/ligands/lig_291.pdb
REMARK  4 active torsions:
REMARK  status: ('A' for Active; 'I' for Inactive)
REMARK    1  A    between atoms: C1_1  and  C2_2
REMARK    2  A    between atoms: C4_4  and  N1_5
REMARK    3  A    between atoms: N2_8  and  C6_9
REMARK    4  A    between atoms: N3_16  and  C12_17
REMARK                            x       y       z     vdW  Elec       q    Type
REMARK                         _______ _______ _______ _____ _____    ______ ____
ROOT
ATOM      1  N1  UNL     1      22.309   2.822  32.615  0.00  0.00    -0.254 N 
ATOM      2  C5  UNL     1      21.839   4.082  33.116  0.00  0.00    +0.309 C 
ATOM      3  O1  UNL     1      20.766   4.580  32.679  0.00  0.00    -0.252 OA
ATOM      4  N2  UNL     1      22.560   4.735  34.173  0.00  0.00    -0.269 N 
ATOM      5  H5  UNL     1      23.081   2.351  33.133  0.00  0.00    +0.158 HD
ATOM      6  H6  UNL     1      23.257   4.168  34.707  0.00  0.00    +0.156 HD
ENDROOT
BRANCH   4   7
ATOM      7  C6  UNL     1      22.309   6.081  34.611  0.00  0.00    +0.035 A 
ATOM      8  C7  UNL     1      22.860   7.188  33.937  0.00  0.00    +0.026 A 
ATOM      9  C8  UNL     1      22.619   8.486  34.399  0.00  0.00    +0.040 A 
ATOM     10  C9  UNL     1      21.839   8.691  35.540  0.00  0.00    +0.124 A 
ATOM     11  F1  UNL     1      21.609   9.950  35.988  0.00  0.00    -0.205 F 
ATOM     12  C10 UNL     1      21.307   7.597  36.228  0.00  0.00    +0.040 A 
ATOM     13  C11 UNL     1      21.546   6.297  35.769  0.00  0.00    +0.026 A 
ENDBRANCH   4   7
BRANCH   1  17
ATOM     14  C1  UNL     1      21.674   1.101  27.978  0.00  0.00    +0.067 C 
ATOM     15  C2  UNL     1      21.498   1.414  29.426  0.00  0.00    +0.062 A 
ATOM     16  C3  UNL     1      22.239   2.329  30.149  0.00  0.00    +0.068 A 
ATOM     17  C4  UNL     1      21.777   2.178  31.444  0.00  0.00    +0.125 A 
ATOM     18  N3  UNL     1      20.826   1.219  31.467  0.00  0.00    -0.247 N 
ATOM     19  N4  UNL     1      20.668   0.736  30.243  0.00  0.00    -0.175 NA
BRANCH  18  20
ATOM     20  C12 UNL     1      20.153   0.693  32.663  0.00  0.00    +0.109 C 
ATOM     21  C13 UNL     1      19.039   1.592  33.204  0.00  0.00    +0.027 C 
ATOM     22  C14 UNL     1      18.013   0.527  32.842  0.00  0.00    +0.004 C 
ATOM     23  C15 UNL     1      19.122  -0.374  32.314  0.00  0.00    +0.027 C 
ENDBRANCH  18  20
ENDBRANCH   1  17
TORSDOF 3
ENDMDL
