MODEL 1
REMARK VINA RESULT:    -6.614      0.000      0.000
REMARK INTER + INTRA:          -8.553
REMARK INTER:                  -8.161
REMARK INTRA:                  -0.392
REMARK UNBOUND:                -0.392
REMARK  Name = /home/qwerty/github/datacon2025hack/step_04_hit_selection/docking/ligands/lig_190.pdb
REMARK  5 active torsions:
REMARK  status: ('A' for Active; 'I' for Inactive)
REMARK    1  A    between atoms: C1_1  and  C2_2
REMARK    2  A    between atoms: C5_5  and  C6_6
REMARK    3  A    between atoms: C7_8  and  C8_9
REMARK    4  A    between atoms: C12_15  and  N3_16
REMARK    5  A    between atoms: C13_17  and  C14_19
REMARK                            x       y       z     vdW  Elec       q    Type
REMARK                         _______ _______ _______ _____ _____    ______ ____
ROOT
ATOM      1  C8  UNL     1      12.588  12.697  36.447  0.00  0.00    +0.266 C 
ATOM      2  O1  UNL     1      12.029  11.857  37.207  0.00  0.00    -0.268 OA
ATOM      3  N2  UNL     1      13.991  12.970  36.603  0.00  0.00    -0.295 N 
ATOM      4  C9  UNL     1      14.474  14.353  36.751  0.00  0.00    +0.108 C 
ATOM      5  C10 UNL     1      15.750  14.593  35.916  0.00  0.00    +0.021 C 
ATOM      6  C11 UNL     1      16.576  13.315  35.673  0.00  0.00    +0.025 C 
ATOM      7  C12 UNL     1      16.382  12.295  36.809  0.00  0.00    +0.091 C 
ATOM      8  C19 UNL     1      14.906  11.848  36.852  0.00  0.00    +0.130 C 
ENDROOT
BRANCH   1  11
ATOM      9  C6  UNL     1      11.335  14.012  33.288  0.00  0.00    +0.144 A 
ATOM     10  N1  UNL     1      12.192  13.339  34.090  0.00  0.00    -0.231 NA
ATOM     11  C7  UNL     1      11.788  13.347  35.391  0.00  0.00    +0.133 A 
ATOM     12  C20 UNL     1      10.606  14.051  35.633  0.00  0.00    +0.080 A 
ATOM     13  S1  UNL     1      10.051  14.657  34.165  0.00  0.00    -0.072 S 
BRANCH   9  18
ATOM     14  C1  UNL     1      10.435  13.736  28.477  0.00  0.00    +0.086 C 
ATOM     15  C2  UNL     1      11.143  14.036  29.755  0.00  0.00    +0.103 A 
ATOM     16  C3  UNL     1      12.383  14.634  29.867  0.00  0.00    +0.045 A 
ATOM     17  C4  UNL     1      12.639  14.711  31.220  0.00  0.00    +0.052 A 
ATOM     18  C5  UNL     1      11.533  14.155  31.842  0.00  0.00    +0.160 A 
ATOM     19  O3  UNL     1      10.659  13.764  30.945  0.00  0.00    -0.458 OA
ENDBRANCH   9  18
ENDBRANCH   1  11
BRANCH   7  20
ATOM     20  N3  UNL     1      17.250  11.130  36.612  0.00  0.00    -0.307 N 
ATOM     21  C13 UNL     1      18.685  11.228  36.703  0.00  0.00    +0.246 C 
ATOM     22  O2  UNL     1      19.235  12.367  36.753  0.00  0.00    -0.270 OA
ATOM     23  H13 UNL     1      16.806  10.204  36.409  0.00  0.00    +0.149 HD
BRANCH  21  24
ATOM     24  C14 UNL     1      19.540  10.016  36.719  0.00  0.00    +0.055 A 
ATOM     25  C15 UNL     1      20.717   9.944  35.956  0.00  0.00    +0.016 A 
ATOM     26  C16 UNL     1      21.502   8.790  35.990  0.00  0.00    +0.020 A 
ATOM     27  C17 UNL     1      21.103   7.710  36.784  0.00  0.00    +0.111 A 
ATOM     28  N4  UNL     1      19.956   7.784  37.508  0.00  0.00    -0.263 NA
ATOM     29  C18 UNL     1      19.173   8.895  37.492  0.00  0.00    +0.123 A 
ENDBRANCH  21  24
ENDBRANCH   7  20
TORSDOF 4
ENDMDL
MODEL 2
REMARK VINA RESULT:    -6.558     11.076     13.974
REMARK INTER + INTRA:          -8.483
REMARK INTER:                  -7.855
REMARK INTRA:                  -0.628
REMARK UNBOUND:                -0.392
REMARK  Name = /home/qwerty/github/datacon2025hack/step_04_hit_selection/docking/ligands/lig_190.pdb
REMARK  5 active torsions:
REMARK  status: ('A' for Active; 'I' for Inactive)
REMARK    1  A    between atoms: C1_1  and  C2_2
REMARK    2  A    between atoms: C5_5  and  C6_6
REMARK    3  A    between atoms: C7_8  and  C8_9
REMARK    4  A    between atoms: C12_15  and  N3_16
REMARK    5  A    between atoms: C13_17  and  C14_19
REMARK                            x       y       z     vdW  Elec       q    Type
REMARK                         _______ _______ _______ _____ _____    ______ ____
ROOT
ATOM      1  C8  UNL     1      21.395   2.806  27.453  0.00  0.00    +0.266 C 
ATOM      2  O1  UNL     1      21.829   3.961  27.185  0.00  0.00    -0.268 OA
ATOM      3  N2  UNL     1      21.707   2.208  28.723  0.00  0.00    -0.295 N 
ATOM      4  C9  UNL     1      22.296   0.861  28.793  0.00  0.00    +0.108 C 
ATOM      5  C10 UNL     1      21.649   0.024  29.917  0.00  0.00    +0.021 C 
ATOM      6  C11 UNL     1      21.077   0.877  31.068  0.00  0.00    +0.025 C 
ATOM      7  C12 UNL     1      21.836   2.208  31.213  0.00  0.00    +0.091 C 
ATOM      8  C19 UNL     1      21.656   3.045  29.929  0.00  0.00    +0.130 C 
ENDROOT
BRANCH   1  11
ATOM      9  C6  UNL     1      18.819   0.831  25.797  0.00  0.00    +0.144 A 
ATOM     10  N1  UNL     1      19.445   1.406  26.849  0.00  0.00    -0.231 NA
ATOM     11  C7  UNL     1      20.541   2.117  26.466  0.00  0.00    +0.133 A 
ATOM     12  C20 UNL     1      20.805   2.092  25.094  0.00  0.00    +0.080 A 
ATOM     13  S1  UNL     1      19.611   1.168  24.352  0.00  0.00    -0.072 S 
BRANCH   9  18
ATOM     14  C1  UNL     1      15.536  -2.698  24.900  0.00  0.00    +0.086 C 
ATOM     15  C2  UNL     1      16.187  -1.521  25.543  0.00  0.00    +0.103 A 
ATOM     16  C3  UNL     1      15.688  -0.816  26.622  0.00  0.00    +0.045 A 
ATOM     17  C4  UNL     1      16.609   0.178  26.875  0.00  0.00    +0.052 A 
ATOM     18  C5  UNL     1      17.610   0.010  25.933  0.00  0.00    +0.160 A 
ATOM     19  O3  UNL     1      17.332  -1.010  25.156  0.00  0.00    -0.458 OA
ENDBRANCH   9  18
ENDBRANCH   1  11
BRANCH   7  20
ATOM     20  N3  UNL     1      21.345   2.959  32.371  0.00  0.00    -0.307 N 
ATOM     21  C13 UNL     1      22.127   4.001  32.989  0.00  0.00    +0.246 C 
ATOM     22  O2  UNL     1      23.342   4.148  32.668  0.00  0.00    -0.270 OA
ATOM     23  H13 UNL     1      20.395   2.733  32.748  0.00  0.00    +0.149 HD
BRANCH  21  24
ATOM     24  C14 UNL     1      21.541   4.898  34.015  0.00  0.00    +0.055 A 
ATOM     25  C15 UNL     1      22.346   5.775  34.760  0.00  0.00    +0.016 A 
ATOM     26  C16 UNL     1      21.767   6.609  35.720  0.00  0.00    +0.020 A 
ATOM     27  C17 UNL     1      20.386   6.556  35.933  0.00  0.00    +0.111 A 
ATOM     28  N4  UNL     1      19.619   5.693  35.218  0.00  0.00    -0.263 NA
ATOM     29  C18 UNL     1      20.157   4.872  34.278  0.00  0.00    +0.123 A 
ENDBRANCH  21  24
ENDBRANCH   7  20
TORSDOF 4
ENDMDL
MODEL 3
REMARK VINA RESULT:    -6.468      5.825     10.870
REMARK INTER + INTRA:          -8.372
REMARK INTER:                  -7.678
REMARK INTRA:                  -0.694
REMARK UNBOUND:                -0.392
REMARK  Name = /home/qwerty/github/datacon2025hack/step_04_hit_selection/docking/ligands/lig_190.pdb
REMARK  5 active torsions:
REMARK  status: ('A' for Active; 'I' for Inactive)
REMARK    1  A    between atoms: C1_1  and  C2_2
REMARK    2  A    between atoms: C5_5  and  C6_6
REMARK    3  A    between atoms: C7_8  and  C8_9
REMARK    4  A    between atoms: C12_15  and  N3_16
REMARK    5  A    between atoms: C13_17  and  C14_19
REMARK                            x       y       z     vdW  Elec       q    Type
REMARK                         _______ _______ _______ _____ _____    ______ ____
ROOT
ATOM      1  C8  UNL     1      11.515  12.655  29.411  0.00  0.00    +0.266 C 
ATOM      2  O1  UNL     1      12.511  12.308  28.717  0.00  0.00    -0.268 OA
ATOM      3  N2  UNL     1      10.191  12.298  28.978  0.00  0.00    -0.295 N 
ATOM      4  C9  UNL     1       9.140  13.322  28.857  0.00  0.00    +0.108 C 
ATOM      5  C10 UNL     1       7.793  12.810  29.412  0.00  0.00    +0.021 C 
ATOM      6  C11 UNL     1       7.644  11.277  29.347  0.00  0.00    +0.025 C 
ATOM      7  C12 UNL     1       8.466  10.679  28.192  0.00  0.00    +0.091 C 
ATOM      8  C19 UNL     1       9.965  10.954  28.431  0.00  0.00    +0.130 C 
ENDROOT
BRANCH   1  11
ATOM      9  C6  UNL     1      11.563  13.745  32.888  0.00  0.00    +0.144 A 
ATOM     10  N1  UNL     1      11.272  12.915  31.861  0.00  0.00    -0.231 NA
ATOM     11  C7  UNL     1      11.743  13.386  30.672  0.00  0.00    +0.133 A 
ATOM     12  C20 UNL     1      12.399  14.617  30.750  0.00  0.00    +0.080 A 
ATOM     13  S1  UNL     1      12.401  15.105  32.359  0.00  0.00    -0.072 S 
BRANCH   9  18
ATOM     14  C1  UNL     1      11.299  11.482  37.228  0.00  0.00    +0.086 C 
ATOM     15  C2  UNL     1      11.058  12.491  36.158  0.00  0.00    +0.103 A 
ATOM     16  C3  UNL     1      10.254  13.609  36.272  0.00  0.00    +0.045 A 
ATOM     17  C4  UNL     1      10.325  14.246  35.052  0.00  0.00    +0.052 A 
ATOM     18  C5  UNL     1      11.171  13.473  34.275  0.00  0.00    +0.160 A 
ATOM     19  O3  UNL     1      11.593  12.437  34.960  0.00  0.00    -0.458 OA
ENDBRANCH   9  18
ENDBRANCH   1  11
BRANCH   7  20
ATOM     20  N3  UNL     1       8.234   9.236  28.085  0.00  0.00    -0.307 N 
ATOM     21  C13 UNL     1       7.861   8.616  26.838  0.00  0.00    +0.246 C 
ATOM     22  O2  UNL     1       7.526   9.338  25.853  0.00  0.00    -0.270 OA
ATOM     23  H13 UNL     1       8.353   8.645  28.941  0.00  0.00    +0.149 HD
BRANCH  21  24
ATOM     24  C14 UNL     1       7.841   7.141  26.687  0.00  0.00    +0.055 A 
ATOM     25  C15 UNL     1       8.277   6.524  25.503  0.00  0.00    +0.016 A 
ATOM     26  C16 UNL     1       8.247   5.132  25.389  0.00  0.00    +0.020 A 
ATOM     27  C17 UNL     1       7.774   4.365  26.458  0.00  0.00    +0.111 A 
ATOM     28  N4  UNL     1       7.341   4.972  27.593  0.00  0.00    -0.263 NA
ATOM     29  C18 UNL     1       7.360   6.325  27.730  0.00  0.00    +0.123 A 
ENDBRANCH  21  24
ENDBRANCH   7  20
TORSDOF 4
ENDMDL
MODEL 4
REMARK VINA RESULT:    -6.457     11.367     15.234
REMARK INTER + INTRA:          -8.359
REMARK INTER:                  -7.695
REMARK INTRA:                  -0.664
REMARK UNBOUND:                -0.392
REMARK  Name = /home/qwerty/github/datacon2025hack/step_04_hit_selection/docking/ligands/lig_190.pdb
REMARK  5 active torsions:
REMARK  status: ('A' for Active; 'I' for Inactive)
REMARK    1  A    between atoms: C1_1  and  C2_2
REMARK    2  A    between atoms: C5_5  and  C6_6
REMARK    3  A    between atoms: C7_8  and  C8_9
REMARK    4  A    between atoms: C12_15  and  N3_16
REMARK    5  A    between atoms: C13_17  and  C14_19
REMARK                            x       y       z     vdW  Elec       q    Type
REMARK                         _______ _______ _______ _____ _____    ______ ____
ROOT
ATOM      1  C8  UNL     1      19.657   1.561  30.164  0.00  0.00    +0.266 C 
ATOM      2  O1  UNL     1      18.438   1.269  30.011  0.00  0.00    -0.268 OA
ATOM      3  N2  UNL     1      20.557   1.454  29.047  0.00  0.00    -0.295 N 
ATOM      4  C9  UNL     1      21.808   0.687  29.163  0.00  0.00    +0.108 C 
ATOM      5  C10 UNL     1      22.984   1.430  28.494  0.00  0.00    +0.021 C 
ATOM      6  C11 UNL     1      22.548   2.379  27.360  0.00  0.00    +0.025 C 
ATOM      7  C12 UNL     1      21.247   1.898  26.694  0.00  0.00    +0.091 C 
ATOM      8  C19 UNL     1      20.102   1.914  27.728  0.00  0.00    +0.130 C 
ENDROOT
BRANCH   1  11
ATOM      9  C6  UNL     1      21.273   3.377  32.880  0.00  0.00    +0.144 A 
ATOM     10  N1  UNL     1      20.950   3.116  31.593  0.00  0.00    -0.231 NA
ATOM     11  C7  UNL     1      20.117   2.044  31.481  0.00  0.00    +0.133 A 
ATOM     12  C20 UNL     1      19.787   1.431  32.692  0.00  0.00    +0.080 A 
ATOM     13  S1  UNL     1      20.550   2.277  33.929  0.00  0.00    -0.072 S 
BRANCH   9  18
ATOM     14  C1  UNL     1      23.327   6.834  35.683  0.00  0.00    +0.086 C 
ATOM     15  C2  UNL     1      23.046   5.978  34.495  0.00  0.00    +0.103 A 
ATOM     16  C3  UNL     1      23.689   6.059  33.275  0.00  0.00    +0.045 A 
ATOM     17  C4  UNL     1      23.112   5.088  32.484  0.00  0.00    +0.052 A 
ATOM     18  C5  UNL     1      22.155   4.479  33.278  0.00  0.00    +0.160 A 
ATOM     19  O3  UNL     1      22.140   5.028  34.470  0.00  0.00    -0.458 OA
ENDBRANCH   9  18
ENDBRANCH   1  11
BRANCH   7  20
ATOM     20  N3  UNL     1      20.902   2.755  25.556  0.00  0.00    -0.307 N 
ATOM     21  C13 UNL     1      20.194   2.246  24.407  0.00  0.00    +0.246 C 
ATOM     22  O2  UNL     1      20.038   0.998  24.270  0.00  0.00    -0.270 OA
ATOM     23  H13 UNL     1      21.172   3.766  25.591  0.00  0.00    +0.149 HD
BRANCH  21  24
ATOM     24  C14 UNL     1      19.661   3.157  23.366  0.00  0.00    +0.055 A 
ATOM     25  C15 UNL     1      20.513   3.987  22.618  0.00  0.00    +0.016 A 
ATOM     26  C16 UNL     1      19.983   4.835  21.643  0.00  0.00    +0.020 A 
ATOM     27  C17 UNL     1      18.602   4.853  21.425  0.00  0.00    +0.111 A 
ATOM     28  N4  UNL     1      17.785   4.057  22.163  0.00  0.00    -0.263 NA
ATOM     29  C18 UNL     1      18.275   3.223  23.118  0.00  0.00    +0.123 A 
ENDBRANCH  21  24
ENDBRANCH   7  20
TORSDOF 4
ENDMDL
MODEL 5
REMARK VINA RESULT:    -6.457     11.539     15.426
REMARK INTER + INTRA:          -8.358
REMARK INTER:                  -7.733
REMARK INTRA:                  -0.625
REMARK UNBOUND:                -0.392
REMARK  Name = /home/qwerty/github/datacon2025hack/step_04_hit_selection/docking/ligands/lig_190.pdb
REMARK  5 active torsions:
REMARK  status: ('A' for Active; 'I' for Inactive)
REMARK    1  A    between atoms: C1_1  and  C2_2
REMARK    2  A    between atoms: C5_5  and  C6_6
REMARK    3  A    between atoms: C7_8  and  C8_9
REMARK    4  A    between atoms: C12_15  and  N3_16
REMARK    5  A    between atoms: C13_17  and  C14_19
REMARK                            x       y       z     vdW  Elec       q    Type
REMARK                         _______ _______ _______ _____ _____    ______ ____
ROOT
ATOM      1  C8  UNL     1      20.249   1.425  30.578  0.00  0.00    +0.266 C 
ATOM      2  O1  UNL     1      19.194   0.791  30.860  0.00  0.00    -0.268 OA
ATOM      3  N2  UNL     1      20.884   1.215  29.305  0.00  0.00    -0.295 N 
ATOM      4  C9  UNL     1      22.315   0.881  29.228  0.00  0.00    +0.108 C 
ATOM      5  C10 UNL     1      23.013   1.659  28.091  0.00  0.00    +0.021 C 
ATOM      6  C11 UNL     1      22.062   2.055  26.944  0.00  0.00    +0.025 C 
ATOM      7  C12 UNL     1      20.890   1.066  26.817  0.00  0.00    +0.091 C 
ATOM      8  C19 UNL     1      20.043   1.102  28.107  0.00  0.00    +0.130 C 
ENDROOT
BRANCH   1  11
ATOM      9  C6  UNL     1      21.824   4.287  32.193  0.00  0.00    +0.144 A 
ATOM     10  N1  UNL     1      21.387   3.549  31.148  0.00  0.00    -0.231 NA
ATOM     11  C7  UNL     1      20.778   2.399  31.553  0.00  0.00    +0.133 A 
ATOM     12  C20 UNL     1      20.748   2.209  32.936  0.00  0.00    +0.080 A 
ATOM     13  S1  UNL     1      21.488   3.534  33.660  0.00  0.00    -0.072 S 
BRANCH   9  18
ATOM     14  C1  UNL     1      24.937   7.970  33.075  0.00  0.00    +0.086 C 
ATOM     15  C2  UNL     1      23.865   7.169  32.419  0.00  0.00    +0.103 A 
ATOM     16  C3  UNL     1      23.153   7.545  31.296  0.00  0.00    +0.045 A 
ATOM     17  C4  UNL     1      22.276   6.512  31.047  0.00  0.00    +0.052 A 
ATOM     18  C5  UNL     1      22.514   5.572  32.036  0.00  0.00    +0.160 A 
ATOM     19  O3  UNL     1      23.466   5.990  32.836  0.00  0.00    -0.458 OA
ENDBRANCH   9  18
ENDBRANCH   1  11
BRANCH   7  20
ATOM     20  N3  UNL     1      20.054   1.401  25.661  0.00  0.00    -0.307 N 
ATOM     21  C13 UNL     1      19.265   0.405  24.979  0.00  0.00    +0.246 C 
ATOM     22  O2  UNL     1      19.440  -0.821  25.239  0.00  0.00    -0.270 OA
ATOM     23  H13 UNL     1      20.026   2.395  25.335  0.00  0.00    +0.149 HD
BRANCH  21  24
ATOM     24  C14 UNL     1      18.261   0.787  23.956  0.00  0.00    +0.055 A 
ATOM     25  C15 UNL     1      17.468  -0.181  23.318  0.00  0.00    +0.016 A 
ATOM     26  C16 UNL     1      16.530   0.207  22.359  0.00  0.00    +0.020 A 
ATOM     27  C17 UNL     1      16.395   1.561  22.038  0.00  0.00    +0.111 A 
ATOM     28  N4  UNL     1      17.177   2.488  22.650  0.00  0.00    -0.263 NA
ATOM     29  C18 UNL     1      18.097   2.137  23.587  0.00  0.00    +0.123 A 
ENDBRANCH  21  24
ENDBRANCH   7  20
TORSDOF 4
ENDMDL
MODEL 6
REMARK VINA RESULT:    -6.453     11.414     15.060
REMARK INTER + INTRA:          -8.354
REMARK INTER:                  -7.812
REMARK INTRA:                  -0.542
REMARK UNBOUND:                -0.392
REMARK  Name = /home/qwerty/github/datacon2025hack/step_04_hit_selection/docking/ligands/lig_190.pdb
REMARK  5 active torsions:
REMARK  status: ('A' for Active; 'I' for Inactive)
REMARK    1  A    between atoms: C1_1  and  C2_2
REMARK    2  A    between atoms: C5_5  and  C6_6
REMARK    3  A    between atoms: C7_8  and  C8_9
REMARK    4  A    between atoms: C12_15  and  N3_16
REMARK    5  A    between atoms: C13_17  and  C14_19
REMARK                            x       y       z     vdW  Elec       q    Type
REMARK                         _______ _______ _______ _____ _____    ______ ____
ROOT
ATOM      1  C8  UNL     1       9.678   7.433  22.280  0.00  0.00    +0.266 C 
ATOM      2  O1  UNL     1      10.795   7.771  21.797  0.00  0.00    -0.268 OA
ATOM      3  N2  UNL     1       9.193   6.095  22.075  0.00  0.00    -0.295 N 
ATOM      4  C9  UNL     1       7.846   5.861  21.530  0.00  0.00    +0.108 C 
ATOM      5  C10 UNL     1       7.130   4.716  22.277  0.00  0.00    +0.021 C 
ATOM      6  C11 UNL     1       8.096   3.692  22.905  0.00  0.00    +0.025 C 
ATOM      7  C12 UNL     1       9.418   3.613  22.122  0.00  0.00    +0.091 C 
ATOM      8  C19 UNL     1      10.138   4.976  22.188  0.00  0.00    +0.130 C 
ENDROOT
BRANCH   1  11
ATOM      9  C6  UNL     1       8.057   9.279  24.971  0.00  0.00    +0.144 A 
ATOM     10  N1  UNL     1       8.816   8.298  24.434  0.00  0.00    -0.231 NA
ATOM     11  C7  UNL     1       8.919   8.414  23.080  0.00  0.00    +0.133 A 
ATOM     12  C20 UNL     1       8.218   9.489  22.530  0.00  0.00    +0.080 A 
ATOM     13  S1  UNL     1       7.470  10.321  23.787  0.00  0.00    -0.072 S 
BRANCH   9  18
ATOM     14  C1  UNL     1       7.808  11.220  29.466  0.00  0.00    +0.086 C 
ATOM     15  C2  UNL     1       7.677  10.230  28.358  0.00  0.00    +0.103 A 
ATOM     16  C3  UNL     1       7.169   8.951  28.478  0.00  0.00    +0.045 A 
ATOM     17  C4  UNL     1       7.240   8.403  27.215  0.00  0.00    +0.052 A 
ATOM     18  C5  UNL     1       7.785   9.388  26.409  0.00  0.00    +0.160 A 
ATOM     19  O3  UNL     1       8.034  10.465  27.117  0.00  0.00    -0.458 OA
ENDBRANCH   9  18
ENDBRANCH   1  11
BRANCH   7  20
ATOM     20  N3  UNL     1      10.283   2.565  22.673  0.00  0.00    -0.307 N 
ATOM     21  C13 UNL     1      11.483   2.137  21.998  0.00  0.00    +0.246 C 
ATOM     22  O2  UNL     1      11.704   2.515  20.810  0.00  0.00    -0.270 OA
ATOM     23  H13 UNL     1      10.020   2.128  23.587  0.00  0.00    +0.149 HD
BRANCH  21  24
ATOM     24  C14 UNL     1      12.460   1.240  22.661  0.00  0.00    +0.055 A 
ATOM     25  C15 UNL     1      13.551   0.703  21.956  0.00  0.00    +0.016 A 
ATOM     26  C16 UNL     1      14.456  -0.139  22.606  0.00  0.00    +0.020 A 
ATOM     27  C17 UNL     1      14.262  -0.445  23.956  0.00  0.00    +0.111 A 
ATOM     28  N4  UNL     1      13.196   0.066  24.625  0.00  0.00    -0.263 NA
ATOM     29  C18 UNL     1      12.301   0.888  24.016  0.00  0.00    +0.123 A 
ENDBRANCH  21  24
ENDBRANCH   7  20
TORSDOF 4
ENDMDL
MODEL 7
REMARK VINA RESULT:    -6.426     14.322     17.128
REMARK INTER + INTRA:          -8.320
REMARK INTER:                  -7.685
REMARK INTRA:                  -0.635
REMARK UNBOUND:                -0.392
REMARK  Name = /home/qwerty/github/datacon2025hack/step_04_hit_selection/docking/ligands/lig_190.pdb
REMARK  5 active torsions:
REMARK  status: ('A' for Active; 'I' for Inactive)
REMARK    1  A    between atoms: C1_1  and  C2_2
REMARK    2  A    between atoms: C5_5  and  C6_6
REMARK    3  A    between atoms: C7_8  and  C8_9
REMARK    4  A    between atoms: C12_15  and  N3_16
REMARK    5  A    between atoms: C13_17  and  C14_19
REMARK                            x       y       z     vdW  Elec       q    Type
REMARK                         _______ _______ _______ _____ _____    ______ ____
ROOT
ATOM      1  C8  UNL     1      22.889  11.897  19.615  0.00  0.00    +0.266 C 
ATOM      2  O1  UNL     1      23.808  11.119  19.234  0.00  0.00    -0.268 OA
ATOM      3  N2  UNL     1      21.516  11.550  19.363  0.00  0.00    -0.295 N 
ATOM      4  C9  UNL     1      20.612  12.501  18.698  0.00  0.00    +0.108 C 
ATOM      5  C10 UNL     1      19.224  12.522  19.375  0.00  0.00    +0.021 C 
ATOM      6  C11 UNL     1      18.866  11.201  20.084  0.00  0.00    +0.025 C 
ATOM      7  C12 UNL     1      19.565  10.000  19.423  0.00  0.00    +0.091 C 
ATOM      8  C19 UNL     1      21.094  10.156  19.557  0.00  0.00    +0.130 C 
ENDROOT
BRANCH   1  11
ATOM      9  C6  UNL     1      23.505  14.419  22.173  0.00  0.00    +0.144 A 
ATOM     10  N1  UNL     1      23.153  13.200  21.703  0.00  0.00    -0.231 NA
ATOM     11  C7  UNL     1      23.251  13.127  20.347  0.00  0.00    +0.133 A 
ATOM     12  C20 UNL     1      23.665  14.307  19.725  0.00  0.00    +0.080 A 
ATOM     13  S1  UNL     1      23.934  15.459  20.921  0.00  0.00    -0.072 S 
BRANCH   9  18
ATOM     14  C1  UNL     1      23.660  13.853  27.040  0.00  0.00    +0.086 C 
ATOM     15  C2  UNL     1      23.558  14.519  25.709  0.00  0.00    +0.103 A 
ATOM     16  C3  UNL     1      23.398  15.875  25.498  0.00  0.00    +0.045 A 
ATOM     17  C4  UNL     1      23.352  16.036  24.130  0.00  0.00    +0.052 A 
ATOM     18  C5  UNL     1      23.490  14.765  23.598  0.00  0.00    +0.160 A 
ATOM     19  O3  UNL     1      23.612  13.883  24.562  0.00  0.00    -0.458 OA
ENDBRANCH   9  18
ENDBRANCH   1  11
BRANCH   7  20
ATOM     20  N3  UNL     1      19.135   8.745  20.047  0.00  0.00    -0.307 N 
ATOM     21  C13 UNL     1      18.050   7.961  19.509  0.00  0.00    +0.246 C 
ATOM     22  O2  UNL     1      17.312   8.449  18.604  0.00  0.00    -0.270 OA
ATOM     23  H13 UNL     1      19.642   8.411  20.899  0.00  0.00    +0.149 HD
BRANCH  21  24
ATOM     24  C14 UNL     1      17.765   6.596  20.011  0.00  0.00    +0.055 A 
ATOM     25  C15 UNL     1      18.568   6.000  20.998  0.00  0.00    +0.016 A 
ATOM     26  C16 UNL     1      18.276   4.712  21.452  0.00  0.00    +0.020 A 
ATOM     27  C17 UNL     1      17.185   4.024  20.913  0.00  0.00    +0.111 A 
ATOM     28  N4  UNL     1      16.423   4.603  19.949  0.00  0.00    -0.263 NA
ATOM     29  C18 UNL     1      16.686   5.855  19.489  0.00  0.00    +0.123 A 
ENDBRANCH  21  24
ENDBRANCH   7  20
TORSDOF 4
ENDMDL
MODEL 8
REMARK VINA RESULT:    -6.410      5.987     11.050
REMARK INTER + INTRA:          -8.300
REMARK INTER:                  -7.700
REMARK INTRA:                  -0.601
REMARK UNBOUND:                -0.392
REMARK  Name = /home/qwerty/github/datacon2025hack/step_04_hit_selection/docking/ligands/lig_190.pdb
REMARK  5 active torsions:
REMARK  status: ('A' for Active; 'I' for Inactive)
REMARK    1  A    between atoms: C1_1  and  C2_2
REMARK    2  A    between atoms: C5_5  and  C6_6
REMARK    3  A    between atoms: C7_8  and  C8_9
REMARK    4  A    between atoms: C12_15  and  N3_16
REMARK    5  A    between atoms: C13_17  and  C14_19
REMARK                            x       y       z     vdW  Elec       q    Type
REMARK                         _______ _______ _______ _____ _____    ______ ____
ROOT
ATOM      1  C8  UNL     1      11.105  12.895  28.062  0.00  0.00    +0.266 C 
ATOM      2  O1  UNL     1      11.755  12.615  27.017  0.00  0.00    -0.268 OA
ATOM      3  N2  UNL     1       9.742  12.451  28.189  0.00  0.00    -0.295 N 
ATOM      4  C9  UNL     1       8.672  13.402  28.529  0.00  0.00    +0.108 C 
ATOM      5  C10 UNL     1       7.697  12.801  29.564  0.00  0.00    +0.021 C 
ATOM      6  C11 UNL     1       7.627  11.262  29.522  0.00  0.00    +0.025 C 
ATOM      7  C12 UNL     1       7.948  10.722  28.118  0.00  0.00    +0.091 C 
ATOM      8  C19 UNL     1       9.397  11.095  27.741  0.00  0.00    +0.130 C 
ENDROOT
BRANCH   1  11
ATOM      9  C6  UNL     1      12.182  14.211  31.285  0.00  0.00    +0.144 A 
ATOM     10  N1  UNL     1      11.477  13.409  30.455  0.00  0.00    -0.231 NA
ATOM     11  C7  UNL     1      11.777  13.638  29.146  0.00  0.00    +0.133 A 
ATOM     12  C20 UNL     1      12.717  14.647  28.928  0.00  0.00    +0.080 A 
ATOM     13  S1  UNL     1      13.193  15.247  30.426  0.00  0.00    -0.072 S 
BRANCH   9  18
ATOM     14  C1  UNL     1      10.066  14.118  35.706  0.00  0.00    +0.086 C 
ATOM     15  C2  UNL     1      11.131  14.129  34.662  0.00  0.00    +0.103 A 
ATOM     16  C3  UNL     1      12.492  14.092  34.901  0.00  0.00    +0.045 A 
ATOM     17  C4  UNL     1      13.089  14.120  33.659  0.00  0.00    +0.052 A 
ATOM     18  C5  UNL     1      12.050  14.170  32.745  0.00  0.00    +0.160 A 
ATOM     19  O3  UNL     1      10.896  14.172  33.372  0.00  0.00    -0.458 OA
ENDBRANCH   9  18
ENDBRANCH   1  11
BRANCH   7  20
ATOM     20  N3  UNL     1       7.780   9.267  28.073  0.00  0.00    -0.307 N 
ATOM     21  C13 UNL     1       7.601   8.560  26.828  0.00  0.00    +0.246 C 
ATOM     22  O2  UNL     1       7.380   9.209  25.764  0.00  0.00    -0.270 OA
ATOM     23  H13 UNL     1       7.802   8.732  28.972  0.00  0.00    +0.149 HD
BRANCH  21  24
ATOM     24  C14 UNL     1       7.650   7.079  26.770  0.00  0.00    +0.055 A 
ATOM     25  C15 UNL     1       7.162   6.292  27.827  0.00  0.00    +0.016 A 
ATOM     26  C16 UNL     1       7.220   4.899  27.745  0.00  0.00    +0.020 A 
ATOM     27  C17 UNL     1       7.772   4.300  26.609  0.00  0.00    +0.111 A 
ATOM     28  N4  UNL     1       8.255   5.069  25.599  0.00  0.00    -0.263 NA
ATOM     29  C18 UNL     1       8.210   6.427  25.653  0.00  0.00    +0.123 A 
ENDBRANCH  21  24
ENDBRANCH   7  20
TORSDOF 4
ENDMDL
MODEL 9
REMARK VINA RESULT:    -6.351      3.453      5.140
REMARK INTER + INTRA:          -8.228
REMARK INTER:                  -7.587
REMARK INTRA:                  -0.642
REMARK UNBOUND:                -0.392
REMARK  Name = /home/qwerty/github/datacon2025hack/step_04_hit_selection/docking/ligands/lig_190.pdb
REMARK  5 active torsions:
REMARK  status: ('A' for Active; 'I' for Inactive)
REMARK    1  A    between atoms: C1_1  and  C2_2
REMARK    2  A    between atoms: C5_5  and  C6_6
REMARK    3  A    between atoms: C7_8  and  C8_9
REMARK    4  A    between atoms: C12_15  and  N3_16
REMARK    5  A    between atoms: C13_17  and  C14_19
REMARK                            x       y       z     vdW  Elec       q    Type
REMARK                         _______ _______ _______ _____ _____    ______ ____
ROOT
ATOM      1  C8  UNL     1      16.513   9.731  35.527  0.00  0.00    +0.266 C 
ATOM      2  O1  UNL     1      16.257   8.495  35.559  0.00  0.00    -0.268 OA
ATOM      3  N2  UNL     1      17.808  10.199  35.944  0.00  0.00    -0.295 N 
ATOM      4  C9  UNL     1      17.931  11.266  36.949  0.00  0.00    +0.108 C 
ATOM      5  C10 UNL     1      19.024  12.283  36.556  0.00  0.00    +0.021 C 
ATOM      6  C11 UNL     1      20.126  11.685  35.658  0.00  0.00    +0.025 C 
ATOM      7  C12 UNL     1      20.300  10.177  35.909  0.00  0.00    +0.091 C 
ATOM      8  C19 UNL     1      18.997   9.439  35.536  0.00  0.00    +0.130 C 
ENDROOT
BRANCH   1  11
ATOM      9  C6  UNL     1      13.560  11.826  35.115  0.00  0.00    +0.144 A 
ATOM     10  N1  UNL     1      14.392  10.985  35.770  0.00  0.00    -0.231 NA
ATOM     11  C7  UNL     1      15.483  10.661  35.022  0.00  0.00    +0.133 A 
ATOM     12  C20 UNL     1      15.512  11.235  33.749  0.00  0.00    +0.080 A 
ATOM     13  S1  UNL     1      14.137  12.189  33.577  0.00  0.00    -0.072 S 
BRANCH   9  18
ATOM     14  C1  UNL     1       9.510  14.536  35.654  0.00  0.00    +0.086 C 
ATOM     15  C2  UNL     1      10.554  13.508  35.928  0.00  0.00    +0.103 A 
ATOM     16  C3  UNL     1      10.565  12.638  37.002  0.00  0.00    +0.045 A 
ATOM     17  C4  UNL     1      11.704  11.876  36.854  0.00  0.00    +0.052 A 
ATOM     18  C5  UNL     1      12.311  12.332  35.695  0.00  0.00    +0.160 A 
ATOM     19  O3  UNL     1      11.603  13.302  35.166  0.00  0.00    -0.458 OA
ENDBRANCH   9  18
ENDBRANCH   1  11
BRANCH   7  20
ATOM     20  N3  UNL     1      21.416   9.647  35.120  0.00  0.00    -0.307 N 
ATOM     21  C13 UNL     1      22.180   8.504  35.556  0.00  0.00    +0.246 C 
ATOM     22  O2  UNL     1      22.031   8.061  36.732  0.00  0.00    -0.270 OA
ATOM     23  H13 UNL     1      21.652  10.111  34.212  0.00  0.00    +0.149 HD
BRANCH  21  24
ATOM     24  C14 UNL     1      23.158   7.845  34.658  0.00  0.00    +0.055 A 
ATOM     25  C15 UNL     1      23.506   8.410  33.419  0.00  0.00    +0.016 A 
ATOM     26  C16 UNL     1      24.431   7.766  32.594  0.00  0.00    +0.020 A 
ATOM     27  C17 UNL     1      24.999   6.559  33.008  0.00  0.00    +0.111 A 
ATOM     28  N4  UNL     1      24.646   6.013  34.201  0.00  0.00    -0.263 NA
ATOM     29  C18 UNL     1      23.748   6.619  35.024  0.00  0.00    +0.123 A 
ENDBRANCH  21  24
ENDBRANCH   7  20
TORSDOF 4
ENDMDL
