REMARK  Name = /home/qwerty/github/datacon2025hack/step_04_hit_selection/docking/ligands/lig_93.pdb
REMARK  11 active torsions:
REMARK  status: ('A' for Active; 'I' for Inactive)
REMARK    1  A    between atoms: C1_1  and  C2_2
REMARK    2  A    between atoms: C2_2  and  C3_3
REMARK    3  A    between atoms: C2_2  and  N1_4
REMARK    4  A    between atoms: C5_6  and  C6_7
REMARK    5  A    between atoms: N2_9  and  C7_10
REMARK    6  A    between atoms: C7_10  and  C8_11
REMARK    7  A    between atoms: C7_10  and  C9_13
REMARK    8  A    between atoms: C8_11  and  O2_12
REMARK    9  A    between atoms: C9_13  and  N3_14
REMARK   10  A    between atoms: C10_15  and  C11_17
REMARK   11  A    between atoms: C13_19  and  C14_20
REMARK                            x       y       z     vdW  Elec       q    Type
REMARK                         _______ _______ _______ _____ _____    ______ ____
ROOT
ATOM      1  C7  UNL     1       0.220  -0.257  -0.240  0.00  0.00    +0.116 C 
ENDROOT
BRANCH   1   4
ATOM      2  C6  UNL     1      -1.985  -0.059   1.010  0.00  0.00    +0.247 C 
ATOM      3  O1  UNL     1      -1.375  -0.046   2.114  0.00  0.00    -0.270 OA
ATOM      4  N2  UNL     1      -1.247  -0.201  -0.216  0.00  0.00    -0.305 N 
ATOM      5  H9  UNL     1      -1.772  -0.308  -1.111  0.00  0.00    +0.149 HD
BRANCH   2   8
ATOM      6  N1  UNL     1      -5.562   0.243   0.376  0.00  0.00    -0.268 N 
ATOM      7  C4  UNL     1      -4.303   0.118  -0.086  0.00  0.00    +0.121 A 
ATOM      8  C5  UNL     1      -3.454   0.066   1.002  0.00  0.00    +0.074 A 
ATOM      9  C18 UNL     1      -4.279   0.171   2.108  0.00  0.00    +0.147 A 
ATOM     10  N4  UNL     1      -5.558   0.278   1.700  0.00  0.00    -0.179 NA
BRANCH   6  12
ATOM     11  C1  UNL     1      -7.737  -0.793  -0.107  0.00  0.00    +0.032 C 
ATOM     12  C2  UNL     1      -6.770   0.344  -0.446  0.00  0.00    +0.101 C 
ATOM     13  C3  UNL     1      -7.432   1.708  -0.242  0.00  0.00    +0.032 C 
ENDBRANCH   6  12
ENDBRANCH   2   8
ENDBRANCH   1   4
BRANCH   1  14
ATOM     14  C8  UNL     1       0.712  -0.868  -1.566  0.00  0.00    +0.179 C 
BRANCH  14  15
ATOM     15  O2  UNL     1       0.359  -0.052  -2.649  0.00  0.00    -0.393 OA
ATOM     16  H13 UNL     1       0.711  -0.503  -3.460  0.00  0.00    +0.209 HD
ENDBRANCH  14  15
ENDBRANCH   1  14
BRANCH   1  17
ATOM     17  C9  UNL     1       0.803   1.152  -0.008  0.00  0.00    +0.128 C 
BRANCH  17  18
ATOM     18  N3  UNL     1       2.265   1.122   0.023  0.00  0.00    -0.313 N 
ATOM     19  C10 UNL     1       2.996   0.565   1.131  0.00  0.00    +0.217 C 
ATOM     20  O3  UNL     1       2.378   0.235   2.179  0.00  0.00    -0.275 OA
ATOM     21  H16 UNL     1       2.765   1.551  -0.786  0.00  0.00    +0.149 HD
BRANCH  19  22
ATOM     22  C11 UNL     1       4.490   0.344   1.100  0.00  0.00    +0.086 C 
ATOM     23  C12 UNL     1       5.324   1.430   0.426  0.00  0.00    +0.025 C 
ATOM     24  C13 UNL     1       5.119   0.082  -0.266  0.00  0.00    +0.068 C 
BRANCH  24  25
ATOM     25  C14 UNL     1       6.316  -0.834  -0.279  0.00  0.00    +0.109 A 
ATOM     26  C15 UNL     1       7.280  -0.996   0.704  0.00  0.00    +0.045 A 
ATOM     27  C16 UNL     1       8.155  -1.943   0.220  0.00  0.00    +0.041 A 
ATOM     28  C17 UNL     1       7.678  -2.304  -1.023  0.00  0.00    +0.195 A 
ATOM     29  O4  UNL     1       6.584  -1.628  -1.291  0.00  0.00    -0.468 OA
ENDBRANCH  24  25
ENDBRANCH  19  22
ENDBRANCH  17  18
ENDBRANCH   1  17
TORSDOF 9
