MODEL 1
REMARK VINA RESULT:    -5.852      0.000      0.000
REMARK INTER + INTRA:          -7.540
REMARK INTER:                  -6.878
REMARK INTRA:                  -0.662
REMARK UNBOUND:                -0.662
REMARK  Name = /home/qwerty/github/datacon2025hack/step_04_hit_selection/docking/ligands/lig_802.pdb
REMARK  7 active torsions:
REMARK  status: ('A' for Active; 'I' for Inactive)
REMARK    1  A    between atoms: C1_1  and  O1_2
REMARK    2  A    between atoms: O1_2  and  C2_3
REMARK    3  A    between atoms: C11_12  and  N1_13
REMARK    4  A    between atoms: N1_13  and  C12_14
REMARK    5  A    between atoms: N2_17  and  C14_18
REMARK    6  A    between atoms: C15_19  and  C16_20
REMARK    7  A    between atoms: C17_23  and  C18_24
REMARK                            x       y       z     vdW  Elec       q    Type
REMARK                         _______ _______ _______ _____ _____    ______ ____
ROOT
ATOM      1  N1  UNL     1       8.832   8.925  26.202  0.00  0.00    -0.281 N 
ATOM      2  C12 UNL     1       9.955   8.120  26.702  0.00  0.00    +0.134 C 
ATOM      3  C13 UNL     1       8.586   8.993  24.779  0.00  0.00    +0.307 C 
ATOM      4  O2  UNL     1       7.673   9.741  24.330  0.00  0.00    -0.252 OA
ATOM      5  N2  UNL     1       9.356   8.202  23.860  0.00  0.00    -0.265 N 
ATOM      6  H17 UNL     1       9.716   7.273  24.171  0.00  0.00    +0.157 HD
ENDROOT
BRANCH   1  16
ATOM      7  C2  UNL     1      10.192  12.988  28.927  0.00  0.00    +0.120 A 
ATOM      8  C3  UNL     1      10.293  12.707  27.563  0.00  0.00    +0.046 A 
ATOM      9  C4  UNL     1       9.592  11.639  27.005  0.00  0.00    +0.009 A 
ATOM     10  C5  UNL     1       8.785  10.812  27.805  0.00  0.00    -0.024 A 
ATOM     11  C6  UNL     1       8.637  11.120  29.180  0.00  0.00    -0.039 A 
ATOM     12  C7  UNL     1       9.362  12.188  29.733  0.00  0.00    +0.049 A 
ATOM     13  C8  UNL     1       7.780  10.274  30.089  0.00  0.00    +0.035 C 
ATOM     14  C9  UNL     1       6.711   9.498  29.320  0.00  0.00    +0.007 C 
ATOM     15  C10 UNL     1       7.353   8.724  28.171  0.00  0.00    +0.028 C 
ATOM     16  C11 UNL     1       7.993   9.688  27.152  0.00  0.00    +0.108 C 
BRANCH   7  18
ATOM     17  C1  UNL     1      11.863  14.834  28.690  0.00  0.00    +0.277 C 
ATOM     18  O1  UNL     1      10.927  14.068  29.440  0.00  0.00    -0.495 OA
ENDBRANCH   7  18
ENDBRANCH   1  16
BRANCH   5  19
ATOM     19  C14 UNL     1       9.511   8.547  22.477  0.00  0.00    +0.100 A 
ATOM     20  C15 UNL     1      10.341   9.501  21.913  0.00  0.00    +0.102 A 
ATOM     21  C16 UNL     1      11.250  10.456  22.617  0.00  0.00    +0.071 C 
ATOM     22  N3  UNL     1      10.245   9.417  20.570  0.00  0.00    -0.081 NA
ATOM     23  O3  UNL     1       9.418   8.445  20.301  0.00  0.00    -0.358 OA
ATOM     24  C17 UNL     1       8.962   7.888  21.400  0.00  0.00    +0.156 A 
ATOM     25  C18 UNL     1       8.027   6.725  21.440  0.00  0.00    +0.091 C 
ENDBRANCH   5  19
TORSDOF 3
ENDMDL
MODEL 2
REMARK VINA RESULT:    -5.790      3.654      6.155
REMARK INTER + INTRA:          -7.467
REMARK INTER:                  -6.867
REMARK INTRA:                  -0.601
REMARK UNBOUND:                -0.662
REMARK  Name = /home/qwerty/github/datacon2025hack/step_04_hit_selection/docking/ligands/lig_802.pdb
REMARK  7 active torsions:
REMARK  status: ('A' for Active; 'I' for Inactive)
REMARK    1  A    between atoms: C1_1  and  O1_2
REMARK    2  A    between atoms: O1_2  and  C2_3
REMARK    3  A    between atoms: C11_12  and  N1_13
REMARK    4  A    between atoms: N1_13  and  C12_14
REMARK    5  A    between atoms: N2_17  and  C14_18
REMARK    6  A    between atoms: C15_19  and  C16_20
REMARK    7  A    between atoms: C17_23  and  C18_24
REMARK                            x       y       z     vdW  Elec       q    Type
REMARK                         _______ _______ _______ _____ _____    ______ ____
ROOT
ATOM      1  N1  UNL     1       9.131   6.910  21.473  0.00  0.00    -0.281 N 
ATOM      2  C12 UNL     1       7.787   6.478  21.064  0.00  0.00    +0.134 C 
ATOM      3  C13 UNL     1      10.240   5.990  21.350  0.00  0.00    +0.307 C 
ATOM      4  O2  UNL     1      11.385   6.320  21.768  0.00  0.00    -0.252 OA
ATOM      5  N2  UNL     1      10.064   4.702  20.739  0.00  0.00    -0.265 N 
ATOM      6  H17 UNL     1       9.355   4.596  19.980  0.00  0.00    +0.157 HD
ENDROOT
BRANCH   1  16
ATOM      7  C2  UNL     1       7.689   8.561  26.053  0.00  0.00    +0.120 A 
ATOM      8  C3  UNL     1       8.422   7.440  25.657  0.00  0.00    +0.046 A 
ATOM      9  C4  UNL     1       8.934   7.348  24.363  0.00  0.00    +0.009 A 
ATOM     10  C5  UNL     1       8.709   8.372  23.427  0.00  0.00    -0.024 A 
ATOM     11  C6  UNL     1       8.011   9.534  23.835  0.00  0.00    -0.039 A 
ATOM     12  C7  UNL     1       7.485   9.607  25.135  0.00  0.00    +0.049 A 
ATOM     13  C8  UNL     1       7.743  10.670  22.878  0.00  0.00    +0.035 C 
ATOM     14  C9  UNL     1       8.739  10.696  21.718  0.00  0.00    +0.007 C 
ATOM     15  C10 UNL     1       8.803   9.322  21.054  0.00  0.00    +0.028 C 
ATOM     16  C11 UNL     1       9.329   8.261  22.041  0.00  0.00    +0.108 C 
BRANCH   7  18
ATOM     17  C1  UNL     1       7.467   9.628  28.304  0.00  0.00    +0.277 C 
ATOM     18  O1  UNL     1       7.186   8.599  27.363  0.00  0.00    -0.495 OA
ENDBRANCH   7  18
ENDBRANCH   1  16
BRANCH   5  19
ATOM     19  C14 UNL     1      10.934   3.592  20.999  0.00  0.00    +0.100 A 
ATOM     20  C15 UNL     1      12.183   3.331  20.464  0.00  0.00    +0.102 A 
ATOM     21  C16 UNL     1      12.919   4.118  19.428  0.00  0.00    +0.071 C 
ATOM     22  N3  UNL     1      12.690   2.236  21.065  0.00  0.00    -0.081 NA
ATOM     23  O3  UNL     1      11.817   1.842  21.951  0.00  0.00    -0.358 OA
ATOM     24  C17 UNL     1      10.761   2.622  21.960  0.00  0.00    +0.156 A 
ATOM     25  C18 UNL     1       9.598   2.467  22.882  0.00  0.00    +0.091 C 
ENDBRANCH   5  19
TORSDOF 3
ENDMDL
MODEL 3
REMARK VINA RESULT:    -5.766      2.224      8.080
REMARK INTER + INTRA:          -7.439
REMARK INTER:                  -6.877
REMARK INTRA:                  -0.562
REMARK UNBOUND:                -0.662
REMARK  Name = /home/qwerty/github/datacon2025hack/step_04_hit_selection/docking/ligands/lig_802.pdb
REMARK  7 active torsions:
REMARK  status: ('A' for Active; 'I' for Inactive)
REMARK    1  A    between atoms: C1_1  and  O1_2
REMARK    2  A    between atoms: O1_2  and  C2_3
REMARK    3  A    between atoms: C11_12  and  N1_13
REMARK    4  A    between atoms: N1_13  and  C12_14
REMARK    5  A    between atoms: N2_17  and  C14_18
REMARK    6  A    between atoms: C15_19  and  C16_20
REMARK    7  A    between atoms: C17_23  and  C18_24
REMARK                            x       y       z     vdW  Elec       q    Type
REMARK                         _______ _______ _______ _____ _____    ______ ____
ROOT
ATOM      1  N1  UNL     1       9.802   9.662  24.166  0.00  0.00    -0.281 N 
ATOM      2  C12 UNL     1      11.184   9.405  24.594  0.00  0.00    +0.134 C 
ATOM      3  C13 UNL     1       8.812  10.037  25.152  0.00  0.00    +0.307 C 
ATOM      4  O2  UNL     1       7.606  10.186  24.812  0.00  0.00    -0.252 OA
ATOM      5  N2  UNL     1       9.185  10.262  26.521  0.00  0.00    -0.265 N 
ATOM      6  H17 UNL     1      10.136  10.637  26.730  0.00  0.00    +0.157 HD
ENDROOT
BRANCH   1  16
ATOM      7  C2  UNL     1       9.327   5.308  21.598  0.00  0.00    +0.120 A 
ATOM      8  C3  UNL     1       8.786   5.735  22.812  0.00  0.00    +0.046 A 
ATOM      9  C4  UNL     1       8.834   7.080  23.177  0.00  0.00    +0.009 A 
ATOM     10  C5  UNL     1       9.442   8.030  22.338  0.00  0.00    -0.024 A 
ATOM     11  C6  UNL     1       9.949   7.614  21.083  0.00  0.00    -0.039 A 
ATOM     12  C7  UNL     1       9.911   6.254  20.736  0.00  0.00    +0.049 A 
ATOM     13  C8  UNL     1      10.608   8.588  20.137  0.00  0.00    +0.035 C 
ATOM     14  C9  UNL     1      10.162  10.029  20.386  0.00  0.00    +0.007 C 
ATOM     15  C10 UNL     1      10.333  10.380  21.863  0.00  0.00    +0.028 C 
ATOM     16  C11 UNL     1       9.428   9.497  22.744  0.00  0.00    +0.108 C 
BRANCH   7  18
ATOM     17  C1  UNL     1       9.813   2.904  22.090  0.00  0.00    +0.277 C 
ATOM     18  O1  UNL     1       9.264   3.941  21.285  0.00  0.00    -0.495 OA
ENDBRANCH   7  18
ENDBRANCH   1  16
BRANCH   5  19
ATOM     19  C14 UNL     1       8.254  10.161  27.607  0.00  0.00    +0.100 A 
ATOM     20  C15 UNL     1       7.530   9.057  28.023  0.00  0.00    +0.102 A 
ATOM     21  C16 UNL     1       7.493   7.698  27.402  0.00  0.00    +0.071 C 
ATOM     22  N3  UNL     1       6.859   9.380  29.147  0.00  0.00    -0.081 NA
ATOM     23  O3  UNL     1       7.165  10.614  29.440  0.00  0.00    -0.358 OA
ATOM     24  C17 UNL     1       8.001  11.119  28.561  0.00  0.00    +0.156 A 
ATOM     25  C18 UNL     1       8.575  12.496  28.628  0.00  0.00    +0.091 C 
ENDBRANCH   5  19
TORSDOF 3
ENDMDL
MODEL 4
REMARK VINA RESULT:    -5.715      5.395     10.311
REMARK INTER + INTRA:          -7.379
REMARK INTER:                  -6.767
REMARK INTRA:                  -0.612
REMARK UNBOUND:                -0.662
REMARK  Name = /home/qwerty/github/datacon2025hack/step_04_hit_selection/docking/ligands/lig_802.pdb
REMARK  7 active torsions:
REMARK  status: ('A' for Active; 'I' for Inactive)
REMARK    1  A    between atoms: C1_1  and  O1_2
REMARK    2  A    between atoms: O1_2  and  C2_3
REMARK    3  A    between atoms: C11_12  and  N1_13
REMARK    4  A    between atoms: N1_13  and  C12_14
REMARK    5  A    between atoms: N2_17  and  C14_18
REMARK    6  A    between atoms: C15_19  and  C16_20
REMARK    7  A    between atoms: C17_23  and  C18_24
REMARK                            x       y       z     vdW  Elec       q    Type
REMARK                         _______ _______ _______ _____ _____    ______ ____
ROOT
ATOM      1  N1  UNL     1      13.171  13.592  31.000  0.00  0.00    -0.281 N 
ATOM      2  C12 UNL     1      14.007  12.454  30.594  0.00  0.00    +0.134 C 
ATOM      3  C13 UNL     1      13.114  13.968  32.395  0.00  0.00    +0.307 C 
ATOM      4  O2  UNL     1      12.342  14.894  32.770  0.00  0.00    -0.252 OA
ATOM      5  N2  UNL     1      13.943  13.314  33.368  0.00  0.00    -0.265 N 
ATOM      6  H17 UNL     1      14.880  12.957  33.076  0.00  0.00    +0.157 HD
ENDROOT
BRANCH   1  16
ATOM      7  C2  UNL     1       9.036  11.901  28.587  0.00  0.00    +0.120 A 
ATOM      8  C3  UNL     1       9.363  11.957  29.943  0.00  0.00    +0.046 A 
ATOM      9  C4  UNL     1      10.441  12.724  30.382  0.00  0.00    +0.009 A 
ATOM     10  C5  UNL     1      11.230  13.443  29.468  0.00  0.00    -0.024 A 
ATOM     11  C6  UNL     1      10.875  13.433  28.097  0.00  0.00    -0.039 A 
ATOM     12  C7  UNL     1       9.798  12.642  27.665  0.00  0.00    +0.049 A 
ATOM     13  C8  UNL     1      11.680  14.190  27.068  0.00  0.00    +0.035 C 
ATOM     14  C9  UNL     1      12.469  15.345  27.686  0.00  0.00    +0.007 C 
ATOM     15  C10 UNL     1      13.288  14.842  28.872  0.00  0.00    +0.028 C 
ATOM     16  C11 UNL     1      12.367  14.312  29.989  0.00  0.00    +0.108 C 
BRANCH   7  18
ATOM     17  C1  UNL     1       7.376  10.075  28.996  0.00  0.00    +0.277 C 
ATOM     18  O1  UNL     1       7.948  11.104  28.196  0.00  0.00    -0.495 OA
ENDBRANCH   7  18
ENDBRANCH   1  16
BRANCH   5  19
ATOM     19  C14 UNL     1      13.623  13.278  34.766  0.00  0.00    +0.100 A 
ATOM     20  C15 UNL     1      12.564  12.644  35.392  0.00  0.00    +0.102 A 
ATOM     21  C16 UNL     1      11.448  11.879  34.756  0.00  0.00    +0.071 C 
ATOM     22  N3  UNL     1      12.706  12.782  36.726  0.00  0.00    -0.081 NA
ATOM     23  O3  UNL     1      13.810  13.446  36.931  0.00  0.00    -0.358 OA
ATOM     24  C17 UNL     1      14.399  13.754  35.797  0.00  0.00    +0.156 A 
ATOM     25  C18 UNL     1      15.699  14.479  35.685  0.00  0.00    +0.091 C 
ENDBRANCH   5  19
TORSDOF 3
ENDMDL
MODEL 5
REMARK VINA RESULT:    -5.693     13.891     14.456
REMARK INTER + INTRA:          -7.353
REMARK INTER:                  -6.719
REMARK INTRA:                  -0.634
REMARK UNBOUND:                -0.662
REMARK  Name = /home/qwerty/github/datacon2025hack/step_04_hit_selection/docking/ligands/lig_802.pdb
REMARK  7 active torsions:
REMARK  status: ('A' for Active; 'I' for Inactive)
REMARK    1  A    between atoms: C1_1  and  O1_2
REMARK    2  A    between atoms: O1_2  and  C2_3
REMARK    3  A    between atoms: C11_12  and  N1_13
REMARK    4  A    between atoms: N1_13  and  C12_14
REMARK    5  A    between atoms: N2_17  and  C14_18
REMARK    6  A    between atoms: C15_19  and  C16_20
REMARK    7  A    between atoms: C17_23  and  C18_24
REMARK                            x       y       z     vdW  Elec       q    Type
REMARK                         _______ _______ _______ _____ _____    ______ ____
ROOT
ATOM      1  N1  UNL     1      21.487   1.951  29.651  0.00  0.00    -0.281 N 
ATOM      2  C12 UNL     1      22.837   1.374  29.705  0.00  0.00    +0.134 C 
ATOM      3  C13 UNL     1      20.809   2.051  28.378  0.00  0.00    +0.307 C 
ATOM      4  O2  UNL     1      19.681   2.614  28.304  0.00  0.00    -0.252 OA
ATOM      5  N2  UNL     1      21.393   1.500  27.187  0.00  0.00    -0.265 N 
ATOM      6  H17 UNL     1      21.996   0.651  27.266  0.00  0.00    +0.157 HD
ENDROOT
BRANCH   1  16
ATOM      7  C2  UNL     1      22.443   6.343  32.014  0.00  0.00    +0.120 A 
ATOM      8  C3  UNL     1      22.131   6.050  30.684  0.00  0.00    +0.046 A 
ATOM      9  C4  UNL     1      21.633   4.797  30.331  0.00  0.00    +0.009 A 
ATOM     10  C5  UNL     1      21.450   3.798  31.302  0.00  0.00    -0.024 A 
ATOM     11  C6  UNL     1      21.716   4.101  32.659  0.00  0.00    -0.039 A 
ATOM     12  C7  UNL     1      22.234   5.361  32.999  0.00  0.00    +0.049 A 
ATOM     13  C8  UNL     1      21.534   3.072  33.748  0.00  0.00    +0.035 C 
ATOM     14  C9  UNL     1      20.546   1.975  33.348  0.00  0.00    +0.007 C 
ATOM     15  C10 UNL     1      20.938   1.388  31.993  0.00  0.00    +0.028 C 
ATOM     16  C11 UNL     1      20.854   2.459  30.888  0.00  0.00    +0.108 C 
BRANCH   7  18
ATOM     17  C1  UNL     1      24.164   7.851  33.023  0.00  0.00    +0.277 C 
ATOM     18  O1  UNL     1      22.953   7.615  32.314  0.00  0.00    -0.495 OA
ENDBRANCH   7  18
ENDBRANCH   1  16
BRANCH   5  19
ATOM     19  C14 UNL     1      21.051   1.953  25.871  0.00  0.00    +0.100 A 
ATOM     20  C15 UNL     1      21.620   2.979  25.136  0.00  0.00    +0.102 A 
ATOM     21  C16 UNL     1      22.706   3.916  25.559  0.00  0.00    +0.071 C 
ATOM     22  N3  UNL     1      21.062   2.992  23.909  0.00  0.00    -0.081 NA
ATOM     23  O3  UNL     1      20.205   2.010  23.863  0.00  0.00    -0.358 OA
ATOM     24  C17 UNL     1      20.169   1.354  25.000  0.00  0.00    +0.156 A 
ATOM     25  C18 UNL     1      19.321   0.155  25.263  0.00  0.00    +0.091 C 
ENDBRANCH   5  19
TORSDOF 3
ENDMDL
MODEL 6
REMARK VINA RESULT:    -5.634     14.119     15.560
REMARK INTER + INTRA:          -7.284
REMARK INTER:                  -6.709
REMARK INTRA:                  -0.576
REMARK UNBOUND:                -0.662
REMARK  Name = /home/qwerty/github/datacon2025hack/step_04_hit_selection/docking/ligands/lig_802.pdb
REMARK  7 active torsions:
REMARK  status: ('A' for Active; 'I' for Inactive)
REMARK    1  A    between atoms: C1_1  and  O1_2
REMARK    2  A    between atoms: O1_2  and  C2_3
REMARK    3  A    between atoms: C11_12  and  N1_13
REMARK    4  A    between atoms: N1_13  and  C12_14
REMARK    5  A    between atoms: N2_17  and  C14_18
REMARK    6  A    between atoms: C15_19  and  C16_20
REMARK    7  A    between atoms: C17_23  and  C18_24
REMARK                            x       y       z     vdW  Elec       q    Type
REMARK                         _______ _______ _______ _____ _____    ______ ____
ROOT
ATOM      1  N1  UNL     1      21.847   5.694  31.543  0.00  0.00    -0.281 N 
ATOM      2  C12 UNL     1      20.720   6.282  30.806  0.00  0.00    +0.134 C 
ATOM      3  C13 UNL     1      21.969   4.255  31.623  0.00  0.00    +0.307 C 
ATOM      4  O2  UNL     1      22.888   3.736  32.316  0.00  0.00    -0.252 OA
ATOM      5  N2  UNL     1      21.066   3.399  30.906  0.00  0.00    -0.265 N 
ATOM      6  H17 UNL     1      20.671   3.728  29.998  0.00  0.00    +0.157 HD
ENDROOT
BRANCH   1  16
ATOM      7  C2  UNL     1      21.238   8.085  35.980  0.00  0.00    +0.120 A 
ATOM      8  C3  UNL     1      21.066   6.749  35.613  0.00  0.00    +0.046 A 
ATOM      9  C4  UNL     1      21.567   6.276  34.401  0.00  0.00    +0.009 A 
ATOM     10  C5  UNL     1      22.240   7.138  33.517  0.00  0.00    -0.024 A 
ATOM     11  C6  UNL     1      22.463   8.482  33.903  0.00  0.00    -0.039 A 
ATOM     12  C7  UNL     1      21.937   8.950  35.119  0.00  0.00    +0.049 A 
ATOM     13  C8  UNL     1      23.183   9.453  33.000  0.00  0.00    +0.035 C 
ATOM     14  C9  UNL     1      24.092   8.744  31.996  0.00  0.00    +0.007 C 
ATOM     15  C10 UNL     1      23.309   7.665  31.253  0.00  0.00    +0.028 C 
ATOM     16  C11 UNL     1      22.820   6.574  32.226  0.00  0.00    +0.108 C 
BRANCH   7  18
ATOM     17  C1  UNL     1      19.438   9.147  37.355  0.00  0.00    +0.277 C 
ATOM     18  O1  UNL     1      20.704   8.513  37.206  0.00  0.00    -0.495 OA
ENDBRANCH   7  18
ENDBRANCH   1  16
BRANCH   5  19
ATOM     19  C14 UNL     1      20.812   2.041  31.290  0.00  0.00    +0.100 A 
ATOM     20  C15 UNL     1      20.226   1.567  32.451  0.00  0.00    +0.102 A 
ATOM     21  C16 UNL     1      19.759   2.358  33.630  0.00  0.00    +0.071 C 
ATOM     22  N3  UNL     1      20.087   0.230  32.350  0.00  0.00    -0.081 NA
ATOM     23  O3  UNL     1      20.538  -0.119  31.177  0.00  0.00    -0.358 OA
ATOM     24  C17 UNL     1      20.970   0.923  30.503  0.00  0.00    +0.156 A 
ATOM     25  C18 UNL     1      21.513   0.871  29.113  0.00  0.00    +0.091 C 
ENDBRANCH   5  19
TORSDOF 3
ENDMDL
MODEL 7
REMARK VINA RESULT:    -5.625     12.310     14.115
REMARK INTER + INTRA:          -7.273
REMARK INTER:                  -6.645
REMARK INTRA:                  -0.629
REMARK UNBOUND:                -0.662
REMARK  Name = /home/qwerty/github/datacon2025hack/step_04_hit_selection/docking/ligands/lig_802.pdb
REMARK  7 active torsions:
REMARK  status: ('A' for Active; 'I' for Inactive)
REMARK    1  A    between atoms: C1_1  and  O1_2
REMARK    2  A    between atoms: O1_2  and  C2_3
REMARK    3  A    between atoms: C11_12  and  N1_13
REMARK    4  A    between atoms: N1_13  and  C12_14
REMARK    5  A    between atoms: N2_17  and  C14_18
REMARK    6  A    between atoms: C15_19  and  C16_20
REMARK    7  A    between atoms: C17_23  and  C18_24
REMARK                            x       y       z     vdW  Elec       q    Type
REMARK                         _______ _______ _______ _____ _____    ______ ____
ROOT
ATOM      1  N1  UNL     1      18.783   2.844  25.000  0.00  0.00    -0.281 N 
ATOM      2  C12 UNL     1      18.054   3.775  25.872  0.00  0.00    +0.134 C 
ATOM      3  C13 UNL     1      18.069   1.758  24.367  0.00  0.00    +0.307 C 
ATOM      4  O2  UNL     1      18.694   0.906  23.678  0.00  0.00    -0.252 OA
ATOM      5  N2  UNL     1      16.643   1.641  24.495  0.00  0.00    -0.265 N 
ATOM      6  H17 UNL     1      16.071   2.509  24.590  0.00  0.00    +0.157 HD
ENDROOT
BRANCH   1  16
ATOM      7  C2  UNL     1      22.468   1.400  28.182  0.00  0.00    +0.120 A 
ATOM      8  C3  UNL     1      21.380   0.710  27.645  0.00  0.00    +0.046 A 
ATOM      9  C4  UNL     1      20.664   1.237  26.571  0.00  0.00    +0.009 A 
ATOM     10  C5  UNL     1      21.012   2.482  26.018  0.00  0.00    -0.024 A 
ATOM     11  C6  UNL     1      22.145   3.165  26.523  0.00  0.00    -0.039 A 
ATOM     12  C7  UNL     1      22.846   2.632  27.617  0.00  0.00    +0.049 A 
ATOM     13  C8  UNL     1      22.572   4.501  25.967  0.00  0.00    +0.035 C 
ATOM     14  C9  UNL     1      22.072   4.721  24.539  0.00  0.00    +0.007 C 
ATOM     15  C10 UNL     1      20.567   4.468  24.468  0.00  0.00    +0.028 C 
ATOM     16  C11 UNL     1      20.242   3.001  24.811  0.00  0.00    +0.108 C 
BRANCH   7  18
ATOM     17  C1  UNL     1      24.440   0.241  29.194  0.00  0.00    +0.277 C 
ATOM     18  O1  UNL     1      23.147   0.831  29.271  0.00  0.00    -0.495 OA
ENDBRANCH   7  18
ENDBRANCH   1  16
BRANCH   5  19
ATOM     19  C14 UNL     1      15.945   0.400  24.326  0.00  0.00    +0.100 A 
ATOM     20  C15 UNL     1      15.387  -0.126  23.174  0.00  0.00    +0.102 A 
ATOM     21  C16 UNL     1      15.320   0.501  21.819  0.00  0.00    +0.071 C 
ATOM     22  N3  UNL     1      14.923  -1.363  23.445  0.00  0.00    -0.081 NA
ATOM     23  O3  UNL     1      15.198  -1.614  24.695  0.00  0.00    -0.358 OA
ATOM     24  C17 UNL     1      15.816  -0.603  25.260  0.00  0.00    +0.156 A 
ATOM     25  C18 UNL     1      16.302  -0.584  26.672  0.00  0.00    +0.091 C 
ENDBRANCH   5  19
TORSDOF 3
ENDMDL
MODEL 8
REMARK VINA RESULT:    -5.512      8.705     12.462
REMARK INTER + INTRA:          -7.140
REMARK INTER:                  -6.500
REMARK INTRA:                  -0.640
REMARK UNBOUND:                -0.662
REMARK  Name = /home/qwerty/github/datacon2025hack/step_04_hit_selection/docking/ligands/lig_802.pdb
REMARK  7 active torsions:
REMARK  status: ('A' for Active; 'I' for Inactive)
REMARK    1  A    between atoms: C1_1  and  O1_2
REMARK    2  A    between atoms: O1_2  and  C2_3
REMARK    3  A    between atoms: C11_12  and  N1_13
REMARK    4  A    between atoms: N1_13  and  C12_14
REMARK    5  A    between atoms: N2_17  and  C14_18
REMARK    6  A    between atoms: C15_19  and  C16_20
REMARK    7  A    between atoms: C17_23  and  C18_24
REMARK                            x       y       z     vdW  Elec       q    Type
REMARK                         _______ _______ _______ _____ _____    ______ ____
ROOT
ATOM      1  N1  UNL     1      14.727  13.038  36.017  0.00  0.00    -0.281 N 
ATOM      2  C12 UNL     1      15.004  14.418  36.437  0.00  0.00    +0.134 C 
ATOM      3  C13 UNL     1      15.761  12.036  36.144  0.00  0.00    +0.307 C 
ATOM      4  O2  UNL     1      15.564  10.864  35.717  0.00  0.00    -0.252 OA
ATOM      5  N2  UNL     1      17.015  12.348  36.771  0.00  0.00    -0.265 N 
ATOM      6  H17 UNL     1      17.035  13.060  37.535  0.00  0.00    +0.157 HD
ENDROOT
BRANCH   1  16
ATOM      7  C2  UNL     1      12.930  14.413  31.471  0.00  0.00    +0.120 A 
ATOM      8  C3  UNL     1      14.130  13.809  31.853  0.00  0.00    +0.046 A 
ATOM      9  C4  UNL     1      14.278  13.271  33.131  0.00  0.00    +0.009 A 
ATOM     10  C5  UNL     1      13.231  13.341  34.065  0.00  0.00    -0.024 A 
ATOM     11  C6  UNL     1      11.994  13.907  33.671  0.00  0.00    -0.039 A 
ATOM     12  C7  UNL     1      11.864  14.461  32.387  0.00  0.00    +0.049 A 
ATOM     13  C8  UNL     1      10.831  14.005  34.627  0.00  0.00    +0.035 C 
ATOM     14  C9  UNL     1      10.921  12.977  35.755  0.00  0.00    +0.007 C 
ATOM     15  C10 UNL     1      12.290  13.058  36.427  0.00  0.00    +0.028 C 
ATOM     16  C11 UNL     1      13.411  12.696  35.433  0.00  0.00    +0.108 C 
BRANCH   7  18
ATOM     17  C1  UNL     1      11.923  14.500  29.183  0.00  0.00    +0.277 C 
ATOM     18  O1  UNL     1      12.837  14.950  30.177  0.00  0.00    -0.495 OA
ENDBRANCH   7  18
ENDBRANCH   1  16
BRANCH   5  19
ATOM     19  C14 UNL     1      18.217  11.608  36.519  0.00  0.00    +0.100 A 
ATOM     20  C15 UNL     1      18.663  10.451  37.135  0.00  0.00    +0.102 A 
ATOM     21  C16 UNL     1      18.025   9.711  38.267  0.00  0.00    +0.071 C 
ATOM     22  N3  UNL     1      19.787  10.038  36.516  0.00  0.00    -0.081 NA
ATOM     23  O3  UNL     1      20.024  10.875  35.544  0.00  0.00    -0.358 OA
ATOM     24  C17 UNL     1      19.113  11.820  35.496  0.00  0.00    +0.156 A 
ATOM     25  C18 UNL     1      19.073  12.912  34.478  0.00  0.00    +0.091 C 
ENDBRANCH   5  19
TORSDOF 3
ENDMDL
MODEL 9
REMARK VINA RESULT:    -5.470     14.520     16.744
REMARK INTER + INTRA:          -7.091
REMARK INTER:                  -6.527
REMARK INTRA:                  -0.564
REMARK UNBOUND:                -0.662
REMARK  Name = /home/qwerty/github/datacon2025hack/step_04_hit_selection/docking/ligands/lig_802.pdb
REMARK  7 active torsions:
REMARK  status: ('A' for Active; 'I' for Inactive)
REMARK    1  A    between atoms: C1_1  and  O1_2
REMARK    2  A    between atoms: O1_2  and  C2_3
REMARK    3  A    between atoms: C11_12  and  N1_13
REMARK    4  A    between atoms: N1_13  and  C12_14
REMARK    5  A    between atoms: N2_17  and  C14_18
REMARK    6  A    between atoms: C15_19  and  C16_20
REMARK    7  A    between atoms: C17_23  and  C18_24
REMARK                            x       y       z     vdW  Elec       q    Type
REMARK                         _______ _______ _______ _____ _____    ______ ____
ROOT
ATOM      1  N1  UNL     1      21.936   7.933  35.339  0.00  0.00    -0.281 N 
ATOM      2  C12 UNL     1      22.497   7.258  36.517  0.00  0.00    +0.134 C 
ATOM      3  C13 UNL     1      20.855   8.879  35.511  0.00  0.00    +0.307 C 
ATOM      4  O2  UNL     1      20.312   9.409  34.502  0.00  0.00    -0.252 OA
ATOM      5  N2  UNL     1      20.397   9.243  36.822  0.00  0.00    -0.265 N 
ATOM      6  H17 UNL     1      21.081   9.252  37.612  0.00  0.00    +0.157 HD
ENDROOT
BRANCH   1  16
ATOM      7  C2  UNL     1      21.681   3.466  32.939  0.00  0.00    +0.120 A 
ATOM      8  C3  UNL     1      20.703   4.245  33.561  0.00  0.00    +0.046 A 
ATOM      9  C4  UNL     1      20.963   5.570  33.905  0.00  0.00    +0.009 A 
ATOM     10  C5  UNL     1      22.220   6.145  33.649  0.00  0.00    -0.024 A 
ATOM     11  C6  UNL     1      23.201   5.379  32.973  0.00  0.00    -0.039 A 
ATOM     12  C7  UNL     1      22.932   4.039  32.648  0.00  0.00    +0.049 A 
ATOM     13  C8  UNL     1      24.567   5.942  32.665  0.00  0.00    +0.035 C 
ATOM     14  C9  UNL     1      24.565   7.470  32.614  0.00  0.00    +0.007 C 
ATOM     15  C10 UNL     1      23.930   8.034  33.884  0.00  0.00    +0.028 C 
ATOM     16  C11 UNL     1      22.451   7.611  33.991  0.00  0.00    +0.108 C 
BRANCH   7  18
ATOM     17  C1  UNL     1      20.941   1.689  31.343  0.00  0.00    +0.277 C 
ATOM     18  O1  UNL     1      21.371   2.134  32.624  0.00  0.00    -0.495 OA
ENDBRANCH   7  18
ENDBRANCH   1  16
BRANCH   5  19
ATOM     19  C14 UNL     1      19.085   9.765  37.071  0.00  0.00    +0.100 A 
ATOM     20  C15 UNL     1      18.625  11.059  36.904  0.00  0.00    +0.102 A 
ATOM     21  C16 UNL     1      19.404  12.260  36.472  0.00  0.00    +0.071 C 
ATOM     22  N3  UNL     1      17.301  11.083  37.156  0.00  0.00    -0.081 NA
ATOM     23  O3  UNL     1      16.940   9.862  37.442  0.00  0.00    -0.358 OA
ATOM     24  C17 UNL     1      17.962   9.039  37.394  0.00  0.00    +0.156 A 
ATOM     25  C18 UNL     1      17.880   7.567  37.632  0.00  0.00    +0.091 C 
ENDBRANCH   5  19
TORSDOF 3
ENDMDL
