REMARK  Name = /home/qwerty/github/datacon2025hack/step_04_hit_selection/docking/ligands/lig_462.pdb
REMARK  7 active torsions:
REMARK  status: ('A' for Active; 'I' for Inactive)
REMARK    1  A    between atoms: C1_1  and  C2_2
REMARK    2  A    between atoms: C2_2  and  N1_3
REMARK    3  A    between atoms: C2_2  and  C15_20
REMARK    4  A    between atoms: N2_6  and  C4_7
REMARK    5  A    between atoms: C10_14  and  C11_15
REMARK    6  A    between atoms: C10_14  and  C12_16
REMARK    7  A    between atoms: C14_18  and  O3_19
REMARK                            x       y       z     vdW  Elec       q    Type
REMARK                         _______ _______ _______ _____ _____    ______ ____
ROOT
ATOM      1  N1  UNL     1       2.095  -0.532   0.113  0.00  0.00    -0.293 N 
ATOM      2  C3  UNL     1       0.786  -0.952   0.522  0.00  0.00    +0.304 C 
ATOM      3  O1  UNL     1       0.244  -0.438   1.539  0.00  0.00    -0.252 OA
ATOM      4  N2  UNL     1       0.106  -1.978  -0.215  0.00  0.00    -0.266 N 
ATOM      5  H5  UNL     1       2.538  -1.033  -0.690  0.00  0.00    +0.151 HD
ATOM      6  H6  UNL     1       0.678  -2.617  -0.811  0.00  0.00    +0.156 HD
ENDROOT
BRANCH   4   7
ATOM      7  C4  UNL     1      -1.294  -2.259  -0.060  0.00  0.00    +0.077 A 
ATOM      8  C5  UNL     1      -1.719  -3.592   0.015  0.00  0.00    +0.027 A 
ATOM      9  C6  UNL     1      -3.075  -3.895   0.150  0.00  0.00    +0.002 A 
ATOM     10  C7  UNL     1      -4.020  -2.871   0.212  0.00  0.00    +0.010 A 
ATOM     11  C8  UNL     1      -3.618  -1.527   0.137  0.00  0.00    +0.025 A 
ATOM     12  C9  UNL     1      -2.252  -1.225  -0.047  0.00  0.00    +0.148 A 
ATOM     13  O2  UNL     1      -1.840   0.102  -0.229  0.00  0.00    -0.484 OA
ATOM     14  C10 UNL     1      -2.748   1.187  -0.425  0.00  0.00    +0.108 C 
ATOM     15  C11 UNL     1      -2.054   2.478   0.030  0.00  0.00    +0.055 C 
ATOM     16  C12 UNL     1      -3.086   1.297  -1.923  0.00  0.00    +0.055 C 
ATOM     17  C13 UNL     1      -4.020   0.955   0.424  0.00  0.00    +0.083 C 
ATOM     18  C14 UNL     1      -4.656  -0.424   0.158  0.00  0.00    +0.152 C 
BRANCH  18  19
ATOM     19  O3  UNL     1      -5.609  -0.693   1.154  0.00  0.00    -0.387 OA
ATOM     20  H19 UNL     1      -6.398  -0.123   0.957  0.00  0.00    +0.210 HD
ENDBRANCH  18  19
ENDBRANCH   4   7
BRANCH   1  22
ATOM     21  C1  UNL     1       2.157   1.919   0.366  0.00  0.00    +0.033 C 
ATOM     22  C2  UNL     1       2.798   0.582   0.759  0.00  0.00    +0.102 C 
BRANCH  22  23
ATOM     23  C15 UNL     1       4.272   0.566   0.402  0.00  0.00    -0.027 A 
ATOM     24  C16 UNL     1       4.692   0.677  -0.938  0.00  0.00    +0.005 A 
ATOM     25  C17 UNL     1       6.054   0.667  -1.255  0.00  0.00    +0.000 A 
ATOM     26  C18 UNL     1       7.009   0.548  -0.243  0.00  0.00    +0.000 A 
ATOM     27  C19 UNL     1       6.604   0.439   1.090  0.00  0.00    +0.000 A 
ATOM     28  C20 UNL     1       5.244   0.448   1.413  0.00  0.00    +0.005 A 
ENDBRANCH  22  23
ENDBRANCH   1  22
TORSDOF 4
