MODEL 1
REMARK VINA RESULT:    -6.448      0.000      0.000
REMARK INTER + INTRA:          -8.866
REMARK INTER:                  -7.955
REMARK INTRA:                  -0.911
REMARK UNBOUND:                -0.911
REMARK  Name = /home/qwerty/github/datacon2025hack/step_04_hit_selection/docking/ligands/lig_724.pdb
REMARK  7 active torsions:
REMARK  status: ('A' for Active; 'I' for Inactive)
REMARK    1  A    between atoms: C1_1  and  O1_2
REMARK    2  A    between atoms: O1_2  and  C2_3
REMARK    3  A    between atoms: C2_3  and  C3_5
REMARK    4  A    between atoms: C5_7  and  N1_8
REMARK    5  A    between atoms: C10_15  and  C11_16
REMARK    6  A    between atoms: C16_21  and  C17_22
REMARK    7  A    between atoms: C18_23  and  C19_24
REMARK                            x       y       z     vdW  Elec       q    Type
REMARK                         _______ _______ _______ _____ _____    ______ ____
ROOT
ATOM      1  N1  UNL     1      22.625   4.043  33.226  0.00  0.00    -0.269 N 
ATOM      2  C6  UNL     1      22.160   5.402  33.196  0.00  0.00    +0.307 C 
ATOM      3  O3  UNL     1      21.515   5.827  32.198  0.00  0.00    -0.252 OA
ATOM      4  N2  UNL     1      22.470   6.302  34.276  0.00  0.00    -0.278 N 
ATOM      5  C7  UNL     1      22.919   5.848  35.583  0.00  0.00    +0.110 C 
ATOM      6  C8  UNL     1      22.775   7.043  36.519  0.00  0.00    +0.021 C 
ATOM      7  C9  UNL     1      22.539   8.265  35.631  0.00  0.00    +0.029 C 
ATOM      8  C10 UNL     1      22.112   7.713  34.269  0.00  0.00    +0.108 C 
ATOM      9  H5  UNL     1      23.410   3.806  33.871  0.00  0.00    +0.156 HD
ENDROOT
BRANCH   8  10
ATOM     10  C11 UNL     1      22.735   8.481  33.105  0.00  0.00    -0.024 A 
ATOM     11  C12 UNL     1      24.141   8.515  33.034  0.00  0.00    +0.006 A 
ATOM     12  C13 UNL     1      24.794   9.191  32.004  0.00  0.00    +0.000 A 
ATOM     13  C14 UNL     1      24.056   9.842  31.020  0.00  0.00    +0.000 A 
ATOM     14  C15 UNL     1      22.663   9.811  31.055  0.00  0.00    +0.004 A 
ATOM     15  C16 UNL     1      21.981   9.123  32.077  0.00  0.00    -0.046 A 
ATOM     16  C17 UNL     1      20.474   9.142  32.054  0.00  0.00    +0.044 C 
ENDBRANCH   8  10
BRANCH   1  19
ATOM     17  C3  UNL     1      22.005   1.731  30.402  0.00  0.00    +0.098 A 
ATOM     18  C4  UNL     1      22.682   2.738  31.082  0.00  0.00    +0.046 A 
ATOM     19  C5  UNL     1      22.138   3.012  32.349  0.00  0.00    +0.046 A 
ATOM     20  C18 UNL     1      21.025   2.226  32.651  0.00  0.00    +0.009 A 
ATOM     21  C19 UNL     1      20.196   2.300  33.892  0.00  0.00    +0.053 C 
ATOM     22  S1  UNL     1      20.728   1.194  31.357  0.00  0.00    -0.085 S 
BRANCH  17  23
ATOM     23  C2  UNL     1      22.324   1.227  29.061  0.00  0.00    +0.346 C 
ATOM     24  O2  UNL     1      22.882   1.985  28.221  0.00  0.00    -0.244 OA
BRANCH  23  26
ATOM     25  C1  UNL     1      22.917  -1.169  28.909  0.00  0.00    +0.280 C 
ATOM     26  O1  UNL     1      22.006  -0.093  28.727  0.00  0.00    -0.464 OA
ENDBRANCH  23  26
ENDBRANCH  17  23
ENDBRANCH   1  19
TORSDOF 4
ENDMDL
MODEL 2
REMARK VINA RESULT:    -6.049      7.403     11.731
REMARK INTER + INTRA:          -8.374
REMARK INTER:                  -7.505
REMARK INTRA:                  -0.869
REMARK UNBOUND:                -0.911
REMARK  Name = /home/qwerty/github/datacon2025hack/step_04_hit_selection/docking/ligands/lig_724.pdb
REMARK  7 active torsions:
REMARK  status: ('A' for Active; 'I' for Inactive)
REMARK    1  A    between atoms: C1_1  and  O1_2
REMARK    2  A    between atoms: O1_2  and  C2_3
REMARK    3  A    between atoms: C2_3  and  C3_5
REMARK    4  A    between atoms: C5_7  and  N1_8
REMARK    5  A    between atoms: C10_15  and  C11_16
REMARK    6  A    between atoms: C16_21  and  C17_22
REMARK    7  A    between atoms: C18_23  and  C19_24
REMARK                            x       y       z     vdW  Elec       q    Type
REMARK                         _______ _______ _______ _____ _____    ______ ____
ROOT
ATOM      1  N1  UNL     1      19.128   0.024  24.750  0.00  0.00    -0.269 N 
ATOM      2  C6  UNL     1      17.718   0.300  24.734  0.00  0.00    +0.307 C 
ATOM      3  O3  UNL     1      17.202   1.006  25.643  0.00  0.00    -0.252 OA
ATOM      4  N2  UNL     1      16.877  -0.266  23.712  0.00  0.00    -0.278 N 
ATOM      5  C7  UNL     1      17.397  -0.817  22.470  0.00  0.00    +0.110 C 
ATOM      6  C8  UNL     1      16.200  -0.958  21.535  0.00  0.00    +0.021 C 
ATOM      7  C9  UNL     1      14.952  -0.776  22.398  0.00  0.00    +0.029 C 
ATOM      8  C10 UNL     1      15.430  -0.106  23.688  0.00  0.00    +0.108 C 
ATOM      9  H5  UNL     1      19.474  -0.800  24.210  0.00  0.00    +0.156 HD
ENDROOT
BRANCH   8  10
ATOM     10  C11 UNL     1      14.746  -0.670  24.930  0.00  0.00    -0.024 A 
ATOM     11  C12 UNL     1      14.878  -2.052  25.168  0.00  0.00    +0.006 A 
ATOM     12  C13 UNL     1      14.287  -2.651  26.280  0.00  0.00    +0.000 A 
ATOM     13  C14 UNL     1      13.558  -1.881  27.181  0.00  0.00    +0.000 A 
ATOM     14  C15 UNL     1      13.424  -0.508  26.980  0.00  0.00    +0.004 A 
ATOM     15  C16 UNL     1      14.023   0.121  25.874  0.00  0.00    -0.046 A 
ATOM     16  C17 UNL     1      13.827   1.608  25.718  0.00  0.00    +0.044 C 
ENDBRANCH   8  10
BRANCH   1  19
ATOM     17  C3  UNL     1      21.384   1.258  27.414  0.00  0.00    +0.098 A 
ATOM     18  C4  UNL     1      20.503   0.356  26.824  0.00  0.00    +0.046 A 
ATOM     19  C5  UNL     1      20.077   0.756  25.545  0.00  0.00    +0.046 A 
ATOM     20  C18 UNL     1      20.616   1.979  25.144  0.00  0.00    +0.009 A 
ATOM     21  C19 UNL     1      20.331   2.698  23.865  0.00  0.00    +0.053 C 
ATOM     22  S1  UNL     1      21.620   2.552  26.365  0.00  0.00    -0.085 S 
BRANCH  17  23
ATOM     23  C2  UNL     1      21.993   1.127  28.742  0.00  0.00    +0.346 C 
ATOM     24  O2  UNL     1      21.554   1.812  29.706  0.00  0.00    -0.244 OA
BRANCH  23  26
ATOM     25  C1  UNL     1      24.359   0.673  29.302  0.00  0.00    +0.280 C 
ATOM     26  O1  UNL     1      23.057   0.239  28.928  0.00  0.00    -0.464 OA
ENDBRANCH  23  26
ENDBRANCH  17  23
ENDBRANCH   1  19
TORSDOF 4
ENDMDL
MODEL 3
REMARK VINA RESULT:    -5.986     11.281     14.138
REMARK INTER + INTRA:          -8.296
REMARK INTER:                  -7.444
REMARK INTRA:                  -0.852
REMARK UNBOUND:                -0.911
REMARK  Name = /home/qwerty/github/datacon2025hack/step_04_hit_selection/docking/ligands/lig_724.pdb
REMARK  7 active torsions:
REMARK  status: ('A' for Active; 'I' for Inactive)
REMARK    1  A    between atoms: C1_1  and  O1_2
REMARK    2  A    between atoms: O1_2  and  C2_3
REMARK    3  A    between atoms: C2_3  and  C3_5
REMARK    4  A    between atoms: C5_7  and  N1_8
REMARK    5  A    between atoms: C10_15  and  C11_16
REMARK    6  A    between atoms: C16_21  and  C17_22
REMARK    7  A    between atoms: C18_23  and  C19_24
REMARK                            x       y       z     vdW  Elec       q    Type
REMARK                         _______ _______ _______ _____ _____    ______ ____
ROOT
ATOM      1  N1  UNL     1      12.282  14.289  32.787  0.00  0.00    -0.269 N 
ATOM      2  C6  UNL     1      12.857  13.217  33.552  0.00  0.00    +0.307 C 
ATOM      3  O3  UNL     1      12.778  12.030  33.133  0.00  0.00    -0.252 OA
ATOM      4  N2  UNL     1      13.481  13.482  34.822  0.00  0.00    -0.278 N 
ATOM      5  C7  UNL     1      13.899  14.812  35.239  0.00  0.00    +0.110 C 
ATOM      6  C8  UNL     1      14.824  14.609  36.435  0.00  0.00    +0.021 C 
ATOM      7  C9  UNL     1      14.654  13.155  36.874  0.00  0.00    +0.029 C 
ATOM      8  C10 UNL     1      14.000  12.436  35.691  0.00  0.00    +0.108 C 
ATOM      9  H5  UNL     1      12.066  15.184  33.280  0.00  0.00    +0.156 HD
ENDROOT
BRANCH   8  10
ATOM     10  C11 UNL     1      12.930  11.440  36.130  0.00  0.00    -0.024 A 
ATOM     11  C12 UNL     1      11.859  11.940  36.895  0.00  0.00    +0.006 A 
ATOM     12  C13 UNL     1      10.836  11.100  37.337  0.00  0.00    +0.000 A 
ATOM     13  C14 UNL     1      10.860   9.745  37.019  0.00  0.00    +0.000 A 
ATOM     14  C15 UNL     1      11.899   9.226  36.249  0.00  0.00    +0.004 A 
ATOM     15  C16 UNL     1      12.934  10.056  35.779  0.00  0.00    -0.046 A 
ATOM     16  C17 UNL     1      14.029   9.421  34.960  0.00  0.00    +0.044 C 
ENDBRANCH   8  10
BRANCH   1  19
ATOM     17  C3  UNL     1      10.512  13.662  29.596  0.00  0.00    +0.098 A 
ATOM     18  C4  UNL     1      10.624  13.750  30.981  0.00  0.00    +0.046 A 
ATOM     19  C5  UNL     1      11.897  14.169  31.407  0.00  0.00    +0.046 A 
ATOM     20  C18 UNL     1      12.783  14.395  30.352  0.00  0.00    +0.009 A 
ATOM     21  C19 UNL     1      14.215  14.805  30.467  0.00  0.00    +0.053 C 
ATOM     22  S1  UNL     1      11.986  14.085  28.903  0.00  0.00    -0.085 S 
BRANCH  17  23
ATOM     23  C2  UNL     1       9.319  13.245  28.851  0.00  0.00    +0.346 C 
ATOM     24  O2  UNL     1       8.635  12.265  29.254  0.00  0.00    -0.244 OA
BRANCH  23  26
ATOM     25  C1  UNL     1       7.593  14.193  27.354  0.00  0.00    +0.280 C 
ATOM     26  O1  UNL     1       8.950  13.942  27.696  0.00  0.00    -0.464 OA
ENDBRANCH  23  26
ENDBRANCH  17  23
ENDBRANCH   1  19
TORSDOF 4
ENDMDL
MODEL 4
REMARK VINA RESULT:    -5.764      2.466      4.047
REMARK INTER + INTRA:          -8.022
REMARK INTER:                  -7.142
REMARK INTRA:                  -0.880
REMARK UNBOUND:                -0.911
REMARK  Name = /home/qwerty/github/datacon2025hack/step_04_hit_selection/docking/ligands/lig_724.pdb
REMARK  7 active torsions:
REMARK  status: ('A' for Active; 'I' for Inactive)
REMARK    1  A    between atoms: C1_1  and  O1_2
REMARK    2  A    between atoms: O1_2  and  C2_3
REMARK    3  A    between atoms: C2_3  and  C3_5
REMARK    4  A    between atoms: C5_7  and  N1_8
REMARK    5  A    between atoms: C10_15  and  C11_16
REMARK    6  A    between atoms: C16_21  and  C17_22
REMARK    7  A    between atoms: C18_23  and  C19_24
REMARK                            x       y       z     vdW  Elec       q    Type
REMARK                         _______ _______ _______ _____ _____    ______ ____
ROOT
ATOM      1  N1  UNL     1      21.440   6.641  30.035  0.00  0.00    -0.269 N 
ATOM      2  C6  UNL     1      22.505   6.720  30.997  0.00  0.00    +0.307 C 
ATOM      3  O3  UNL     1      22.889   5.680  31.600  0.00  0.00    -0.252 OA
ATOM      4  N2  UNL     1      23.105   7.988  31.316  0.00  0.00    -0.278 N 
ATOM      5  C7  UNL     1      22.964   9.167  30.476  0.00  0.00    +0.110 C 
ATOM      6  C8  UNL     1      24.025  10.156  30.951  0.00  0.00    +0.021 C 
ATOM      7  C9  UNL     1      24.545   9.625  32.287  0.00  0.00    +0.029 C 
ATOM      8  C10 UNL     1      24.121   8.156  32.345  0.00  0.00    +0.108 C 
ATOM      9  H5  UNL     1      20.924   7.518  29.800  0.00  0.00    +0.156 HD
ENDROOT
BRANCH   8  10
ATOM     10  C11 UNL     1      23.640   7.740  33.733  0.00  0.00    -0.024 A 
ATOM     11  C12 UNL     1      22.554   8.451  34.279  0.00  0.00    +0.006 A 
ATOM     12  C13 UNL     1      22.048   8.136  35.540  0.00  0.00    +0.000 A 
ATOM     13  C14 UNL     1      22.612   7.101  36.279  0.00  0.00    +0.000 A 
ATOM     14  C15 UNL     1      23.678   6.369  35.757  0.00  0.00    +0.004 A 
ATOM     15  C16 UNL     1      24.195   6.658  34.481  0.00  0.00    -0.046 A 
ATOM     16  C17 UNL     1      25.354   5.829  33.987  0.00  0.00    +0.044 C 
ENDBRANCH   8  10
BRANCH   1  19
ATOM     17  C3  UNL     1      21.082   3.479  28.144  0.00  0.00    +0.098 A 
ATOM     18  C4  UNL     1      21.769   4.587  28.630  0.00  0.00    +0.046 A 
ATOM     19  C5  UNL     1      20.979   5.410  29.452  0.00  0.00    +0.046 A 
ATOM     20  C18 UNL     1      19.670   4.949  29.595  0.00  0.00    +0.009 A 
ATOM     21  C19 UNL     1      18.574   5.613  30.363  0.00  0.00    +0.053 C 
ATOM     22  S1  UNL     1      19.500   3.526  28.715  0.00  0.00    -0.085 S 
BRANCH  17  23
ATOM     23  C2  UNL     1      21.628   2.445  27.257  0.00  0.00    +0.346 C 
ATOM     24  O2  UNL     1      21.945   2.736  26.071  0.00  0.00    -0.244 OA
BRANCH  23  26
ATOM     25  C1  UNL     1      22.651   0.831  28.827  0.00  0.00    +0.280 C 
ATOM     26  O1  UNL     1      21.793   1.142  27.737  0.00  0.00    -0.464 OA
ENDBRANCH  23  26
ENDBRANCH  17  23
ENDBRANCH   1  19
TORSDOF 4
ENDMDL
MODEL 5
REMARK VINA RESULT:    -5.618      4.419      7.807
REMARK INTER + INTRA:          -7.843
REMARK INTER:                  -7.424
REMARK INTRA:                  -0.419
REMARK UNBOUND:                -0.911
REMARK  Name = /home/qwerty/github/datacon2025hack/step_04_hit_selection/docking/ligands/lig_724.pdb
REMARK  7 active torsions:
REMARK  status: ('A' for Active; 'I' for Inactive)
REMARK    1  A    between atoms: C1_1  and  O1_2
REMARK    2  A    between atoms: O1_2  and  C2_3
REMARK    3  A    between atoms: C2_3  and  C3_5
REMARK    4  A    between atoms: C5_7  and  N1_8
REMARK    5  A    between atoms: C10_15  and  C11_16
REMARK    6  A    between atoms: C16_21  and  C17_22
REMARK    7  A    between atoms: C18_23  and  C19_24
REMARK                            x       y       z     vdW  Elec       q    Type
REMARK                         _______ _______ _______ _____ _____    ______ ____
ROOT
ATOM      1  N1  UNL     1      19.884   7.498  34.803  0.00  0.00    -0.269 N 
ATOM      2  C6  UNL     1      21.302   7.466  34.573  0.00  0.00    +0.307 C 
ATOM      3  O3  UNL     1      22.033   8.400  35.003  0.00  0.00    -0.252 OA
ATOM      4  N2  UNL     1      21.892   6.398  33.809  0.00  0.00    -0.278 N 
ATOM      5  C7  UNL     1      21.211   5.140  33.546  0.00  0.00    +0.110 C 
ATOM      6  C8  UNL     1      22.282   4.173  33.052  0.00  0.00    +0.021 C 
ATOM      7  C9  UNL     1      23.518   5.017  32.739  0.00  0.00    +0.029 C 
ATOM      8  C10 UNL     1      23.305   6.351  33.459  0.00  0.00    +0.108 C 
ATOM      9  H5  UNL     1      19.272   6.922  34.182  0.00  0.00    +0.156 HD
ENDROOT
BRANCH   8  10
ATOM     10  C11 UNL     1      23.753   7.546  32.623  0.00  0.00    -0.024 A 
ATOM     11  C12 UNL     1      24.864   8.277  33.086  0.00  0.00    +0.006 A 
ATOM     12  C13 UNL     1      25.342   9.383  32.384  0.00  0.00    +0.000 A 
ATOM     13  C14 UNL     1      24.725   9.777  31.201  0.00  0.00    +0.000 A 
ATOM     14  C15 UNL     1      23.634   9.063  30.710  0.00  0.00    +0.004 A 
ATOM     15  C16 UNL     1      23.142   7.935  31.393  0.00  0.00    -0.046 A 
ATOM     16  C17 UNL     1      21.952   7.219  30.805  0.00  0.00    +0.044 C 
ENDBRANCH   8  10
BRANCH   1  19
ATOM     17  C3  UNL     1      18.303  10.309  36.620  0.00  0.00    +0.098 A 
ATOM     18  C4  UNL     1      18.842   9.670  35.507  0.00  0.00    +0.046 A 
ATOM     19  C5  UNL     1      19.250   8.350  35.771  0.00  0.00    +0.046 A 
ATOM     20  C18 UNL     1      19.041   7.965  37.096  0.00  0.00    +0.009 A 
ATOM     21  C19 UNL     1      19.402   6.650  37.706  0.00  0.00    +0.053 C 
ATOM     22  S1  UNL     1      18.346   9.252  37.928  0.00  0.00    -0.085 S 
BRANCH  17  23
ATOM     23  C2  UNL     1      17.800  11.687  36.666  0.00  0.00    +0.346 C 
ATOM     24  O2  UNL     1      18.573  12.648  36.405  0.00  0.00    -0.244 OA
BRANCH  23  26
ATOM     25  C1  UNL     1      15.854  13.199  36.869  0.00  0.00    +0.280 C 
ATOM     26  O1  UNL     1      16.462  11.921  36.999  0.00  0.00    -0.464 OA
ENDBRANCH  23  26
ENDBRANCH  17  23
ENDBRANCH   1  19
TORSDOF 4
ENDMDL
MODEL 6
REMARK VINA RESULT:    -5.603     14.080     15.826
REMARK INTER + INTRA:          -7.824
REMARK INTER:                  -6.855
REMARK INTRA:                  -0.969
REMARK UNBOUND:                -0.911
REMARK  Name = /home/qwerty/github/datacon2025hack/step_04_hit_selection/docking/ligands/lig_724.pdb
REMARK  7 active torsions:
REMARK  status: ('A' for Active; 'I' for Inactive)
REMARK    1  A    between atoms: C1_1  and  O1_2
REMARK    2  A    between atoms: O1_2  and  C2_3
REMARK    3  A    between atoms: C2_3  and  C3_5
REMARK    4  A    between atoms: C5_7  and  N1_8
REMARK    5  A    between atoms: C10_15  and  C11_16
REMARK    6  A    between atoms: C16_21  and  C17_22
REMARK    7  A    between atoms: C18_23  and  C19_24
REMARK                            x       y       z     vdW  Elec       q    Type
REMARK                         _______ _______ _______ _____ _____    ______ ____
ROOT
ATOM      1  N1  UNL     1      10.411   5.856  21.019  0.00  0.00    -0.269 N 
ATOM      2  C6  UNL     1      10.732   6.976  21.861  0.00  0.00    +0.307 C 
ATOM      3  O3  UNL     1      10.912   6.805  23.098  0.00  0.00    -0.252 OA
ATOM      4  N2  UNL     1      10.802   8.304  21.311  0.00  0.00    -0.278 N 
ATOM      5  C7  UNL     1      10.924   8.567  19.885  0.00  0.00    +0.110 C 
ATOM      6  C8  UNL     1      11.335  10.031  19.759  0.00  0.00    +0.021 C 
ATOM      7  C9  UNL     1      11.124  10.661  21.136  0.00  0.00    +0.029 C 
ATOM      8  C10 UNL     1      11.029   9.493  22.119  0.00  0.00    +0.108 C 
ATOM      9  H5  UNL     1       9.954   6.047  20.101  0.00  0.00    +0.156 HD
ENDROOT
BRANCH   8  10
ATOM     10  C11 UNL     1       9.954   9.708  23.182  0.00  0.00    -0.024 A 
ATOM     11  C12 UNL     1       8.622   9.817  22.738  0.00  0.00    +0.006 A 
ATOM     12  C13 UNL     1       7.577  10.013  23.640  0.00  0.00    +0.000 A 
ATOM     13  C14 UNL     1       7.839  10.096  25.004  0.00  0.00    +0.000 A 
ATOM     14  C15 UNL     1       9.146   9.975  25.473  0.00  0.00    +0.004 A 
ATOM     15  C16 UNL     1      10.216   9.763  24.584  0.00  0.00    -0.046 A 
ATOM     16  C17 UNL     1      11.603   9.651  25.165  0.00  0.00    +0.044 C 
ENDBRANCH   8  10
BRANCH   1  19
ATOM     17  C3  UNL     1      11.687   2.431  21.608  0.00  0.00    +0.098 A 
ATOM     18  C4  UNL     1      11.775   3.756  21.190  0.00  0.00    +0.046 A 
ATOM     19  C5  UNL     1      10.593   4.484  21.410  0.00  0.00    +0.046 A 
ATOM     20  C18 UNL     1       9.578   3.722  21.990  0.00  0.00    +0.009 A 
ATOM     21  C19 UNL     1       8.194   4.184  22.312  0.00  0.00    +0.053 C 
ATOM     22  S1  UNL     1      10.150   2.159  22.234  0.00  0.00    -0.085 S 
BRANCH  17  23
ATOM     23  C2  UNL     1      12.746   1.420  21.504  0.00  0.00    +0.346 C 
ATOM     24  O2  UNL     1      12.770   0.448  22.307  0.00  0.00    -0.244 OA
BRANCH  23  26
ATOM     25  C1  UNL     1      15.099   1.290  20.753  0.00  0.00    +0.280 C 
ATOM     26  O1  UNL     1      13.722   1.545  20.510  0.00  0.00    -0.464 OA
ENDBRANCH  23  26
ENDBRANCH  17  23
ENDBRANCH   1  19
TORSDOF 4
ENDMDL
MODEL 7
REMARK VINA RESULT:    -5.549      6.481      9.584
REMARK INTER + INTRA:          -7.758
REMARK INTER:                  -6.899
REMARK INTRA:                  -0.859
REMARK UNBOUND:                -0.911
REMARK  Name = /home/qwerty/github/datacon2025hack/step_04_hit_selection/docking/ligands/lig_724.pdb
REMARK  7 active torsions:
REMARK  status: ('A' for Active; 'I' for Inactive)
REMARK    1  A    between atoms: C1_1  and  O1_2
REMARK    2  A    between atoms: O1_2  and  C2_3
REMARK    3  A    between atoms: C2_3  and  C3_5
REMARK    4  A    between atoms: C5_7  and  N1_8
REMARK    5  A    between atoms: C10_15  and  C11_16
REMARK    6  A    between atoms: C16_21  and  C17_22
REMARK    7  A    between atoms: C18_23  and  C19_24
REMARK                            x       y       z     vdW  Elec       q    Type
REMARK                         _______ _______ _______ _____ _____    ______ ____
ROOT
ATOM      1  N1  UNL     1      18.535   2.362  25.006  0.00  0.00    -0.269 N 
ATOM      2  C6  UNL     1      19.537   1.745  25.831  0.00  0.00    +0.307 C 
ATOM      3  O3  UNL     1      19.346   0.588  26.298  0.00  0.00    -0.252 OA
ATOM      4  N2  UNL     1      20.739   2.458  26.174  0.00  0.00    -0.278 N 
ATOM      5  C7  UNL     1      21.194   3.638  25.454  0.00  0.00    +0.110 C 
ATOM      6  C8  UNL     1      22.646   3.854  25.872  0.00  0.00    +0.021 C 
ATOM      7  C9  UNL     1      22.886   2.958  27.086  0.00  0.00    +0.029 C 
ATOM      8  C10 UNL     1      21.751   1.932  27.079  0.00  0.00    +0.108 C 
ATOM      9  H5  UNL     1      18.552   3.401  24.907  0.00  0.00    +0.156 HD
ENDROOT
BRANCH   8  10
ATOM     10  C11 UNL     1      21.210   1.648  28.478  0.00  0.00    -0.024 A 
ATOM     11  C12 UNL     1      20.324   2.592  29.032  0.00  0.00    +0.006 A 
ATOM     12  C13 UNL     1      19.781   2.411  30.304  0.00  0.00    +0.000 A 
ATOM     13  C14 UNL     1      20.105   1.279  31.046  0.00  0.00    +0.000 A 
ATOM     14  C15 UNL     1      20.967   0.320  30.517  0.00  0.00    +0.004 A 
ATOM     15  C16 UNL     1      21.516   0.473  29.230  0.00  0.00    -0.046 A 
ATOM     16  C17 UNL     1      22.446  -0.603  28.729  0.00  0.00    +0.044 C 
ENDBRANCH   8  10
BRANCH   1  19
ATOM     17  C3  UNL     1      16.359   0.409  22.736  0.00  0.00    +0.098 A 
ATOM     18  C4  UNL     1      17.555   0.988  23.148  0.00  0.00    +0.046 A 
ATOM     19  C5  UNL     1      17.454   1.643  24.388  0.00  0.00    +0.046 A 
ATOM     20  C18 UNL     1      16.173   1.585  24.937  0.00  0.00    +0.009 A 
ATOM     21  C19 UNL     1      15.726   2.213  26.217  0.00  0.00    +0.053 C 
ATOM     22  S1  UNL     1      15.178   0.719  23.893  0.00  0.00    -0.085 S 
BRANCH  17  23
ATOM     23  C2  UNL     1      16.142  -0.332  21.488  0.00  0.00    +0.346 C 
ATOM     24  O2  UNL     1      16.193  -1.592  21.486  0.00  0.00    -0.244 OA
BRANCH  23  26
ATOM     25  C1  UNL     1      14.807   1.299  20.193  0.00  0.00    +0.280 C 
ATOM     26  O1  UNL     1      15.877   0.370  20.307  0.00  0.00    -0.464 OA
ENDBRANCH  23  26
ENDBRANCH  17  23
ENDBRANCH   1  19
TORSDOF 4
ENDMDL
MODEL 8
REMARK VINA RESULT:    -5.481     13.901     15.437
REMARK INTER + INTRA:          -7.674
REMARK INTER:                  -6.794
REMARK INTRA:                  -0.880
REMARK UNBOUND:                -0.911
REMARK  Name = /home/qwerty/github/datacon2025hack/step_04_hit_selection/docking/ligands/lig_724.pdb
REMARK  7 active torsions:
REMARK  status: ('A' for Active; 'I' for Inactive)
REMARK    1  A    between atoms: C1_1  and  O1_2
REMARK    2  A    between atoms: O1_2  and  C2_3
REMARK    3  A    between atoms: C2_3  and  C3_5
REMARK    4  A    between atoms: C5_7  and  N1_8
REMARK    5  A    between atoms: C10_15  and  C11_16
REMARK    6  A    between atoms: C16_21  and  C17_22
REMARK    7  A    between atoms: C18_23  and  C19_24
REMARK                            x       y       z     vdW  Elec       q    Type
REMARK                         _______ _______ _______ _____ _____    ______ ____
ROOT
ATOM      1  N1  UNL     1       9.358   8.208  25.930  0.00  0.00    -0.269 N 
ATOM      2  C6  UNL     1       8.939   9.504  26.386  0.00  0.00    +0.307 C 
ATOM      3  O3  UNL     1       9.049  10.507  25.627  0.00  0.00    -0.252 OA
ATOM      4  N2  UNL     1       8.440   9.680  27.724  0.00  0.00    -0.278 N 
ATOM      5  C7  UNL     1       7.985   8.574  28.553  0.00  0.00    +0.110 C 
ATOM      6  C8  UNL     1       7.210   9.201  29.708  0.00  0.00    +0.021 C 
ATOM      7  C9  UNL     1       7.519  10.698  29.676  0.00  0.00    +0.029 C 
ATOM      8  C10 UNL     1       8.086  10.977  28.283  0.00  0.00    +0.108 C 
ATOM      9  H5  UNL     1       9.568   7.479  26.647  0.00  0.00    +0.156 HD
ENDROOT
BRANCH   8  10
ATOM     10  C11 UNL     1       9.259  11.954  28.313  0.00  0.00    -0.024 A 
ATOM     11  C12 UNL     1      10.507  11.450  28.728  0.00  0.00    +0.006 A 
ATOM     12  C13 UNL     1      11.633  12.272  28.783  0.00  0.00    +0.000 A 
ATOM     13  C14 UNL     1      11.536  13.612  28.419  0.00  0.00    +0.000 A 
ATOM     14  C15 UNL     1      10.318  14.134  27.988  0.00  0.00    +0.004 A 
ATOM     15  C16 UNL     1       9.172  13.320  27.910  0.00  0.00    -0.046 A 
ATOM     16  C17 UNL     1       7.887  13.958  27.443  0.00  0.00    +0.044 C 
ENDBRANCH   8  10
BRANCH   1  19
ATOM     17  C3  UNL     1       9.136   7.016  22.432  0.00  0.00    +0.098 A 
ATOM     18  C4  UNL     1       8.649   7.277  23.709  0.00  0.00    +0.046 A 
ATOM     19  C5  UNL     1       9.598   7.885  24.550  0.00  0.00    +0.046 A 
ATOM     20  C18 UNL     1      10.832   8.086  23.930  0.00  0.00    +0.009 A 
ATOM     21  C19 UNL     1      12.057   8.667  24.557  0.00  0.00    +0.053 C 
ATOM     22  S1  UNL     1      10.739   7.521  22.348  0.00  0.00    -0.085 S 
BRANCH  17  23
ATOM     23  C2  UNL     1       8.393   6.383  21.336  0.00  0.00    +0.346 C 
ATOM     24  O2  UNL     1       7.255   6.818  21.013  0.00  0.00    -0.244 OA
BRANCH  23  26
ATOM     25  C1  UNL     1       9.303   4.083  21.311  0.00  0.00    +0.280 C 
ATOM     26  O1  UNL     1       8.958   5.298  20.658  0.00  0.00    -0.464 OA
ENDBRANCH  23  26
ENDBRANCH  17  23
ENDBRANCH   1  19
TORSDOF 4
ENDMDL
MODEL 9
REMARK VINA RESULT:    -5.467     11.727     14.328
REMARK INTER + INTRA:          -7.656
REMARK INTER:                  -6.685
REMARK INTRA:                  -0.971
REMARK UNBOUND:                -0.911
REMARK  Name = /home/qwerty/github/datacon2025hack/step_04_hit_selection/docking/ligands/lig_724.pdb
REMARK  7 active torsions:
REMARK  status: ('A' for Active; 'I' for Inactive)
REMARK    1  A    between atoms: C1_1  and  O1_2
REMARK    2  A    between atoms: O1_2  and  C2_3
REMARK    3  A    between atoms: C2_3  and  C3_5
REMARK    4  A    between atoms: C5_7  and  N1_8
REMARK    5  A    between atoms: C10_15  and  C11_16
REMARK    6  A    between atoms: C16_21  and  C17_22
REMARK    7  A    between atoms: C18_23  and  C19_24
REMARK                            x       y       z     vdW  Elec       q    Type
REMARK                         _______ _______ _______ _____ _____    ______ ____
ROOT
ATOM      1  N1  UNL     1      13.066  12.035  31.487  0.00  0.00    -0.269 N 
ATOM      2  C6  UNL     1      11.976  12.599  30.740  0.00  0.00    +0.307 C 
ATOM      3  O3  UNL     1      10.785  12.346  31.072  0.00  0.00    -0.252 OA
ATOM      4  N2  UNL     1      12.231  13.411  29.579  0.00  0.00    -0.278 N 
ATOM      5  C7  UNL     1      13.526  14.012  29.301  0.00  0.00    +0.110 C 
ATOM      6  C8  UNL     1      13.282  15.064  28.224  0.00  0.00    +0.021 C 
ATOM      7  C9  UNL     1      11.876  14.810  27.680  0.00  0.00    +0.029 C 
ATOM      8  C10 UNL     1      11.177  13.935  28.722  0.00  0.00    +0.108 C 
ATOM      9  H5  UNL     1      14.000  11.978  31.026  0.00  0.00    +0.156 HD
ENDROOT
BRANCH   8  10
ATOM     10  C11 UNL     1      10.322  12.840  28.090  0.00  0.00    -0.024 A 
ATOM     11  C12 UNL     1      10.978  11.907  27.264  0.00  0.00    +0.006 A 
ATOM     12  C13 UNL     1      10.274  10.872  26.647  0.00  0.00    +0.000 A 
ATOM     13  C14 UNL     1       8.903  10.745  26.847  0.00  0.00    +0.000 A 
ATOM     14  C15 UNL     1       8.231  11.645  27.673  0.00  0.00    +0.004 A 
ATOM     15  C16 UNL     1       8.921  12.688  28.318  0.00  0.00    -0.046 A 
ATOM     16  C17 UNL     1       8.125  13.627  29.189  0.00  0.00    +0.044 C 
ENDBRANCH   8  10
BRANCH   1  19
ATOM     17  C3  UNL     1      12.887  11.404  35.131  0.00  0.00    +0.098 A 
ATOM     18  C4  UNL     1      13.003  12.195  33.992  0.00  0.00    +0.046 A 
ATOM     19  C5  UNL     1      12.923  11.458  32.797  0.00  0.00    +0.046 A 
ATOM     20  C18 UNL     1      12.758  10.089  33.006  0.00  0.00    +0.009 A 
ATOM     21  C19 UNL     1      12.682   9.033  31.952  0.00  0.00    +0.053 C 
ATOM     22  S1  UNL     1      12.703   9.799  34.662  0.00  0.00    -0.085 S 
BRANCH  17  23
ATOM     23  C2  UNL     1      12.940  11.876  36.520  0.00  0.00    +0.346 C 
ATOM     24  O2  UNL     1      13.568  12.933  36.802  0.00  0.00    -0.244 OA
BRANCH  23  26
ATOM     25  C1  UNL     1      10.880  11.175  37.695  0.00  0.00    +0.280 C 
ATOM     26  O1  UNL     1      12.291  11.147  37.520  0.00  0.00    -0.464 OA
ENDBRANCH  23  26
ENDBRANCH  17  23
ENDBRANCH   1  19
TORSDOF 4
ENDMDL
