MODEL 1
REMARK VINA RESULT:    -7.001      0.000      0.000
REMARK INTER + INTRA:          -8.931
REMARK INTER:                  -8.229
REMARK INTRA:                  -0.701
REMARK UNBOUND:                -0.701
REMARK  Name = /home/qwerty/github/datacon2025hack/step_04_hit_selection/docking/ligands/lig_632.pdb
REMARK  4 active torsions:
REMARK  status: ('A' for Active; 'I' for Inactive)
REMARK    1  A    between atoms: C1_1  and  N1_2
REMARK    2  A    between atoms: C8_11  and  C9_12
REMARK    3  A    between atoms: C9_12  and  N4_13
REMARK    4  A    between atoms: C10_14  and  C11_16
REMARK                            x       y       z     vdW  Elec       q    Type
REMARK                         _______ _______ _______ _____ _____    ______ ____
ROOT
ATOM      1  N4  UNL     1       8.583   9.772  23.849  0.00  0.00    -0.307 N 
ATOM      2  C10 UNL     1       9.482   9.517  24.940  0.00  0.00    +0.247 C 
ATOM      3  O1  UNL     1      10.169   8.458  24.952  0.00  0.00    -0.270 OA
ATOM      4  H13 UNL     1       8.119  10.704  23.767  0.00  0.00    +0.149 HD
ENDROOT
BRANCH   2   5
ATOM      5  C11 UNL     1       9.643  10.497  26.039  0.00  0.00    +0.072 A 
ATOM      6  C12 UNL     1      10.863  11.175  26.184  0.00  0.00    +0.020 A 
ATOM      7  C13 UNL     1      11.053  12.099  27.223  0.00  0.00    -0.036 A 
ATOM      8  C14 UNL     1       9.996  12.371  28.117  0.00  0.00    +0.023 A 
ATOM      9  C15 UNL     1       8.783  11.679  27.981  0.00  0.00    +0.050 A 
ATOM     10  C16 UNL     1       8.606  10.746  26.956  0.00  0.00    +0.136 A 
ATOM     11  F1  UNL     1       7.439  10.056  26.896  0.00  0.00    -0.205 F 
ATOM     12  C17 UNL     1      10.191  13.357  29.207  0.00  0.00    +0.164 C 
ATOM     13  O2  UNL     1       9.250  13.621  30.005  0.00  0.00    -0.292 OA
ATOM     14  C18 UNL     1      11.489  14.103  29.336  0.00  0.00    +0.080 C 
ATOM     15  C19 UNL     1      12.651  13.287  28.759  0.00  0.00    +0.012 C 
ATOM     16  C20 UNL     1      12.357  12.856  27.318  0.00  0.00    +0.036 C 
ENDBRANCH   2   5
BRANCH   1  17
ATOM     17  C9  UNL     1       8.357   8.795  22.785  0.00  0.00    +0.143 C 
BRANCH  17  28
ATOM     18  C1  UNL     1      11.300   2.895  21.140  0.00  0.00    +0.105 C 
ATOM     19  N1  UNL     1      10.371   3.823  21.807  0.00  0.00    -0.302 NA
ATOM     20  C2  UNL     1       9.496   4.488  20.809  0.00  0.00    +0.103 C 
ATOM     21  C3  UNL     1       8.983   5.844  21.300  0.00  0.00    +0.122 C 
ATOM     22  N2  UNL     1      10.127   6.714  21.590  0.00  0.00    -0.312 N 
ATOM     23  C4  UNL     1      10.148   8.062  21.099  0.00  0.00    +0.126 A 
ATOM     24  N3  UNL     1      11.012   8.382  20.094  0.00  0.00    -0.240 NA
ATOM     25  C5  UNL     1      11.060   9.624  19.547  0.00  0.00    +0.113 A 
ATOM     26  C6  UNL     1      10.201  10.621  20.003  0.00  0.00    +0.020 A 
ATOM     27  C7  UNL     1       9.310  10.334  21.039  0.00  0.00    +0.010 A 
ATOM     28  C8  UNL     1       9.284   9.056  21.619  0.00  0.00    +0.010 A 
ATOM     29  C21 UNL     1      11.370   6.122  22.096  0.00  0.00    +0.122 C 
ATOM     30  C22 UNL     1      11.092   4.747  22.722  0.00  0.00    +0.103 C 
ENDBRANCH  17  28
ENDBRANCH   1  17
TORSDOF 3
ENDMDL
MODEL 2
REMARK VINA RESULT:    -6.974     12.117     14.223
REMARK INTER + INTRA:          -8.898
REMARK INTER:                  -8.581
REMARK INTRA:                  -0.317
REMARK UNBOUND:                -0.701
REMARK  Name = /home/qwerty/github/datacon2025hack/step_04_hit_selection/docking/ligands/lig_632.pdb
REMARK  4 active torsions:
REMARK  status: ('A' for Active; 'I' for Inactive)
REMARK    1  A    between atoms: C1_1  and  N1_2
REMARK    2  A    between atoms: C8_11  and  C9_12
REMARK    3  A    between atoms: C9_12  and  N4_13
REMARK    4  A    between atoms: C10_14  and  C11_16
REMARK                            x       y       z     vdW  Elec       q    Type
REMARK                         _______ _______ _______ _____ _____    ______ ____
ROOT
ATOM      1  N4  UNL     1      21.783   6.828  22.760  0.00  0.00    -0.307 N 
ATOM      2  C10 UNL     1      21.479   5.426  22.681  0.00  0.00    +0.247 C 
ATOM      3  O1  UNL     1      21.106   4.927  21.583  0.00  0.00    -0.270 OA
ATOM      4  H13 UNL     1      22.220   7.215  23.625  0.00  0.00    +0.149 HD
ENDROOT
BRANCH   2   5
ATOM      5  C11 UNL     1      21.629   4.546  23.862  0.00  0.00    +0.072 A 
ATOM      6  C12 UNL     1      20.796   3.425  23.997  0.00  0.00    +0.020 A 
ATOM      7  C13 UNL     1      20.903   2.579  25.111  0.00  0.00    -0.036 A 
ATOM      8  C14 UNL     1      21.878   2.843  26.096  0.00  0.00    +0.023 A 
ATOM      9  C15 UNL     1      22.699   3.974  25.968  0.00  0.00    +0.050 A 
ATOM     10  C16 UNL     1      22.575   4.823  24.866  0.00  0.00    +0.136 A 
ATOM     11  F1  UNL     1      23.347   5.938  24.812  0.00  0.00    -0.205 F 
ATOM     12  C17 UNL     1      22.002   1.942  27.267  0.00  0.00    +0.164 C 
ATOM     13  O2  UNL     1      22.879   2.156  28.149  0.00  0.00    -0.292 OA
ATOM     14  C18 UNL     1      21.127   0.725  27.388  0.00  0.00    +0.080 C 
ATOM     15  C19 UNL     1      19.797   0.929  26.655  0.00  0.00    +0.012 C 
ATOM     16  C20 UNL     1      20.032   1.348  25.199  0.00  0.00    +0.036 C 
ENDBRANCH   2   5
BRANCH   1  17
ATOM     17  C9  UNL     1      21.582   7.731  21.627  0.00  0.00    +0.143 C 
BRANCH  17  28
ATOM     18  C1  UNL     1      20.326  13.929  19.140  0.00  0.00    +0.105 C 
ATOM     19  N1  UNL     1      20.071  12.650  19.825  0.00  0.00    -0.302 NA
ATOM     20  C2  UNL     1      20.933  12.523  21.026  0.00  0.00    +0.103 C 
ATOM     21  C3  UNL     1      21.188  11.063  21.405  0.00  0.00    +0.122 C 
ATOM     22  N2  UNL     1      21.831  10.380  20.279  0.00  0.00    -0.312 N 
ATOM     23  C4  UNL     1      22.988   9.560  20.501  0.00  0.00    +0.126 A 
ATOM     24  N3  UNL     1      24.200  10.001  20.060  0.00  0.00    -0.240 NA
ATOM     25  C5  UNL     1      25.347   9.304  20.270  0.00  0.00    +0.113 A 
ATOM     26  C6  UNL     1      25.311   8.099  20.967  0.00  0.00    +0.020 A 
ATOM     27  C7  UNL     1      24.087   7.609  21.424  0.00  0.00    +0.010 A 
ATOM     28  C8  UNL     1      22.901   8.321  21.179  0.00  0.00    +0.010 A 
ATOM     29  C21 UNL     1      21.496  10.781  18.909  0.00  0.00    +0.122 C 
ATOM     30  C22 UNL     1      20.141  11.505  18.878  0.00  0.00    +0.103 C 
ENDBRANCH  17  28
ENDBRANCH   1  17
TORSDOF 3
ENDMDL
MODEL 3
REMARK VINA RESULT:    -6.820      6.878      9.788
REMARK INTER + INTRA:          -8.718
REMARK INTER:                  -8.090
REMARK INTRA:                  -0.628
REMARK UNBOUND:                -0.701
REMARK  Name = /home/qwerty/github/datacon2025hack/step_04_hit_selection/docking/ligands/lig_632.pdb
REMARK  4 active torsions:
REMARK  status: ('A' for Active; 'I' for Inactive)
REMARK    1  A    between atoms: C1_1  and  N1_2
REMARK    2  A    between atoms: C8_11  and  C9_12
REMARK    3  A    between atoms: C9_12  and  N4_13
REMARK    4  A    between atoms: C10_14  and  C11_16
REMARK                            x       y       z     vdW  Elec       q    Type
REMARK                         _______ _______ _______ _____ _____    ______ ____
ROOT
ATOM      1  N4  UNL     1      14.225   2.972  20.501  0.00  0.00    -0.307 N 
ATOM      2  C10 UNL     1      13.107   2.155  20.887  0.00  0.00    +0.247 C 
ATOM      3  O1  UNL     1      13.250   0.905  20.987  0.00  0.00    -0.270 OA
ATOM      4  H13 UNL     1      14.148   4.012  20.550  0.00  0.00    +0.149 HD
ENDROOT
BRANCH   2   5
ATOM      5  C11 UNL     1      11.795   2.762  21.204  0.00  0.00    +0.072 A 
ATOM      6  C12 UNL     1      11.462   4.010  20.655  0.00  0.00    +0.020 A 
ATOM      7  C13 UNL     1      10.232   4.619  20.947  0.00  0.00    -0.036 A 
ATOM      8  C14 UNL     1       9.306   3.958  21.782  0.00  0.00    +0.023 A 
ATOM      9  C15 UNL     1       9.648   2.718  22.344  0.00  0.00    +0.050 A 
ATOM     10  C16 UNL     1      10.882   2.125  22.064  0.00  0.00    +0.136 A 
ATOM     11  F1  UNL     1      11.196   0.955  22.675  0.00  0.00    -0.205 F 
ATOM     12  C17 UNL     1       8.001   4.594  22.080  0.00  0.00    +0.164 C 
ATOM     13  O2  UNL     1       7.156   4.007  22.812  0.00  0.00    -0.292 OA
ATOM     14  C18 UNL     1       7.639   5.915  21.462  0.00  0.00    +0.080 C 
ATOM     15  C19 UNL     1       8.893   6.739  21.151  0.00  0.00    +0.012 C 
ATOM     16  C20 UNL     1       9.878   5.935  20.295  0.00  0.00    +0.036 C 
ENDBRANCH   2   5
BRANCH   1  17
ATOM     17  C9  UNL     1      15.513   2.394  20.120  0.00  0.00    +0.143 C 
BRANCH  17  28
ATOM     18  C1  UNL     1      16.142  -2.643  24.638  0.00  0.00    +0.105 C 
ATOM     19  N1  UNL     1      15.693  -1.940  23.424  0.00  0.00    -0.302 NA
ATOM     20  C2  UNL     1      16.852  -1.607  22.559  0.00  0.00    +0.103 C 
ATOM     21  C3  UNL     1      16.578  -0.398  21.662  0.00  0.00    +0.122 C 
ATOM     22  N2  UNL     1      16.258   0.760  22.502  0.00  0.00    -0.312 N 
ATOM     23  C4  UNL     1      16.891   2.024  22.254  0.00  0.00    +0.126 A 
ATOM     24  N3  UNL     1      17.820   2.478  23.142  0.00  0.00    -0.240 NA
ATOM     25  C5  UNL     1      18.494   3.643  22.956  0.00  0.00    +0.113 A 
ATOM     26  C6  UNL     1      18.253   4.413  21.821  0.00  0.00    +0.020 A 
ATOM     27  C7  UNL     1      17.300   3.986  20.895  0.00  0.00    +0.010 A 
ATOM     28  C8  UNL     1      16.587   2.795  21.107  0.00  0.00    +0.010 A 
ATOM     29  C21 UNL     1      15.551   0.555  23.770  0.00  0.00    +0.122 C 
ATOM     30  C22 UNL     1      14.810  -0.791  23.758  0.00  0.00    +0.103 C 
ENDBRANCH  17  28
ENDBRANCH   1  17
TORSDOF 3
ENDMDL
MODEL 4
REMARK VINA RESULT:    -6.816      5.583      9.365
REMARK INTER + INTRA:          -8.712
REMARK INTER:                  -8.202
REMARK INTRA:                  -0.510
REMARK UNBOUND:                -0.701
REMARK  Name = /home/qwerty/github/datacon2025hack/step_04_hit_selection/docking/ligands/lig_632.pdb
REMARK  4 active torsions:
REMARK  status: ('A' for Active; 'I' for Inactive)
REMARK    1  A    between atoms: C1_1  and  N1_2
REMARK    2  A    between atoms: C8_11  and  C9_12
REMARK    3  A    between atoms: C9_12  and  N4_13
REMARK    4  A    between atoms: C10_14  and  C11_16
REMARK                            x       y       z     vdW  Elec       q    Type
REMARK                         _______ _______ _______ _____ _____    ______ ____
ROOT
ATOM      1  N4  UNL     1      10.003  13.023  28.053  0.00  0.00    -0.307 N 
ATOM      2  C10 UNL     1       8.672  12.599  28.389  0.00  0.00    +0.247 C 
ATOM      3  O1  UNL     1       7.820  13.450  28.764  0.00  0.00    -0.270 OA
ATOM      4  H13 UNL     1      10.667  12.348  27.614  0.00  0.00    +0.149 HD
ENDROOT
BRANCH   2   5
ATOM      5  C11 UNL     1       8.274  11.178  28.268  0.00  0.00    +0.072 A 
ATOM      6  C12 UNL     1       7.859  10.479  29.413  0.00  0.00    +0.020 A 
ATOM      7  C13 UNL     1       7.488   9.129  29.336  0.00  0.00    -0.036 A 
ATOM      8  C14 UNL     1       7.505   8.470  28.088  0.00  0.00    +0.023 A 
ATOM      9  C15 UNL     1       7.935   9.166  26.947  0.00  0.00    +0.050 A 
ATOM     10  C16 UNL     1       8.322  10.506  27.034  0.00  0.00    +0.136 A 
ATOM     11  F1  UNL     1       8.788  11.123  25.919  0.00  0.00    -0.205 F 
ATOM     12  C17 UNL     1       7.100   7.047  28.002  0.00  0.00    +0.164 C 
ATOM     13  O2  UNL     1       7.095   6.449  26.890  0.00  0.00    -0.292 OA
ATOM     14  C18 UNL     1       6.627   6.315  29.227  0.00  0.00    +0.080 C 
ATOM     15  C19 UNL     1       7.245   6.910  30.496  0.00  0.00    +0.012 C 
ATOM     16  C20 UNL     1       6.992   8.420  30.574  0.00  0.00    +0.036 C 
ENDBRANCH   2   5
BRANCH   1  17
ATOM     17  C9  UNL     1      10.443  14.408  28.223  0.00  0.00    +0.143 C 
BRANCH  17  28
ATOM     18  C1  UNL     1      12.522  13.021  34.543  0.00  0.00    +0.105 C 
ATOM     19  N1  UNL     1      11.600  13.151  33.402  0.00  0.00    -0.302 NA
ATOM     20  C2  UNL     1      12.004  12.242  32.300  0.00  0.00    +0.103 C 
ATOM     21  C3  UNL     1      11.530  12.740  30.934  0.00  0.00    +0.122 C 
ATOM     22  N2  UNL     1      12.091  14.072  30.687  0.00  0.00    -0.312 N 
ATOM     23  C4  UNL     1      12.710  14.369  29.426  0.00  0.00    +0.126 A 
ATOM     24  N3  UNL     1      14.064  14.522  29.380  0.00  0.00    -0.240 NA
ATOM     25  C5  UNL     1      14.728  14.761  28.219  0.00  0.00    +0.113 A 
ATOM     26  C6  UNL     1      14.025  14.846  27.020  0.00  0.00    +0.020 A 
ATOM     27  C7  UNL     1      12.637  14.706  27.029  0.00  0.00    +0.010 A 
ATOM     28  C8  UNL     1      11.953  14.487  28.236  0.00  0.00    +0.010 A 
ATOM     29  C21 UNL     1      12.304  14.983  31.816  0.00  0.00    +0.122 C 
ATOM     30  C22 UNL     1      11.424  14.574  33.007  0.00  0.00    +0.103 C 
ENDBRANCH  17  28
ENDBRANCH   1  17
TORSDOF 3
ENDMDL
MODEL 5
REMARK VINA RESULT:    -6.795      4.565      9.638
REMARK INTER + INTRA:          -8.688
REMARK INTER:                  -8.038
REMARK INTRA:                  -0.650
REMARK UNBOUND:                -0.701
REMARK  Name = /home/qwerty/github/datacon2025hack/step_04_hit_selection/docking/ligands/lig_632.pdb
REMARK  4 active torsions:
REMARK  status: ('A' for Active; 'I' for Inactive)
REMARK    1  A    between atoms: C1_1  and  N1_2
REMARK    2  A    between atoms: C8_11  and  C9_12
REMARK    3  A    between atoms: C9_12  and  N4_13
REMARK    4  A    between atoms: C10_14  and  C11_16
REMARK                            x       y       z     vdW  Elec       q    Type
REMARK                         _______ _______ _______ _____ _____    ______ ____
ROOT
ATOM      1  N4  UNL     1       9.095  11.948  29.195  0.00  0.00    -0.307 N 
ATOM      2  C10 UNL     1       8.396  11.605  27.987  0.00  0.00    +0.247 C 
ATOM      3  O1  UNL     1       7.954  12.520  27.238  0.00  0.00    -0.270 OA
ATOM      4  H13 UNL     1       9.578  11.202  29.743  0.00  0.00    +0.149 HD
ENDROOT
BRANCH   2   5
ATOM      5  C11 UNL     1       8.214  10.191  27.588  0.00  0.00    +0.072 A 
ATOM      6  C12 UNL     1       8.830   9.721  26.417  0.00  0.00    +0.020 A 
ATOM      7  C13 UNL     1       8.666   8.390  26.004  0.00  0.00    -0.036 A 
ATOM      8  C14 UNL     1       7.894   7.506  26.787  0.00  0.00    +0.023 A 
ATOM      9  C15 UNL     1       7.266   7.982  27.947  0.00  0.00    +0.050 A 
ATOM     10  C16 UNL     1       7.417   9.313  28.345  0.00  0.00    +0.136 A 
ATOM     11  F1  UNL     1       6.744   9.747  29.440  0.00  0.00    -0.205 F 
ATOM     12  C17 UNL     1       7.732   6.096  26.358  0.00  0.00    +0.164 C 
ATOM     13  O2  UNL     1       7.058   5.289  27.056  0.00  0.00    -0.292 OA
ATOM     14  C18 UNL     1       8.421   5.592  25.121  0.00  0.00    +0.080 C 
ATOM     15  C19 UNL     1       8.648   6.727  24.117  0.00  0.00    +0.012 C 
ATOM     16  C20 UNL     1       9.388   7.898  24.771  0.00  0.00    +0.036 C 
ENDBRANCH   2   5
BRANCH   1  17
ATOM     17  C9  UNL     1       9.234  13.332  29.646  0.00  0.00    +0.143 C 
BRANCH  17  28
ATOM     18  C1  UNL     1      12.917  12.982  35.347  0.00  0.00    +0.105 C 
ATOM     19  N1  UNL     1      11.780  12.768  34.435  0.00  0.00    -0.302 NA
ATOM     20  C2  UNL     1      12.198  11.960  33.263  0.00  0.00    +0.103 C 
ATOM     21  C3  UNL     1      11.319  12.217  32.037  0.00  0.00    +0.122 C 
ATOM     22  N2  UNL     1      11.386  13.639  31.688  0.00  0.00    -0.312 N 
ATOM     23  C4  UNL     1      11.607  14.035  30.326  0.00  0.00    +0.126 A 
ATOM     24  N3  UNL     1      12.809  14.581  29.988  0.00  0.00    -0.240 NA
ATOM     25  C5  UNL     1      13.110  14.941  28.713  0.00  0.00    +0.113 A 
ATOM     26  C6  UNL     1      12.178  14.746  27.696  0.00  0.00    +0.020 A 
ATOM     27  C7  UNL     1      10.932  14.200  28.006  0.00  0.00    +0.010 A 
ATOM     28  C8  UNL     1      10.617  13.857  29.331  0.00  0.00    +0.010 A 
ATOM     29  C21 UNL     1      11.547  14.634  32.753  0.00  0.00    +0.122 C 
ATOM     30  C22 UNL     1      11.103  14.050  34.103  0.00  0.00    +0.103 C 
ENDBRANCH  17  28
ENDBRANCH   1  17
TORSDOF 3
ENDMDL
MODEL 6
REMARK VINA RESULT:    -6.766     13.152     16.578
REMARK INTER + INTRA:          -8.653
REMARK INTER:                  -7.993
REMARK INTRA:                  -0.661
REMARK UNBOUND:                -0.701
REMARK  Name = /home/qwerty/github/datacon2025hack/step_04_hit_selection/docking/ligands/lig_632.pdb
REMARK  4 active torsions:
REMARK  status: ('A' for Active; 'I' for Inactive)
REMARK    1  A    between atoms: C1_1  and  N1_2
REMARK    2  A    between atoms: C8_11  and  C9_12
REMARK    3  A    between atoms: C9_12  and  N4_13
REMARK    4  A    between atoms: C10_14  and  C11_16
REMARK                            x       y       z     vdW  Elec       q    Type
REMARK                         _______ _______ _______ _____ _____    ______ ____
ROOT
ATOM      1  N4  UNL     1      21.376   2.755  31.705  0.00  0.00    -0.307 N 
ATOM      2  C10 UNL     1      20.850   1.516  31.203  0.00  0.00    +0.247 C 
ATOM      3  O1  UNL     1      20.680   0.543  31.989  0.00  0.00    -0.270 OA
ATOM      4  H13 UNL     1      21.389   3.599  31.091  0.00  0.00    +0.149 HD
ENDROOT
BRANCH   2   5
ATOM      5  C11 UNL     1      20.469   1.372  29.780  0.00  0.00    +0.072 A 
ATOM      6  C12 UNL     1      19.111   1.348  29.428  0.00  0.00    +0.020 A 
ATOM      7  C13 UNL     1      18.717   1.199  28.090  0.00  0.00    -0.036 A 
ATOM      8  C14 UNL     1      19.697   1.099  27.080  0.00  0.00    +0.023 A 
ATOM      9  C15 UNL     1      21.055   1.107  27.435  0.00  0.00    +0.050 A 
ATOM     10  C16 UNL     1      21.441   1.237  28.771  0.00  0.00    +0.136 A 
ATOM     11  F1  UNL     1      22.762   1.179  29.077  0.00  0.00    -0.205 F 
ATOM     12  C17 UNL     1      19.282   0.956  25.664  0.00  0.00    +0.164 C 
ATOM     13  O2  UNL     1      20.148   0.881  24.749  0.00  0.00    -0.292 OA
ATOM     14  C18 UNL     1      17.825   0.963  25.294  0.00  0.00    +0.080 C 
ATOM     15  C19 UNL     1      16.961   0.452  26.451  0.00  0.00    +0.012 C 
ATOM     16  C20 UNL     1      17.248   1.235  27.737  0.00  0.00    +0.036 C 
ENDBRANCH   2   5
BRANCH   1  17
ATOM     17  C9  UNL     1      21.820   2.905  33.091  0.00  0.00    +0.143 C 
BRANCH  17  28
ATOM     18  C1  UNL     1      24.875   8.968  32.790  0.00  0.00    +0.105 C 
ATOM     19  N1  UNL     1      24.618   7.548  32.497  0.00  0.00    -0.302 NA
ATOM     20  C2  UNL     1      23.292   7.382  31.850  0.00  0.00    +0.103 C 
ATOM     21  C3  UNL     1      22.703   5.990  32.083  0.00  0.00    +0.122 C 
ATOM     22  N2  UNL     1      22.566   5.760  33.525  0.00  0.00    -0.312 N 
ATOM     23  C4  UNL     1      21.341   5.235  34.056  0.00  0.00    +0.126 A 
ATOM     24  N3  UNL     1      20.536   6.058  34.786  0.00  0.00    -0.240 NA
ATOM     25  C5  UNL     1      19.341   5.648  35.286  0.00  0.00    +0.113 A 
ATOM     26  C6  UNL     1      18.895   4.350  35.048  0.00  0.00    +0.020 A 
ATOM     27  C7  UNL     1      19.697   3.475  34.313  0.00  0.00    +0.010 A 
ATOM     28  C8  UNL     1      20.944   3.897  33.824  0.00  0.00    +0.010 A 
ATOM     29  C21 UNL     1      23.542   6.356  34.443  0.00  0.00    +0.122 C 
ATOM     30  C22 UNL     1      24.841   6.698  33.696  0.00  0.00    +0.103 C 
ENDBRANCH  17  28
ENDBRANCH   1  17
TORSDOF 3
ENDMDL
MODEL 7
REMARK VINA RESULT:    -6.709     13.327     15.337
REMARK INTER + INTRA:          -8.586
REMARK INTER:                  -7.844
REMARK INTRA:                  -0.742
REMARK UNBOUND:                -0.701
REMARK  Name = /home/qwerty/github/datacon2025hack/step_04_hit_selection/docking/ligands/lig_632.pdb
REMARK  4 active torsions:
REMARK  status: ('A' for Active; 'I' for Inactive)
REMARK    1  A    between atoms: C1_1  and  N1_2
REMARK    2  A    between atoms: C8_11  and  C9_12
REMARK    3  A    between atoms: C9_12  and  N4_13
REMARK    4  A    between atoms: C10_14  and  C11_16
REMARK                            x       y       z     vdW  Elec       q    Type
REMARK                         _______ _______ _______ _____ _____    ______ ____
ROOT
ATOM      1  N4  UNL     1      18.503   8.946  37.727  0.00  0.00    -0.307 N 
ATOM      2  C10 UNL     1      18.287   9.806  36.596  0.00  0.00    +0.247 C 
ATOM      3  O1  UNL     1      19.026   9.699  35.578  0.00  0.00    -0.270 OA
ATOM      4  H13 UNL     1      17.813   8.938  38.511  0.00  0.00    +0.149 HD
ENDROOT
BRANCH   2   5
ATOM      5  C11 UNL     1      17.186  10.795  36.591  0.00  0.00    +0.072 A 
ATOM      6  C12 UNL     1      15.858  10.349  36.502  0.00  0.00    +0.020 A 
ATOM      7  C13 UNL     1      14.792  11.261  36.481  0.00  0.00    -0.036 A 
ATOM      8  C14 UNL     1      15.055  12.644  36.578  0.00  0.00    +0.023 A 
ATOM      9  C15 UNL     1      16.384  13.089  36.650  0.00  0.00    +0.050 A 
ATOM     10  C16 UNL     1      17.442  12.177  36.651  0.00  0.00    +0.136 A 
ATOM     11  F1  UNL     1      18.713  12.653  36.662  0.00  0.00    -0.205 F 
ATOM     12  C17 UNL     1      13.929  13.608  36.569  0.00  0.00    +0.164 C 
ATOM     13  O2  UNL     1      14.148  14.847  36.671  0.00  0.00    -0.292 OA
ATOM     14  C18 UNL     1      12.509  13.120  36.506  0.00  0.00    +0.080 C 
ATOM     15  C19 UNL     1      12.425  11.764  35.797  0.00  0.00    +0.012 C 
ATOM     16  C20 UNL     1      13.372  10.747  36.443  0.00  0.00    +0.036 C 
ENDBRANCH   2   5
BRANCH   1  17
ATOM     17  C9  UNL     1      19.621   8.006  37.785  0.00  0.00    +0.143 C 
BRANCH  17  28
ATOM     18  C1  UNL     1      24.488   6.876  33.179  0.00  0.00    +0.105 C 
ATOM     19  N1  UNL     1      23.802   7.504  34.321  0.00  0.00    -0.302 NA
ATOM     20  C2  UNL     1      23.615   6.523  35.418  0.00  0.00    +0.103 C 
ATOM     21  C3  UNL     1      22.427   6.876  36.316  0.00  0.00    +0.122 C 
ATOM     22  N2  UNL     1      21.208   6.925  35.503  0.00  0.00    -0.312 N 
ATOM     23  C4  UNL     1      20.019   6.257  35.949  0.00  0.00    +0.126 A 
ATOM     24  N3  UNL     1      19.612   5.134  35.293  0.00  0.00    -0.240 NA
ATOM     25  C5  UNL     1      18.522   4.421  35.681  0.00  0.00    +0.113 A 
ATOM     26  C6  UNL     1      17.785   4.825  36.791  0.00  0.00    +0.020 A 
ATOM     27  C7  UNL     1      18.164   5.977  37.481  0.00  0.00    +0.010 A 
ATOM     28  C8  UNL     1      19.275   6.725  37.058  0.00  0.00    +0.010 A 
ATOM     29  C21 UNL     1      21.292   7.374  34.109  0.00  0.00    +0.122 C 
ATOM     30  C22 UNL     1      22.564   8.207  33.890  0.00  0.00    +0.103 C 
ENDBRANCH  17  28
ENDBRANCH   1  17
TORSDOF 3
ENDMDL
MODEL 8
REMARK VINA RESULT:    -6.640     13.383     17.035
REMARK INTER + INTRA:          -8.506
REMARK INTER:                  -7.865
REMARK INTRA:                  -0.641
REMARK UNBOUND:                -0.701
REMARK  Name = /home/qwerty/github/datacon2025hack/step_04_hit_selection/docking/ligands/lig_632.pdb
REMARK  4 active torsions:
REMARK  status: ('A' for Active; 'I' for Inactive)
REMARK    1  A    between atoms: C1_1  and  N1_2
REMARK    2  A    between atoms: C8_11  and  C9_12
REMARK    3  A    between atoms: C9_12  and  N4_13
REMARK    4  A    between atoms: C10_14  and  C11_16
REMARK                            x       y       z     vdW  Elec       q    Type
REMARK                         _______ _______ _______ _____ _____    ______ ____
ROOT
ATOM      1  N4  UNL     1      21.180   6.263  33.041  0.00  0.00    -0.307 N 
ATOM      2  C10 UNL     1      22.119   5.886  32.020  0.00  0.00    +0.247 C 
ATOM      3  O1  UNL     1      23.104   6.634  31.768  0.00  0.00    -0.270 OA
ATOM      4  H13 UNL     1      20.446   5.586  33.345  0.00  0.00    +0.149 HD
ENDROOT
BRANCH   2   5
ATOM      5  C11 UNL     1      21.968   4.613  31.280  0.00  0.00    +0.072 A 
ATOM      6  C12 UNL     1      21.565   4.641  29.935  0.00  0.00    +0.020 A 
ATOM      7  C13 UNL     1      21.399   3.452  29.210  0.00  0.00    -0.036 A 
ATOM      8  C14 UNL     1      21.666   2.213  29.829  0.00  0.00    +0.023 A 
ATOM      9  C15 UNL     1      22.052   2.186  31.178  0.00  0.00    +0.050 A 
ATOM     10  C16 UNL     1      22.198   3.372  31.901  0.00  0.00    +0.136 A 
ATOM     11  F1  UNL     1      22.514   3.298  33.219  0.00  0.00    -0.205 F 
ATOM     12  C17 UNL     1      21.504   0.956  29.059  0.00  0.00    +0.164 C 
ATOM     13  O2  UNL     1      21.754  -0.159  29.596  0.00  0.00    -0.292 OA
ATOM     14  C18 UNL     1      21.104   0.997  27.611  0.00  0.00    +0.080 C 
ATOM     15  C19 UNL     1      20.280   2.252  27.304  0.00  0.00    +0.012 C 
ATOM     16  C20 UNL     1      21.021   3.517  27.748  0.00  0.00    +0.036 C 
ENDBRANCH   2   5
BRANCH   1  17
ATOM     17  C9  UNL     1      21.269   7.543  33.742  0.00  0.00    +0.143 C 
BRANCH  17  28
ATOM     18  C1  UNL     1      16.175   9.991  37.516  0.00  0.00    +0.105 C 
ATOM     19  N1  UNL     1      16.901   9.560  36.309  0.00  0.00    -0.302 NA
ATOM     20  C2  UNL     1      17.209   8.110  36.378  0.00  0.00    +0.103 C 
ATOM     21  C3  UNL     1      18.434   7.736  35.540  0.00  0.00    +0.122 C 
ATOM     22  N2  UNL     1      19.593   8.497  36.018  0.00  0.00    -0.312 N 
ATOM     23  C4  UNL     1      20.841   7.829  36.257  0.00  0.00    +0.126 A 
ATOM     24  N3  UNL     1      21.260   7.663  37.543  0.00  0.00    -0.240 NA
ATOM     25  C5  UNL     1      22.407   7.005  37.853  0.00  0.00    +0.113 A 
ATOM     26  C6  UNL     1      23.194   6.462  36.840  0.00  0.00    +0.020 A 
ATOM     27  C7  UNL     1      22.803   6.622  35.511  0.00  0.00    +0.010 A 
ATOM     28  C8  UNL     1      21.631   7.328  35.195  0.00  0.00    +0.010 A 
ATOM     29  C21 UNL     1      19.396   9.849  36.549  0.00  0.00    +0.122 C 
ATOM     30  C22 UNL     1      18.071  10.438  36.039  0.00  0.00    +0.103 C 
ENDBRANCH  17  28
ENDBRANCH   1  17
TORSDOF 3
ENDMDL
MODEL 9
REMARK VINA RESULT:    -6.629     11.858     13.990
REMARK INTER + INTRA:          -8.492
REMARK INTER:                  -7.947
REMARK INTRA:                  -0.545
REMARK UNBOUND:                -0.701
REMARK  Name = /home/qwerty/github/datacon2025hack/step_04_hit_selection/docking/ligands/lig_632.pdb
REMARK  4 active torsions:
REMARK  status: ('A' for Active; 'I' for Inactive)
REMARK    1  A    between atoms: C1_1  and  N1_2
REMARK    2  A    between atoms: C8_11  and  C9_12
REMARK    3  A    between atoms: C9_12  and  N4_13
REMARK    4  A    between atoms: C10_14  and  C11_16
REMARK                            x       y       z     vdW  Elec       q    Type
REMARK                         _______ _______ _______ _____ _____    ______ ____
ROOT
ATOM      1  N4  UNL     1      21.335   6.597  21.591  0.00  0.00    -0.307 N 
ATOM      2  C10 UNL     1      20.782   6.523  22.915  0.00  0.00    +0.247 C 
ATOM      3  O1  UNL     1      20.286   7.555  23.445  0.00  0.00    -0.270 OA
ATOM      4  H13 UNL     1      21.620   5.722  21.099  0.00  0.00    +0.149 HD
ENDROOT
BRANCH   2   5
ATOM      5  C11 UNL     1      20.752   5.242  23.657  0.00  0.00    +0.072 A 
ATOM      6  C12 UNL     1      21.411   5.146  24.893  0.00  0.00    +0.020 A 
ATOM      7  C13 UNL     1      21.414   3.944  25.615  0.00  0.00    -0.036 A 
ATOM      8  C14 UNL     1      20.725   2.822  25.106  0.00  0.00    +0.023 A 
ATOM      9  C15 UNL     1      20.081   2.915  23.863  0.00  0.00    +0.050 A 
ATOM     10  C16 UNL     1      20.097   4.110  23.140  0.00  0.00    +0.136 A 
ATOM     11  F1  UNL     1      19.513   4.139  21.915  0.00  0.00    -0.205 F 
ATOM     12  C17 UNL     1      20.716   1.555  25.874  0.00  0.00    +0.164 C 
ATOM     13  O2  UNL     1      20.090   0.548  25.440  0.00  0.00    -0.292 OA
ATOM     14  C18 UNL     1      21.396   1.470  27.212  0.00  0.00    +0.080 C 
ATOM     15  C19 UNL     1      22.554   2.469  27.304  0.00  0.00    +0.012 C 
ATOM     16  C20 UNL     1      22.083   3.888  26.968  0.00  0.00    +0.036 C 
ENDBRANCH   2   5
BRANCH   1  17
ATOM     17  C9  UNL     1      21.435   7.860  20.861  0.00  0.00    +0.143 C 
BRANCH  17  28
ATOM     18  C1  UNL     1      21.360  14.510  19.463  0.00  0.00    +0.105 C 
ATOM     19  N1  UNL     1      20.838  13.178  19.812  0.00  0.00    -0.302 NA
ATOM     20  C2  UNL     1      21.393  12.727  21.113  0.00  0.00    +0.103 C 
ATOM     21  C3  UNL     1      21.418  11.202  21.235  0.00  0.00    +0.122 C 
ATOM     22  N2  UNL     1      22.229  10.645  20.148  0.00  0.00    -0.312 N 
ATOM     23  C4  UNL     1      23.224   9.650  20.431  0.00  0.00    +0.126 A 
ATOM     24  N3  UNL     1      24.540   9.994  20.341  0.00  0.00    -0.240 NA
ATOM     25  C5  UNL     1      25.539   9.121  20.634  0.00  0.00    +0.113 A 
ATOM     26  C6  UNL     1      25.234   7.828  21.054  0.00  0.00    +0.020 A 
ATOM     27  C7  UNL     1      23.898   7.437  21.147  0.00  0.00    +0.010 A 
ATOM     28  C8  UNL     1      22.870   8.335  20.815  0.00  0.00    +0.010 A 
ATOM     29  C21 UNL     1      22.249  11.322  18.848  0.00  0.00    +0.122 C 
ATOM     30  C22 UNL     1      21.010  12.217  18.690  0.00  0.00    +0.103 C 
ENDBRANCH  17  28
ENDBRANCH   1  17
TORSDOF 3
ENDMDL
