MODEL 1
REMARK VINA RESULT:    -6.672      0.000      0.000
REMARK INTER + INTRA:          -9.232
REMARK INTER:                  -8.622
REMARK INTRA:                  -0.611
REMARK UNBOUND:                -0.611
REMARK  Name = /home/qwerty/github/datacon2025hack/step_04_hit_selection/docking/ligands/lig_272.pdb
REMARK  8 active torsions:
REMARK  status: ('A' for Active; 'I' for Inactive)
REMARK    1  A    between atoms: C1_1  and  C2_2
REMARK    2  A    between atoms: C2_2  and  N1_3
REMARK    3  A    between atoms: N1_3  and  C3_4
REMARK    4  A    between atoms: N1_3  and  C5_6
REMARK    5  A    between atoms: C3_4  and  C4_5
REMARK    6  A    between atoms: C8_9  and  C9_10
REMARK    7  A    between atoms: C10_13  and  C11_14
REMARK    8  A    between atoms: N3_20  and  C17_21
REMARK                            x       y       z     vdW  Elec       q    Type
REMARK                         _______ _______ _______ _____ _____    ______ ____
ROOT
ATOM      1  C9  UNL     1      17.577  11.050  36.510  0.00  0.00    +0.202 A 
ATOM      2  N2  UNL     1      18.500  12.033  36.533  0.00  0.00    -0.056 NA
ATOM      3  O1  UNL     1      19.642  11.423  36.442  0.00  0.00    -0.332 OA
ATOM      4  C10 UNL     1      19.449  10.128  36.366  0.00  0.00    +0.259 A 
ATOM      5  N4  UNL     1      18.137   9.825  36.405  0.00  0.00    -0.187 NA
ENDROOT
BRANCH   4   6
ATOM      6  C11 UNL     1      20.531   9.132  36.254  0.00  0.00    +0.041 A 
ATOM      7  C12 UNL     1      20.753   8.194  37.291  0.00  0.00    +0.013 A 
ATOM      8  C13 UNL     1      21.784   7.247  37.189  0.00  0.00    +0.006 A 
ATOM      9  C14 UNL     1      22.580   7.245  36.045  0.00  0.00    -0.017 A 
ATOM     10  C15 UNL     1      22.368   8.153  35.027  0.00  0.00    +0.040 A 
ATOM     11  C16 UNL     1      21.353   9.110  35.107  0.00  0.00    +0.037 A 
ATOM     12  N3  UNL     1      23.296   7.977  33.965  0.00  0.00    -0.274 N 
ATOM     13  C17 UNL     1      23.620   8.954  32.932  0.00  0.00    +0.138 C 
ATOM     14  C18 UNL     1      24.153   6.926  34.411  0.00  0.00    +0.224 C 
ATOM     15  O2  UNL     1      25.159   6.535  33.761  0.00  0.00    -0.275 OA
ATOM     16  C19 UNL     1      23.744   6.360  35.737  0.00  0.00    +0.133 C 
ENDBRANCH   4   6
BRANCH   1  20
ATOM     17  C5  UNL     1      13.333  11.734  36.746  0.00  0.00    +0.030 A 
ATOM     18  C6  UNL     1      14.243  12.738  37.119  0.00  0.00    +0.024 A 
ATOM     19  C7  UNL     1      15.621  12.517  37.043  0.00  0.00    +0.013 A 
ATOM     20  C8  UNL     1      16.119  11.285  36.590  0.00  0.00    +0.023 A 
ATOM     21  C20 UNL     1      15.214  10.281  36.214  0.00  0.00    +0.013 A 
ATOM     22  C21 UNL     1      13.836  10.502  36.290  0.00  0.00    +0.024 A 
BRANCH  17  23
ATOM     23  N1  UNL     1      11.908  11.963  36.836  0.00  0.00    -0.330 N 
BRANCH  23  25
ATOM     24  C1  UNL     1      11.334  12.639  34.532  0.00  0.00    +0.024 C 
ATOM     25  C2  UNL     1      11.257  12.996  36.013  0.00  0.00    +0.102 C 
ENDBRANCH  23  25
BRANCH  23  26
ATOM     26  C3  UNL     1      11.086  11.165  37.759  0.00  0.00    +0.102 C 
ATOM     27  C4  UNL     1      10.637   9.860  37.104  0.00  0.00    +0.024 C 
ENDBRANCH  23  26
ENDBRANCH  17  23
ENDBRANCH   1  20
TORSDOF 5
ENDMDL
MODEL 2
REMARK VINA RESULT:    -6.580      2.134      2.785
REMARK INTER + INTRA:          -9.115
REMARK INTER:                  -8.302
REMARK INTRA:                  -0.812
REMARK UNBOUND:                -0.611
REMARK  Name = /home/qwerty/github/datacon2025hack/step_04_hit_selection/docking/ligands/lig_272.pdb
REMARK  8 active torsions:
REMARK  status: ('A' for Active; 'I' for Inactive)
REMARK    1  A    between atoms: C1_1  and  C2_2
REMARK    2  A    between atoms: C2_2  and  N1_3
REMARK    3  A    between atoms: N1_3  and  C3_4
REMARK    4  A    between atoms: N1_3  and  C5_6
REMARK    5  A    between atoms: C3_4  and  C4_5
REMARK    6  A    between atoms: C8_9  and  C9_10
REMARK    7  A    between atoms: C10_13  and  C11_14
REMARK    8  A    between atoms: N3_20  and  C17_21
REMARK                            x       y       z     vdW  Elec       q    Type
REMARK                         _______ _______ _______ _____ _____    ______ ____
ROOT
ATOM      1  C9  UNL     1      18.249  10.614  37.017  0.00  0.00    +0.202 A 
ATOM      2  N2  UNL     1      18.177   9.812  38.099  0.00  0.00    -0.056 NA
ATOM      3  O1  UNL     1      19.154   8.969  37.957  0.00  0.00    -0.332 OA
ATOM      4  C10 UNL     1      19.804   9.226  36.848  0.00  0.00    +0.259 A 
ATOM      5  N4  UNL     1      19.268  10.276  36.197  0.00  0.00    -0.187 NA
ENDROOT
BRANCH   4   6
ATOM      6  C11 UNL     1      20.973   8.461  36.374  0.00  0.00    +0.041 A 
ATOM      7  C12 UNL     1      21.516   7.418  37.162  0.00  0.00    +0.013 A 
ATOM      8  C13 UNL     1      22.630   6.690  36.716  0.00  0.00    +0.006 A 
ATOM      9  C14 UNL     1      23.188   7.012  35.480  0.00  0.00    -0.017 A 
ATOM     10  C15 UNL     1      22.662   8.025  34.703  0.00  0.00    +0.040 A 
ATOM     11  C16 UNL     1      21.558   8.768  35.127  0.00  0.00    +0.037 A 
ATOM     12  N3  UNL     1      23.387   8.186  33.491  0.00  0.00    -0.274 N 
ATOM     13  C17 UNL     1      23.371   9.359  32.626  0.00  0.00    +0.138 C 
ATOM     14  C18 UNL     1      24.451   7.238  33.583  0.00  0.00    +0.224 C 
ATOM     15  O2  UNL     1      25.361   7.136  32.717  0.00  0.00    -0.275 OA
ATOM     16  C19 UNL     1      24.383   6.401  34.824  0.00  0.00    +0.133 C 
ENDBRANCH   4   6
BRANCH   1  20
ATOM     17  C5  UNL     1      15.542  13.875  36.260  0.00  0.00    +0.030 A 
ATOM     18  C6  UNL     1      15.246  12.910  37.239  0.00  0.00    +0.024 A 
ATOM     19  C7  UNL     1      16.125  11.851  37.485  0.00  0.00    +0.013 A 
ATOM     20  C8  UNL     1      17.320  11.735  36.758  0.00  0.00    +0.023 A 
ATOM     21  C20 UNL     1      17.620  12.698  35.782  0.00  0.00    +0.013 A 
ATOM     22  C21 UNL     1      16.742  13.756  35.536  0.00  0.00    +0.024 A 
BRANCH  17  23
ATOM     23  N1  UNL     1      14.625  14.964  36.001  0.00  0.00    -0.330 N 
BRANCH  23  25
ATOM     24  C1  UNL     1      15.310  16.677  37.642  0.00  0.00    +0.024 C 
ATOM     25  C2  UNL     1      15.051  16.364  36.172  0.00  0.00    +0.102 C 
ENDBRANCH  23  25
BRANCH  23  26
ATOM     26  C3  UNL     1      13.249  14.685  35.564  0.00  0.00    +0.102 C 
ATOM     27  C4  UNL     1      13.237  13.807  34.314  0.00  0.00    +0.024 C 
ENDBRANCH  23  26
ENDBRANCH  17  23
ENDBRANCH   1  20
TORSDOF 5
ENDMDL
MODEL 3
REMARK VINA RESULT:    -6.467     12.516     15.483
REMARK INTER + INTRA:          -8.968
REMARK INTER:                  -8.262
REMARK INTRA:                  -0.706
REMARK UNBOUND:                -0.611
REMARK  Name = /home/qwerty/github/datacon2025hack/step_04_hit_selection/docking/ligands/lig_272.pdb
REMARK  8 active torsions:
REMARK  status: ('A' for Active; 'I' for Inactive)
REMARK    1  A    between atoms: C1_1  and  C2_2
REMARK    2  A    between atoms: C2_2  and  N1_3
REMARK    3  A    between atoms: N1_3  and  C3_4
REMARK    4  A    between atoms: N1_3  and  C5_6
REMARK    5  A    between atoms: C3_4  and  C4_5
REMARK    6  A    between atoms: C8_9  and  C9_10
REMARK    7  A    between atoms: C10_13  and  C11_14
REMARK    8  A    between atoms: N3_20  and  C17_21
REMARK                            x       y       z     vdW  Elec       q    Type
REMARK                         _______ _______ _______ _____ _____    ______ ____
ROOT
ATOM      1  C9  UNL     1      21.281   3.882  24.260  0.00  0.00    +0.202 A 
ATOM      2  N2  UNL     1      20.385   3.634  23.284  0.00  0.00    -0.056 NA
ATOM      3  O1  UNL     1      20.532   4.607  22.438  0.00  0.00    -0.332 OA
ATOM      4  C10 UNL     1      21.468   5.423  22.859  0.00  0.00    +0.259 A 
ATOM      5  N4  UNL     1      21.989   5.009  24.030  0.00  0.00    -0.187 NA
ENDROOT
BRANCH   4   6
ATOM      6  C11 UNL     1      21.894   6.639  22.141  0.00  0.00    +0.041 A 
ATOM      7  C12 UNL     1      23.236   6.786  21.711  0.00  0.00    +0.013 A 
ATOM      8  C13 UNL     1      23.646   7.943  21.031  0.00  0.00    +0.006 A 
ATOM      9  C14 UNL     1      22.706   8.942  20.784  0.00  0.00    -0.017 A 
ATOM     10  C15 UNL     1      21.396   8.805  21.195  0.00  0.00    +0.040 A 
ATOM     11  C16 UNL     1      20.963   7.667  21.880  0.00  0.00    +0.037 A 
ATOM     12  N3  UNL     1      20.615   9.941  20.846  0.00  0.00    -0.274 N 
ATOM     13  C17 UNL     1      19.332  10.317  21.427  0.00  0.00    +0.138 C 
ATOM     14  C18 UNL     1      21.543  10.837  20.234  0.00  0.00    +0.224 C 
ATOM     15  O2  UNL     1      21.233  11.998  19.855  0.00  0.00    -0.275 OA
ATOM     16  C19 UNL     1      22.921  10.259  20.113  0.00  0.00    +0.133 C 
ENDBRANCH   4   6
BRANCH   1  20
ATOM     17  C5  UNL     1      21.827   1.372  27.715  0.00  0.00    +0.030 A 
ATOM     18  C6  UNL     1      22.618   2.520  27.530  0.00  0.00    +0.024 A 
ATOM     19  C7  UNL     1      22.441   3.335  26.409  0.00  0.00    +0.013 A 
ATOM     20  C8  UNL     1      21.468   3.020  25.448  0.00  0.00    +0.023 A 
ATOM     21  C20 UNL     1      20.675   1.877  25.629  0.00  0.00    +0.013 A 
ATOM     22  C21 UNL     1      20.851   1.062  26.751  0.00  0.00    +0.024 A 
BRANCH  17  23
ATOM     23  N1  UNL     1      22.020   0.524  28.872  0.00  0.00    -0.330 N 
BRANCH  23  25
ATOM     24  C1  UNL     1      20.419   0.626  30.748  0.00  0.00    +0.024 C 
ATOM     25  C2  UNL     1      21.792   1.042  30.232  0.00  0.00    +0.102 C 
ENDBRANCH  23  25
BRANCH  23  26
ATOM     26  C3  UNL     1      22.452  -0.872  28.704  0.00  0.00    +0.102 C 
ATOM     27  C4  UNL     1      23.959  -1.008  28.911  0.00  0.00    +0.024 C 
ENDBRANCH  23  26
ENDBRANCH  17  23
ENDBRANCH   1  20
TORSDOF 5
ENDMDL
MODEL 4
REMARK VINA RESULT:    -6.409     12.796     16.595
REMARK INTER + INTRA:          -8.892
REMARK INTER:                  -8.163
REMARK INTRA:                  -0.730
REMARK UNBOUND:                -0.611
REMARK  Name = /home/qwerty/github/datacon2025hack/step_04_hit_selection/docking/ligands/lig_272.pdb
REMARK  8 active torsions:
REMARK  status: ('A' for Active; 'I' for Inactive)
REMARK    1  A    between atoms: C1_1  and  C2_2
REMARK    2  A    between atoms: C2_2  and  N1_3
REMARK    3  A    between atoms: N1_3  and  C3_4
REMARK    4  A    between atoms: N1_3  and  C5_6
REMARK    5  A    between atoms: C3_4  and  C4_5
REMARK    6  A    between atoms: C8_9  and  C9_10
REMARK    7  A    between atoms: C10_13  and  C11_14
REMARK    8  A    between atoms: N3_20  and  C17_21
REMARK                            x       y       z     vdW  Elec       q    Type
REMARK                         _______ _______ _______ _____ _____    ______ ____
ROOT
ATOM      1  C9  UNL     1      20.274   3.205  24.145  0.00  0.00    +0.202 A 
ATOM      2  N2  UNL     1      20.944   4.027  23.312  0.00  0.00    -0.056 NA
ATOM      3  O1  UNL     1      20.079   4.361  22.404  0.00  0.00    -0.332 OA
ATOM      4  C10 UNL     1      18.929   3.782  22.651  0.00  0.00    +0.259 A 
ATOM      5  N4  UNL     1      18.991   3.023  23.762  0.00  0.00    -0.187 NA
ENDROOT
BRANCH   4   6
ATOM      6  C11 UNL     1      17.722   3.941  21.817  0.00  0.00    +0.041 A 
ATOM      7  C12 UNL     1      17.708   4.863  20.743  0.00  0.00    +0.013 A 
ATOM      8  C13 UNL     1      16.561   5.021  19.950  0.00  0.00    +0.006 A 
ATOM      9  C14 UNL     1      15.438   4.247  20.239  0.00  0.00    -0.017 A 
ATOM     10  C15 UNL     1      15.444   3.343  21.282  0.00  0.00    +0.040 A 
ATOM     11  C16 UNL     1      16.571   3.172  22.090  0.00  0.00    +0.037 A 
ATOM     12  N3  UNL     1      14.197   2.670  21.400  0.00  0.00    -0.274 N 
ATOM     13  C17 UNL     1      13.713   1.952  22.573  0.00  0.00    +0.138 C 
ATOM     14  C18 UNL     1      13.377   3.259  20.391  0.00  0.00    +0.224 C 
ATOM     15  O2  UNL     1      12.161   2.969  20.235  0.00  0.00    -0.275 OA
ATOM     16  C19 UNL     1      14.108   4.268  19.558  0.00  0.00    +0.133 C 
ENDBRANCH   4   6
BRANCH   1  20
ATOM     17  C5  UNL     1      22.015   1.376  27.631  0.00  0.00    +0.030 A 
ATOM     18  C6  UNL     1      20.906   0.793  26.994  0.00  0.00    +0.024 A 
ATOM     19  C7  UNL     1      20.340   1.387  25.863  0.00  0.00    +0.013 A 
ATOM     20  C8  UNL     1      20.873   2.576  25.342  0.00  0.00    +0.023 A 
ATOM     21  C20 UNL     1      21.982   3.160  25.974  0.00  0.00    +0.013 A 
ATOM     22  C21 UNL     1      22.548   2.566  27.105  0.00  0.00    +0.024 A 
BRANCH  17  23
ATOM     23  N1  UNL     1      22.592   0.764  28.809  0.00  0.00    -0.330 N 
BRANCH  23  25
ATOM     24  C1  UNL     1      24.769  -0.339  29.180  0.00  0.00    +0.024 C 
ATOM     25  C2  UNL     1      24.007   0.982  29.155  0.00  0.00    +0.102 C 
ENDBRANCH  23  25
BRANCH  23  26
ATOM     26  C3  UNL     1      21.769  -0.090  29.679  0.00  0.00    +0.102 C 
ATOM     27  C4  UNL     1      21.005   0.747  30.704  0.00  0.00    +0.024 C 
ENDBRANCH  23  26
ENDBRANCH  17  23
ENDBRANCH   1  20
TORSDOF 5
ENDMDL
MODEL 5
REMARK VINA RESULT:    -6.375      8.945     13.309
REMARK INTER + INTRA:          -8.849
REMARK INTER:                  -8.145
REMARK INTRA:                  -0.704
REMARK UNBOUND:                -0.611
REMARK  Name = /home/qwerty/github/datacon2025hack/step_04_hit_selection/docking/ligands/lig_272.pdb
REMARK  8 active torsions:
REMARK  status: ('A' for Active; 'I' for Inactive)
REMARK    1  A    between atoms: C1_1  and  C2_2
REMARK    2  A    between atoms: C2_2  and  N1_3
REMARK    3  A    between atoms: N1_3  and  C3_4
REMARK    4  A    between atoms: N1_3  and  C5_6
REMARK    5  A    between atoms: C3_4  and  C4_5
REMARK    6  A    between atoms: C8_9  and  C9_10
REMARK    7  A    between atoms: C10_13  and  C11_14
REMARK    8  A    between atoms: N3_20  and  C17_21
REMARK                            x       y       z     vdW  Elec       q    Type
REMARK                         _______ _______ _______ _____ _____    ______ ____
ROOT
ATOM      1  C9  UNL     1      19.175   1.417  33.652  0.00  0.00    +0.202 A 
ATOM      2  N2  UNL     1      19.269   2.331  34.638  0.00  0.00    -0.056 NA
ATOM      3  O1  UNL     1      18.307   2.040  35.458  0.00  0.00    -0.332 OA
ATOM      4  C10 UNL     1      17.643   1.001  35.013  0.00  0.00    +0.259 A 
ATOM      5  N4  UNL     1      18.155   0.554  33.850  0.00  0.00    -0.187 NA
ENDROOT
BRANCH   4   6
ATOM      6  C11 UNL     1      16.482   0.400  35.697  0.00  0.00    +0.041 A 
ATOM      7  C12 UNL     1      16.506  -0.959  36.091  0.00  0.00    +0.013 A 
ATOM      8  C13 UNL     1      15.403  -1.536  36.739  0.00  0.00    +0.006 A 
ATOM      9  C14 UNL     1      14.286  -0.742  36.991  0.00  0.00    -0.017 A 
ATOM     10  C15 UNL     1      14.255   0.586  36.615  0.00  0.00    +0.040 A 
ATOM     11  C16 UNL     1      15.338   1.182  35.963  0.00  0.00    +0.037 A 
ATOM     12  N3  UNL     1      13.022   1.202  36.963  0.00  0.00    -0.274 N 
ATOM     13  C17 UNL     1      12.490   2.440  36.406  0.00  0.00    +0.138 C 
ATOM     14  C18 UNL     1      12.247   0.149  37.535  0.00  0.00    +0.224 C 
ATOM     15  O2  UNL     1      11.049   0.294  37.900  0.00  0.00    -0.275 OA
ATOM     16  C19 UNL     1      12.997  -1.144  37.632  0.00  0.00    +0.133 C 
ENDBRANCH   4   6
BRANCH   1  20
ATOM     17  C5  UNL     1      21.821   1.262  30.259  0.00  0.00    +0.030 A 
ATOM     18  C6  UNL     1      20.801   0.307  30.417  0.00  0.00    +0.024 A 
ATOM     19  C7  UNL     1      19.942   0.357  31.519  0.00  0.00    +0.013 A 
ATOM     20  C8  UNL     1      20.083   1.365  32.486  0.00  0.00    +0.023 A 
ATOM     21  C20 UNL     1      21.098   2.321  32.330  0.00  0.00    +0.013 A 
ATOM     22  C21 UNL     1      21.958   2.271  31.229  0.00  0.00    +0.024 A 
BRANCH  17  23
ATOM     23  N1  UNL     1      22.716   1.201  29.124  0.00  0.00    -0.330 N 
BRANCH  23  25
ATOM     24  C1  UNL     1      22.689   2.784  27.229  0.00  0.00    +0.024 C 
ATOM     25  C2  UNL     1      22.216   1.434  27.757  0.00  0.00    +0.102 C 
ENDBRANCH  23  25
BRANCH  23  26
ATOM     26  C3  UNL     1      24.142   0.900  29.319  0.00  0.00    +0.102 C 
ATOM     27  C4  UNL     1      24.411  -0.597  29.182  0.00  0.00    +0.024 C 
ENDBRANCH  23  26
ENDBRANCH  17  23
ENDBRANCH   1  20
TORSDOF 5
ENDMDL
MODEL 6
REMARK VINA RESULT:    -6.320     15.797     16.819
REMARK INTER + INTRA:          -8.779
REMARK INTER:                  -8.142
REMARK INTRA:                  -0.637
REMARK UNBOUND:                -0.611
REMARK  Name = /home/qwerty/github/datacon2025hack/step_04_hit_selection/docking/ligands/lig_272.pdb
REMARK  8 active torsions:
REMARK  status: ('A' for Active; 'I' for Inactive)
REMARK    1  A    between atoms: C1_1  and  C2_2
REMARK    2  A    between atoms: C2_2  and  N1_3
REMARK    3  A    between atoms: N1_3  and  C3_4
REMARK    4  A    between atoms: N1_3  and  C5_6
REMARK    5  A    between atoms: C3_4  and  C4_5
REMARK    6  A    between atoms: C8_9  and  C9_10
REMARK    7  A    between atoms: C10_13  and  C11_14
REMARK    8  A    between atoms: N3_20  and  C17_21
REMARK                            x       y       z     vdW  Elec       q    Type
REMARK                         _______ _______ _______ _____ _____    ______ ____
ROOT
ATOM      1  C9  UNL     1      11.164   3.545  21.900  0.00  0.00    +0.202 A 
ATOM      2  N2  UNL     1      10.345   2.532  21.554  0.00  0.00    -0.056 NA
ATOM      3  O1  UNL     1      10.904   1.467  22.040  0.00  0.00    -0.332 OA
ATOM      4  C10 UNL     1      12.015   1.791  22.657  0.00  0.00    +0.259 A 
ATOM      5  N4  UNL     1      12.237   3.118  22.601  0.00  0.00    -0.187 NA
ENDROOT
BRANCH   4   6
ATOM      6  C11 UNL     1      12.907   0.825  23.326  0.00  0.00    +0.041 A 
ATOM      7  C12 UNL     1      12.732   0.516  24.697  0.00  0.00    +0.013 A 
ATOM      8  C13 UNL     1      13.580  -0.399  25.338  0.00  0.00    +0.006 A 
ATOM      9  C14 UNL     1      14.595  -1.002  24.597  0.00  0.00    -0.017 A 
ATOM     10  C15 UNL     1      14.771  -0.710  23.259  0.00  0.00    +0.040 A 
ATOM     11  C16 UNL     1      13.944   0.202  22.599  0.00  0.00    +0.037 A 
ATOM     12  N3  UNL     1      15.864  -1.430  22.704  0.00  0.00    -0.274 N 
ATOM     13  C17 UNL     1      16.570  -1.109  21.469  0.00  0.00    +0.138 C 
ATOM     14  C18 UNL     1      16.408  -2.156  23.806  0.00  0.00    +0.224 C 
ATOM     15  O2  UNL     1      17.450  -2.861  23.720  0.00  0.00    -0.275 OA
ATOM     16  C19 UNL     1      15.627  -1.972  25.071  0.00  0.00    +0.133 C 
ENDBRANCH   4   6
BRANCH   1  20
ATOM     17  C5  UNL     1      10.448   7.667  20.885  0.00  0.00    +0.030 A 
ATOM     18  C6  UNL     1       9.679   6.642  20.306  0.00  0.00    +0.024 A 
ATOM     19  C7  UNL     1       9.911   5.304  20.635  0.00  0.00    +0.013 A 
ATOM     20  C8  UNL     1      10.917   4.961  21.552  0.00  0.00    +0.023 A 
ATOM     21  C20 UNL     1      11.685   5.981  22.134  0.00  0.00    +0.013 A 
ATOM     22  C21 UNL     1      11.453   7.320  21.805  0.00  0.00    +0.024 A 
BRANCH  17  23
ATOM     23  N1  UNL     1      10.212   9.051  20.534  0.00  0.00    -0.330 N 
BRANCH  23  25
ATOM     24  C1  UNL     1       9.390  10.248  22.530  0.00  0.00    +0.024 C 
ATOM     25  C2  UNL     1       9.076   9.791  21.110  0.00  0.00    +0.102 C 
ENDBRANCH  23  25
BRANCH  23  26
ATOM     26  C3  UNL     1      11.106   9.738  19.590  0.00  0.00    +0.102 C 
ATOM     27  C4  UNL     1      12.234  10.457  20.328  0.00  0.00    +0.024 C 
ENDBRANCH  23  26
ENDBRANCH  17  23
ENDBRANCH   1  20
TORSDOF 5
ENDMDL
MODEL 7
REMARK VINA RESULT:    -6.252      5.943     11.063
REMARK INTER + INTRA:          -8.690
REMARK INTER:                  -7.970
REMARK INTRA:                  -0.721
REMARK UNBOUND:                -0.611
REMARK  Name = /home/qwerty/github/datacon2025hack/step_04_hit_selection/docking/ligands/lig_272.pdb
REMARK  8 active torsions:
REMARK  status: ('A' for Active; 'I' for Inactive)
REMARK    1  A    between atoms: C1_1  and  C2_2
REMARK    2  A    between atoms: C2_2  and  N1_3
REMARK    3  A    between atoms: N1_3  and  C3_4
REMARK    4  A    between atoms: N1_3  and  C5_6
REMARK    5  A    between atoms: C3_4  and  C4_5
REMARK    6  A    between atoms: C8_9  and  C9_10
REMARK    7  A    between atoms: C10_13  and  C11_14
REMARK    8  A    between atoms: N3_20  and  C17_21
REMARK                            x       y       z     vdW  Elec       q    Type
REMARK                         _______ _______ _______ _____ _____    ______ ____
ROOT
ATOM      1  C9  UNL     1      19.874   2.821  33.746  0.00  0.00    +0.202 A 
ATOM      2  N2  UNL     1      19.147   2.100  34.625  0.00  0.00    -0.056 NA
ATOM      3  O1  UNL     1      18.713   2.965  35.490  0.00  0.00    -0.332 OA
ATOM      4  C10 UNL     1      19.143   4.163  35.174  0.00  0.00    +0.259 A 
ATOM      5  N4  UNL     1      19.897   4.135  34.058  0.00  0.00    -0.187 NA
ENDROOT
BRANCH   4   6
ATOM      6  C11 UNL     1      18.839   5.384  35.943  0.00  0.00    +0.041 A 
ATOM      7  C12 UNL     1      17.955   5.335  37.048  0.00  0.00    +0.013 A 
ATOM      8  C13 UNL     1      17.660   6.496  37.781  0.00  0.00    +0.006 A 
ATOM      9  C14 UNL     1      18.259   7.696  37.401  0.00  0.00    -0.017 A 
ATOM     10  C15 UNL     1      19.125   7.752  36.327  0.00  0.00    +0.040 A 
ATOM     11  C16 UNL     1      19.430   6.613  35.578  0.00  0.00    +0.037 A 
ATOM     12  N3  UNL     1      19.612   9.071  36.115  0.00  0.00    -0.274 N 
ATOM     13  C17 UNL     1      20.220   9.578  34.890  0.00  0.00    +0.138 C 
ATOM     14  C18 UNL     1      18.943   9.861  37.097  0.00  0.00    +0.224 C 
ATOM     15  O2  UNL     1      19.062  11.113  37.173  0.00  0.00    -0.275 OA
ATOM     16  C19 UNL     1      18.071   9.049  38.006  0.00  0.00    +0.133 C 
ENDBRANCH   4   6
BRANCH   1  20
ATOM     17  C5  UNL     1      21.890   1.127  30.341  0.00  0.00    +0.030 A 
ATOM     18  C6  UNL     1      20.686   0.573  30.810  0.00  0.00    +0.024 A 
ATOM     19  C7  UNL     1      20.031   1.122  31.915  0.00  0.00    +0.013 A 
ATOM     20  C8  UNL     1      20.566   2.240  32.576  0.00  0.00    +0.023 A 
ATOM     21  C20 UNL     1      21.766   2.797  32.109  0.00  0.00    +0.013 A 
ATOM     22  C21 UNL     1      22.421   2.248  31.003  0.00  0.00    +0.024 A 
BRANCH  17  23
ATOM     23  N1  UNL     1      22.571   0.549  29.202  0.00  0.00    -0.330 N 
BRANCH  23  25
ATOM     24  C1  UNL     1      22.226   2.164  27.367  0.00  0.00    +0.024 C 
ATOM     25  C2  UNL     1      23.245   1.406  28.212  0.00  0.00    +0.102 C 
ENDBRANCH  23  25
BRANCH  23  26
ATOM     26  C3  UNL     1      22.596  -0.910  29.016  0.00  0.00    +0.102 C 
ATOM     27  C4  UNL     1      24.030  -1.434  28.989  0.00  0.00    +0.024 C 
ENDBRANCH  23  26
ENDBRANCH  17  23
ENDBRANCH   1  20
TORSDOF 5
ENDMDL
MODEL 8
REMARK VINA RESULT:    -6.206      1.209      2.104
REMARK INTER + INTRA:          -8.631
REMARK INTER:                  -7.850
REMARK INTRA:                  -0.781
REMARK UNBOUND:                -0.611
REMARK  Name = /home/qwerty/github/datacon2025hack/step_04_hit_selection/docking/ligands/lig_272.pdb
REMARK  8 active torsions:
REMARK  status: ('A' for Active; 'I' for Inactive)
REMARK    1  A    between atoms: C1_1  and  C2_2
REMARK    2  A    between atoms: C2_2  and  N1_3
REMARK    3  A    between atoms: N1_3  and  C3_4
REMARK    4  A    between atoms: N1_3  and  C5_6
REMARK    5  A    between atoms: C3_4  and  C4_5
REMARK    6  A    between atoms: C8_9  and  C9_10
REMARK    7  A    between atoms: C10_13  and  C11_14
REMARK    8  A    between atoms: N3_20  and  C17_21
REMARK                            x       y       z     vdW  Elec       q    Type
REMARK                         _______ _______ _______ _____ _____    ______ ____
ROOT
ATOM      1  C9  UNL     1      17.427  10.015  37.170  0.00  0.00    +0.202 A 
ATOM      2  N2  UNL     1      17.805   9.733  38.433  0.00  0.00    -0.056 NA
ATOM      3  O1  UNL     1      18.944   9.123  38.314  0.00  0.00    -0.332 OA
ATOM      4  C10 UNL     1      19.266   9.026  37.047  0.00  0.00    +0.259 A 
ATOM      5  N4  UNL     1      18.326   9.584  36.258  0.00  0.00    -0.187 NA
ENDROOT
BRANCH   4   6
ATOM      6  C11 UNL     1      20.499   8.387  36.548  0.00  0.00    +0.041 A 
ATOM      7  C12 UNL     1      21.169   7.415  37.329  0.00  0.00    +0.013 A 
ATOM      8  C13 UNL     1      22.345   6.808  36.860  0.00  0.00    +0.006 A 
ATOM      9  C14 UNL     1      22.835   7.178  35.609  0.00  0.00    -0.017 A 
ATOM     10  C15 UNL     1      22.185   8.122  34.839  0.00  0.00    +0.040 A 
ATOM     11  C16 UNL     1      21.018   8.746  35.286  0.00  0.00    +0.037 A 
ATOM     12  N3  UNL     1      22.860   8.350  33.609  0.00  0.00    -0.274 N 
ATOM     13  C17 UNL     1      22.697   9.508  32.738  0.00  0.00    +0.138 C 
ATOM     14  C18 UNL     1      24.021   7.523  33.681  0.00  0.00    +0.224 C 
ATOM     15  O2  UNL     1      24.916   7.512  32.793  0.00  0.00    -0.275 OA
ATOM     16  C19 UNL     1      24.073   6.693  34.928  0.00  0.00    +0.133 C 
ENDBRANCH   4   6
BRANCH   1  20
ATOM     17  C5  UNL     1      13.779  12.060  36.151  0.00  0.00    +0.030 A 
ATOM     18  C6  UNL     1      14.094  10.822  35.566  0.00  0.00    +0.024 A 
ATOM     19  C7  UNL     1      15.278  10.157  35.896  0.00  0.00    +0.013 A 
ATOM     20  C8  UNL     1      16.173  10.717  36.821  0.00  0.00    +0.023 A 
ATOM     21  C20 UNL     1      15.861  11.953  37.409  0.00  0.00    +0.013 A 
ATOM     22  C21 UNL     1      14.677  12.617  37.079  0.00  0.00    +0.024 A 
BRANCH  17  23
ATOM     23  N1  UNL     1      12.557  12.750  35.799  0.00  0.00    -0.330 N 
BRANCH  23  25
ATOM     24  C1  UNL     1      11.069  11.617  37.411  0.00  0.00    +0.024 C 
ATOM     25  C2  UNL     1      11.246  12.100  35.975  0.00  0.00    +0.102 C 
ENDBRANCH  23  25
BRANCH  23  26
ATOM     26  C3  UNL     1      12.607  14.116  35.254  0.00  0.00    +0.102 C 
ATOM     27  C4  UNL     1      13.161  14.118  33.830  0.00  0.00    +0.024 C 
ENDBRANCH  23  26
ENDBRANCH  17  23
ENDBRANCH   1  20
TORSDOF 5
ENDMDL
MODEL 9
REMARK VINA RESULT:    -6.155      1.187      2.159
REMARK INTER + INTRA:          -8.565
REMARK INTER:                  -7.921
REMARK INTRA:                  -0.644
REMARK UNBOUND:                -0.611
REMARK  Name = /home/qwerty/github/datacon2025hack/step_04_hit_selection/docking/ligands/lig_272.pdb
REMARK  8 active torsions:
REMARK  status: ('A' for Active; 'I' for Inactive)
REMARK    1  A    between atoms: C1_1  and  C2_2
REMARK    2  A    between atoms: C2_2  and  N1_3
REMARK    3  A    between atoms: N1_3  and  C3_4
REMARK    4  A    between atoms: N1_3  and  C5_6
REMARK    5  A    between atoms: C3_4  and  C4_5
REMARK    6  A    between atoms: C8_9  and  C9_10
REMARK    7  A    between atoms: C10_13  and  C11_14
REMARK    8  A    between atoms: N3_20  and  C17_21
REMARK                            x       y       z     vdW  Elec       q    Type
REMARK                         _______ _______ _______ _____ _____    ______ ____
ROOT
ATOM      1  C9  UNL     1      18.087  11.411  35.766  0.00  0.00    +0.202 A 
ATOM      2  N2  UNL     1      19.016  12.051  36.505  0.00  0.00    -0.056 NA
ATOM      3  O1  UNL     1      20.153  11.571  36.103  0.00  0.00    -0.332 OA
ATOM      4  C10 UNL     1      19.951  10.679  35.164  0.00  0.00    +0.259 A 
ATOM      5  N4  UNL     1      18.638  10.530  34.902  0.00  0.00    -0.187 NA
ENDROOT
BRANCH   4   6
ATOM      6  C11 UNL     1      21.026   9.932  34.482  0.00  0.00    +0.041 A 
ATOM      7  C12 UNL     1      21.324  10.185  33.122  0.00  0.00    +0.013 A 
ATOM      8  C13 UNL     1      22.343   9.475  32.468  0.00  0.00    +0.006 A 
ATOM      9  C14 UNL     1      23.058   8.518  33.187  0.00  0.00    -0.017 A 
ATOM     10  C15 UNL     1      22.776   8.268  34.515  0.00  0.00    +0.040 A 
ATOM     11  C16 UNL     1      21.763   8.957  35.187  0.00  0.00    +0.037 A 
ATOM     12  N3  UNL     1      23.619   7.254  35.048  0.00  0.00    -0.274 N 
ATOM     13  C17 UNL     1      23.374   6.477  36.257  0.00  0.00    +0.138 C 
ATOM     14  C18 UNL     1      24.417   6.836  33.941  0.00  0.00    +0.224 C 
ATOM     15  O2  UNL     1      25.243   5.886  34.005  0.00  0.00    -0.275 OA
ATOM     16  C19 UNL     1      24.151   7.627  32.696  0.00  0.00    +0.133 C 
ENDBRANCH   4   6
BRANCH   1  20
ATOM     17  C5  UNL     1      13.852  12.097  36.118  0.00  0.00    +0.030 A 
ATOM     18  C6  UNL     1      14.517  12.326  34.901  0.00  0.00    +0.024 A 
ATOM     19  C7  UNL     1      15.892  12.104  34.786  0.00  0.00    +0.013 A 
ATOM     20  C8  UNL     1      16.632  11.645  35.887  0.00  0.00    +0.023 A 
ATOM     21  C20 UNL     1      15.972  11.412  37.103  0.00  0.00    +0.013 A 
ATOM     22  C21 UNL     1      14.597  11.635  37.218  0.00  0.00    +0.024 A 
BRANCH  17  23
ATOM     23  N1  UNL     1      12.430  12.338  36.236  0.00  0.00    -0.330 N 
BRANCH  23  25
ATOM     24  C1  UNL     1      10.410  13.722  35.915  0.00  0.00    +0.024 C 
ATOM     25  C2  UNL     1      11.748  13.280  35.331  0.00  0.00    +0.102 C 
ENDBRANCH  23  25
BRANCH  23  26
ATOM     26  C3  UNL     1      11.644  11.646  37.268  0.00  0.00    +0.102 C 
ATOM     27  C4  UNL     1      11.330  10.211  36.848  0.00  0.00    +0.024 C 
ENDBRANCH  23  26
ENDBRANCH  17  23
ENDBRANCH   1  20
TORSDOF 5
ENDMDL
