MODEL 1
REMARK VINA RESULT:    -7.049      0.000      0.000
REMARK INTER + INTRA:          -9.166
REMARK INTER:                  -8.697
REMARK INTRA:                  -0.468
REMARK UNBOUND:                -0.468
REMARK  Name = /home/qwerty/github/datacon2025hack/step_04_hit_selection/docking/ligands/lig_268.pdb
REMARK  5 active torsions:
REMARK  status: ('A' for Active; 'I' for Inactive)
REMARK    1  A    between atoms: C1_1  and  N1_2
REMARK    2  A    between atoms: C2_4  and  C3_5
REMARK    3  A    between atoms: C10_13  and  C11_14
REMARK    4  A    between atoms: C11_14  and  N3_15
REMARK    5  A    between atoms: C14_19  and  C15_21
REMARK                            x       y       z     vdW  Elec       q    Type
REMARK                         _______ _______ _______ _____ _____    ______ ____
ROOT
ATOM      1  N3  UNL     1      17.307  11.926  36.069  0.00  0.00    -0.294 NA
ATOM      2  C12 UNL     1      17.072  12.424  34.695  0.00  0.00    +0.104 C 
ATOM      3  C13 UNL     1      15.622  12.167  34.274  0.00  0.00    +0.123 C 
ATOM      4  N4  UNL     1      14.719  12.736  35.279  0.00  0.00    -0.295 N 
ATOM      5  C14 UNL     1      13.762  13.754  34.934  0.00  0.00    +0.247 C 
ATOM      6  O1  UNL     1      13.636  14.761  35.683  0.00  0.00    -0.270 OA
ATOM      7  C21 UNL     1      14.957  12.371  36.678  0.00  0.00    +0.123 C 
ATOM      8  C22 UNL     1      16.425  12.626  37.026  0.00  0.00    +0.104 C 
ENDROOT
BRANCH   5   9
ATOM      9  C15 UNL     1      12.919  13.644  33.720  0.00  0.00    +0.037 A 
ATOM     10  C16 UNL     1      12.867  14.704  32.795  0.00  0.00    +0.014 A 
ATOM     11  C17 UNL     1      12.066  14.607  31.654  0.00  0.00    +0.021 A 
ATOM     12  C18 UNL     1      11.302  13.460  31.427  0.00  0.00    +0.041 A 
ATOM     13 CL1  UNL     1      10.296  13.343  29.994  0.00  0.00    -0.084 Cl
ATOM     14  C19 UNL     1      11.336  12.408  32.346  0.00  0.00    +0.021 A 
ATOM     15  C20 UNL     1      12.136  12.499  33.489  0.00  0.00    +0.014 A 
ENDBRANCH   5   9
BRANCH   1  16
ATOM     16  C11 UNL     1      18.720  12.114  36.457  0.00  0.00    +0.139 C 
BRANCH  16  22
ATOM     17  C1  UNL     1      18.086   9.668  38.275  0.00  0.00    +0.172 C 
ATOM     18  N1  UNL     1      19.158   9.751  37.290  0.00  0.00    -0.270 N 
ATOM     19  N2  UNL     1      20.014   8.770  37.060  0.00  0.00    -0.171 NA
ATOM     20  C2  UNL     1      20.866   9.180  36.095  0.00  0.00    +0.093 A 
ATOM     21  C9  UNL     1      20.532  10.469  35.703  0.00  0.00    +0.054 A 
ATOM     22  C10 UNL     1      19.440  10.794  36.481  0.00  0.00    +0.053 A 
BRANCH  20  23
ATOM     23  C3  UNL     1      21.976   8.347  35.573  0.00  0.00    +0.002 A 
ATOM     24  C4  UNL     1      22.474   7.277  36.341  0.00  0.00    +0.013 A 
ATOM     25  C5  UNL     1      23.520   6.484  35.861  0.00  0.00    +0.039 A 
ATOM     26  C6  UNL     1      24.081   6.746  34.610  0.00  0.00    +0.123 A 
ATOM     27  F1  UNL     1      25.096   5.975  34.146  0.00  0.00    -0.205 F 
ATOM     28  C7  UNL     1      23.597   7.803  33.837  0.00  0.00    +0.039 A 
ATOM     29  C8  UNL     1      22.551   8.601  34.312  0.00  0.00    +0.013 A 
ENDBRANCH  20  23
ENDBRANCH  16  22
ENDBRANCH   1  16
TORSDOF 4
ENDMDL
MODEL 2
REMARK VINA RESULT:    -6.946      8.843     12.048
REMARK INTER + INTRA:          -9.038
REMARK INTER:                  -8.387
REMARK INTRA:                  -0.651
REMARK UNBOUND:                -0.468
REMARK  Name = /home/qwerty/github/datacon2025hack/step_04_hit_selection/docking/ligands/lig_268.pdb
REMARK  5 active torsions:
REMARK  status: ('A' for Active; 'I' for Inactive)
REMARK    1  A    between atoms: C1_1  and  N1_2
REMARK    2  A    between atoms: C2_4  and  C3_5
REMARK    3  A    between atoms: C10_13  and  C11_14
REMARK    4  A    between atoms: C11_14  and  N3_15
REMARK    5  A    between atoms: C14_19  and  C15_21
REMARK                            x       y       z     vdW  Elec       q    Type
REMARK                         _______ _______ _______ _____ _____    ______ ____
ROOT
ATOM      1  N3  UNL     1      19.278   1.305  32.100  0.00  0.00    -0.294 NA
ATOM      2  C12 UNL     1      18.638   1.162  30.773  0.00  0.00    +0.104 C 
ATOM      3  C13 UNL     1      19.433   1.925  29.710  0.00  0.00    +0.123 C 
ATOM      4  N4  UNL     1      20.833   1.492  29.749  0.00  0.00    -0.295 N 
ATOM      5  C14 UNL     1      21.464   0.899  28.599  0.00  0.00    +0.247 C 
ATOM      6  O1  UNL     1      22.167  -0.138  28.747  0.00  0.00    -0.270 OA
ATOM      7  C21 UNL     1      21.504   1.506  31.050  0.00  0.00    +0.123 C 
ATOM      8  C22 UNL     1      20.649   0.751  32.070  0.00  0.00    +0.104 C 
ENDROOT
BRANCH   5   9
ATOM      9  C15 UNL     1      21.309   1.482  27.244  0.00  0.00    +0.037 A 
ATOM     10  C16 UNL     1      22.131   2.547  26.833  0.00  0.00    +0.014 A 
ATOM     11  C17 UNL     1      21.982   3.105  25.560  0.00  0.00    +0.021 A 
ATOM     12  C18 UNL     1      21.006   2.614  24.689  0.00  0.00    +0.041 A 
ATOM     13 CL1  UNL     1      20.821   3.318  23.092  0.00  0.00    -0.084 Cl
ATOM     14  C19 UNL     1      20.175   1.566  25.093  0.00  0.00    +0.021 A 
ATOM     15  C20 UNL     1      20.322   1.003  26.364  0.00  0.00    +0.014 A 
ENDBRANCH   5   9
BRANCH   1  16
ATOM     16  C11 UNL     1      18.482   0.624  33.140  0.00  0.00    +0.139 C 
BRANCH  16  22
ATOM     17  C1  UNL     1      16.895  -0.027  35.738  0.00  0.00    +0.172 C 
ATOM     18  N1  UNL     1      17.550   1.238  35.425  0.00  0.00    -0.270 N 
ATOM     19  N2  UNL     1      17.531   2.286  36.230  0.00  0.00    -0.171 NA
ATOM     20  C2  UNL     1      18.228   3.279  35.636  0.00  0.00    +0.093 A 
ATOM     21  C9  UNL     1      18.703   2.838  34.408  0.00  0.00    +0.054 A 
ATOM     22  C10 UNL     1      18.255   1.536  34.313  0.00  0.00    +0.053 A 
BRANCH  20  23
ATOM     23  C3  UNL     1      18.421   4.620  36.238  0.00  0.00    +0.002 A 
ATOM     24  C4  UNL     1      17.649   5.011  37.348  0.00  0.00    +0.013 A 
ATOM     25  C5  UNL     1      17.821   6.272  37.926  0.00  0.00    +0.039 A 
ATOM     26  C6  UNL     1      18.766   7.159  37.404  0.00  0.00    +0.123 A 
ATOM     27  F1  UNL     1      18.931   8.381  37.967  0.00  0.00    -0.205 F 
ATOM     28  C7  UNL     1      19.539   6.785  36.304  0.00  0.00    +0.039 A 
ATOM     29  C8  UNL     1      19.371   5.524  35.722  0.00  0.00    +0.013 A 
ENDBRANCH  20  23
ENDBRANCH  16  22
ENDBRANCH   1  16
TORSDOF 4
ENDMDL
MODEL 3
REMARK VINA RESULT:    -6.903     13.987     17.240
REMARK INTER + INTRA:          -8.986
REMARK INTER:                  -8.283
REMARK INTRA:                  -0.703
REMARK UNBOUND:                -0.468
REMARK  Name = /home/qwerty/github/datacon2025hack/step_04_hit_selection/docking/ligands/lig_268.pdb
REMARK  5 active torsions:
REMARK  status: ('A' for Active; 'I' for Inactive)
REMARK    1  A    between atoms: C1_1  and  N1_2
REMARK    2  A    between atoms: C2_4  and  C3_5
REMARK    3  A    between atoms: C10_13  and  C11_14
REMARK    4  A    between atoms: C11_14  and  N3_15
REMARK    5  A    between atoms: C14_19  and  C15_21
REMARK                            x       y       z     vdW  Elec       q    Type
REMARK                         _______ _______ _______ _____ _____    ______ ____
ROOT
ATOM      1  N3  UNL     1      11.248   7.502  21.774  0.00  0.00    -0.294 NA
ATOM      2  C12 UNL     1      12.626   7.040  22.059  0.00  0.00    +0.104 C 
ATOM      3  C13 UNL     1      12.711   5.515  21.952  0.00  0.00    +0.123 C 
ATOM      4  N4  UNL     1      12.197   5.093  20.646  0.00  0.00    -0.295 N 
ATOM      5  C14 UNL     1      13.024   4.371  19.715  0.00  0.00    +0.247 C 
ATOM      6  O1  UNL     1      13.029   4.712  18.501  0.00  0.00    -0.270 OA
ATOM      7  C21 UNL     1      10.881   5.597  20.248  0.00  0.00    +0.123 C 
ATOM      8  C22 UNL     1      10.854   7.119  20.402  0.00  0.00    +0.104 C 
ENDROOT
BRANCH   5   9
ATOM      9  C15 UNL     1      13.868   3.232  20.151  0.00  0.00    +0.037 A 
ATOM     10  C16 UNL     1      15.261   3.267  19.955  0.00  0.00    +0.014 A 
ATOM     11  C17 UNL     1      16.059   2.192  20.355  0.00  0.00    +0.021 A 
ATOM     12  C18 UNL     1      15.476   1.067  20.946  0.00  0.00    +0.041 A 
ATOM     13 CL1  UNL     1      16.480  -0.281  21.447  0.00  0.00    -0.084 Cl
ATOM     14  C19 UNL     1      14.092   1.017  21.133  0.00  0.00    +0.021 A 
ATOM     15  C20 UNL     1      13.290   2.091  20.735  0.00  0.00    +0.014 A 
ENDBRANCH   5   9
BRANCH   1  16
ATOM     16  C11 UNL     1      11.145   8.967  21.937  0.00  0.00    +0.139 C 
BRANCH  16  22
ATOM     17  C1  UNL     1       8.421  10.267  21.178  0.00  0.00    +0.172 C 
ATOM     18  N1  UNL     1       8.850   9.894  22.521  0.00  0.00    -0.270 N 
ATOM     19  N2  UNL     1       8.110  10.082  23.600  0.00  0.00    -0.171 NA
ATOM     20  C2  UNL     1       8.806   9.626  24.664  0.00  0.00    +0.093 A 
ATOM     21  C9  UNL     1      10.031   9.132  24.237  0.00  0.00    +0.054 A 
ATOM     22  C10 UNL     1      10.018   9.315  22.870  0.00  0.00    +0.053 A 
BRANCH  20  23
ATOM     23  C3  UNL     1       8.299   9.675  26.057  0.00  0.00    +0.002 A 
ATOM     24  C4  UNL     1       7.661   8.550  26.613  0.00  0.00    +0.013 A 
ATOM     25  C5  UNL     1       7.179   8.582  27.924  0.00  0.00    +0.039 A 
ATOM     26  C6  UNL     1       7.327   9.736  28.698  0.00  0.00    +0.123 A 
ATOM     27  F1  UNL     1       6.858   9.764  29.970  0.00  0.00    -0.205 F 
ATOM     28  C7  UNL     1       7.958  10.859  28.160  0.00  0.00    +0.039 A 
ATOM     29  C8  UNL     1       8.442  10.832  26.848  0.00  0.00    +0.013 A 
ENDBRANCH  20  23
ENDBRANCH  16  22
ENDBRANCH   1  16
TORSDOF 4
ENDMDL
MODEL 4
REMARK VINA RESULT:    -6.851     14.827     18.327
REMARK INTER + INTRA:          -8.921
REMARK INTER:                  -8.195
REMARK INTRA:                  -0.727
REMARK UNBOUND:                -0.468
REMARK  Name = /home/qwerty/github/datacon2025hack/step_04_hit_selection/docking/ligands/lig_268.pdb
REMARK  5 active torsions:
REMARK  status: ('A' for Active; 'I' for Inactive)
REMARK    1  A    between atoms: C1_1  and  N1_2
REMARK    2  A    between atoms: C2_4  and  C3_5
REMARK    3  A    between atoms: C10_13  and  C11_14
REMARK    4  A    between atoms: C11_14  and  N3_15
REMARK    5  A    between atoms: C14_19  and  C15_21
REMARK                            x       y       z     vdW  Elec       q    Type
REMARK                         _______ _______ _______ _____ _____    ______ ____
ROOT
ATOM      1  N3  UNL     1      14.134   1.405  22.364  0.00  0.00    -0.294 NA
ATOM      2  C12 UNL     1      15.570   1.766  22.407  0.00  0.00    +0.104 C 
ATOM      3  C13 UNL     1      16.065   1.818  23.855  0.00  0.00    +0.123 C 
ATOM      4  N4  UNL     1      15.746   0.552  24.521  0.00  0.00    -0.295 N 
ATOM      5  C14 UNL     1      16.780  -0.282  25.075  0.00  0.00    +0.247 C 
ATOM      6  O1  UNL     1      16.752  -1.525  24.860  0.00  0.00    -0.270 OA
ATOM      7  C21 UNL     1      14.364   0.076  24.431  0.00  0.00    +0.123 C 
ATOM      8  C22 UNL     1      13.923   0.072  22.966  0.00  0.00    +0.104 C 
ENDROOT
BRANCH   5   9
ATOM      9  C15 UNL     1      17.876   0.286  25.897  0.00  0.00    +0.037 A 
ATOM     10  C16 UNL     1      19.202   0.256  25.427  0.00  0.00    +0.014 A 
ATOM     11  C17 UNL     1      20.239   0.782  26.203  0.00  0.00    +0.021 A 
ATOM     12  C18 UNL     1      19.966   1.335  27.457  0.00  0.00    +0.041 A 
ATOM     13 CL1  UNL     1      21.270   1.993  28.429  0.00  0.00    -0.084 Cl
ATOM     14  C19 UNL     1      18.654   1.356  27.939  0.00  0.00    +0.021 A 
ATOM     15  C20 UNL     1      17.614   0.832  27.166  0.00  0.00    +0.014 A 
ENDBRANCH   5   9
BRANCH   1  16
ATOM     16  C11 UNL     1      13.635   1.415  20.974  0.00  0.00    +0.139 C 
BRANCH  16  22
ATOM     17  C1  UNL     1      14.739   4.001  19.640  0.00  0.00    +0.172 C 
ATOM     18  N1  UNL     1      13.379   3.799  20.128  0.00  0.00    -0.270 N 
ATOM     19  N2  UNL     1      12.438   4.726  20.066  0.00  0.00    -0.171 NA
ATOM     20  C2  UNL     1      11.311   4.209  20.603  0.00  0.00    +0.093 A 
ATOM     21  C9  UNL     1      11.554   2.906  21.018  0.00  0.00    +0.054 A 
ATOM     22  C10 UNL     1      12.877   2.682  20.695  0.00  0.00    +0.053 A 
BRANCH  20  23
ATOM     23  C3  UNL     1      10.038   4.959  20.715  0.00  0.00    +0.002 A 
ATOM     24  C4  UNL     1      10.013   6.345  20.466  0.00  0.00    +0.013 A 
ATOM     25  C5  UNL     1       8.820   7.065  20.569  0.00  0.00    +0.039 A 
ATOM     26  C6  UNL     1       7.636   6.412  20.921  0.00  0.00    +0.123 A 
ATOM     27  F1  UNL     1       6.479   7.113  21.019  0.00  0.00    -0.205 F 
ATOM     28  C7  UNL     1       7.645   5.039  21.170  0.00  0.00    +0.039 A 
ATOM     29  C8  UNL     1       8.837   4.313  21.069  0.00  0.00    +0.013 A 
ENDBRANCH  20  23
ENDBRANCH  16  22
ENDBRANCH   1  16
TORSDOF 4
ENDMDL
MODEL 5
REMARK VINA RESULT:    -6.769     14.443     15.660
REMARK INTER + INTRA:          -8.821
REMARK INTER:                  -8.128
REMARK INTRA:                  -0.693
REMARK UNBOUND:                -0.468
REMARK  Name = /home/qwerty/github/datacon2025hack/step_04_hit_selection/docking/ligands/lig_268.pdb
REMARK  5 active torsions:
REMARK  status: ('A' for Active; 'I' for Inactive)
REMARK    1  A    between atoms: C1_1  and  N1_2
REMARK    2  A    between atoms: C2_4  and  C3_5
REMARK    3  A    between atoms: C10_13  and  C11_14
REMARK    4  A    between atoms: C11_14  and  N3_15
REMARK    5  A    between atoms: C14_19  and  C15_21
REMARK                            x       y       z     vdW  Elec       q    Type
REMARK                         _______ _______ _______ _____ _____    ______ ____
ROOT
ATOM      1  N3  UNL     1      11.905   3.874  21.450  0.00  0.00    -0.294 NA
ATOM      2  C12 UNL     1      10.948   4.670  20.649  0.00  0.00    +0.104 C 
ATOM      3  C13 UNL     1      10.393   5.831  21.478  0.00  0.00    +0.123 C 
ATOM      4  N4  UNL     1      11.507   6.610  22.026  0.00  0.00    -0.295 N 
ATOM      5  C14 UNL     1      11.669   8.006  21.712  0.00  0.00    +0.247 C 
ATOM      6  O1  UNL     1      12.811   8.439  21.399  0.00  0.00    -0.270 OA
ATOM      7  C21 UNL     1      12.552   5.875  22.743  0.00  0.00    +0.123 C 
ATOM      8  C22 UNL     1      13.044   4.716  21.874  0.00  0.00    +0.104 C 
ENDROOT
BRANCH   5   9
ATOM      9  C15 UNL     1      10.524   8.946  21.753  0.00  0.00    +0.037 A 
ATOM     10  C16 UNL     1      10.129   9.633  20.590  0.00  0.00    +0.014 A 
ATOM     11  C17 UNL     1       9.056  10.527  20.626  0.00  0.00    +0.021 A 
ATOM     12  C18 UNL     1       8.371  10.753  21.823  0.00  0.00    +0.041 A 
ATOM     13 CL1  UNL     1       7.025  11.878  21.865  0.00  0.00    -0.084 Cl
ATOM     14  C19 UNL     1       8.763  10.087  22.987  0.00  0.00    +0.021 A 
ATOM     15  C20 UNL     1       9.836   9.190  22.955  0.00  0.00    +0.014 A 
ENDBRANCH   5   9
BRANCH   1  16
ATOM     16  C11 UNL     1      12.397   2.715  20.677  0.00  0.00    +0.139 C 
BRANCH  16  22
ATOM     17  C1  UNL     1      15.207   1.506  20.103  0.00  0.00    +0.172 C 
ATOM     18  N1  UNL     1      14.390   1.258  21.286  0.00  0.00    -0.270 N 
ATOM     19  N2  UNL     1      14.759   0.458  22.271  0.00  0.00    -0.171 NA
ATOM     20  C2  UNL     1      13.775   0.458  23.197  0.00  0.00    +0.093 A 
ATOM     21  C9  UNL     1      12.747   1.291  22.776  0.00  0.00    +0.054 A 
ATOM     22  C10 UNL     1      13.178   1.783  21.561  0.00  0.00    +0.053 A 
BRANCH  20  23
ATOM     23  C3  UNL     1      13.828  -0.333  24.450  0.00  0.00    +0.002 A 
ATOM     24  C4  UNL     1      13.197   0.149  25.612  0.00  0.00    +0.013 A 
ATOM     25  C5  UNL     1      13.238  -0.585  26.801  0.00  0.00    +0.039 A 
ATOM     26  C6  UNL     1      13.909  -1.810  26.845  0.00  0.00    +0.123 A 
ATOM     27  F1  UNL     1      13.948  -2.521  27.999  0.00  0.00    -0.205 F 
ATOM     28  C7  UNL     1      14.539  -2.300  25.700  0.00  0.00    +0.039 A 
ATOM     29  C8  UNL     1      14.501  -1.569  24.508  0.00  0.00    +0.013 A 
ENDBRANCH  20  23
ENDBRANCH  16  22
ENDBRANCH   1  16
TORSDOF 4
ENDMDL
MODEL 6
REMARK VINA RESULT:    -6.728     12.481     15.195
REMARK INTER + INTRA:          -8.770
REMARK INTER:                  -8.448
REMARK INTRA:                  -0.322
REMARK UNBOUND:                -0.468
REMARK  Name = /home/qwerty/github/datacon2025hack/step_04_hit_selection/docking/ligands/lig_268.pdb
REMARK  5 active torsions:
REMARK  status: ('A' for Active; 'I' for Inactive)
REMARK    1  A    between atoms: C1_1  and  N1_2
REMARK    2  A    between atoms: C2_4  and  C3_5
REMARK    3  A    between atoms: C10_13  and  C11_14
REMARK    4  A    between atoms: C11_14  and  N3_15
REMARK    5  A    between atoms: C14_19  and  C15_21
REMARK                            x       y       z     vdW  Elec       q    Type
REMARK                         _______ _______ _______ _____ _____    ______ ____
ROOT
ATOM      1  N3  UNL     1       8.304   8.514  22.882  0.00  0.00    -0.294 NA
ATOM      2  C12 UNL     1       8.036   9.930  23.224  0.00  0.00    +0.104 C 
ATOM      3  C13 UNL     1       7.798  10.080  24.729  0.00  0.00    +0.123 C 
ATOM      4  N4  UNL     1       8.924   9.491  25.458  0.00  0.00    -0.295 N 
ATOM      5  C14 UNL     1       9.731  10.280  26.352  0.00  0.00    +0.247 C 
ATOM      6  O1  UNL     1      10.987  10.178  26.301  0.00  0.00    -0.270 OA
ATOM      7  C21 UNL     1       9.317   8.126  25.099  0.00  0.00    +0.123 C 
ATOM      8  C22 UNL     1       9.514   8.037  23.584  0.00  0.00    +0.104 C 
ENDROOT
BRANCH   5   9
ATOM      9  C15 UNL     1       9.119  11.208  27.332  0.00  0.00    +0.037 A 
ATOM     10  C16 UNL     1       8.252  10.718  28.326  0.00  0.00    +0.014 A 
ATOM     11  C17 UNL     1       7.665  11.591  29.246  0.00  0.00    +0.021 A 
ATOM     12  C18 UNL     1       7.929  12.961  29.180  0.00  0.00    +0.041 A 
ATOM     13 CL1  UNL     1       7.189  14.054  30.336  0.00  0.00    -0.084 Cl
ATOM     14  C19 UNL     1       8.777  13.460  28.189  0.00  0.00    +0.021 A 
ATOM     15  C20 UNL     1       9.368  12.591  27.267  0.00  0.00    +0.014 A 
ENDBRANCH   5   9
BRANCH   1  16
ATOM     16  C11 UNL     1       8.472   8.353  21.423  0.00  0.00    +0.139 C 
BRANCH  16  22
ATOM     17  C1  UNL     1       6.927   5.671  21.092  0.00  0.00    +0.172 C 
ATOM     18  N1  UNL     1       8.370   5.851  20.981  0.00  0.00    -0.270 N 
ATOM     19  N2  UNL     1       9.210   4.861  20.731  0.00  0.00    -0.171 NA
ATOM     20  C2  UNL     1      10.459   5.374  20.697  0.00  0.00    +0.093 A 
ATOM     21  C9  UNL     1      10.401   6.741  20.935  0.00  0.00    +0.054 A 
ATOM     22  C10 UNL     1       9.058   7.005  21.106  0.00  0.00    +0.053 A 
BRANCH  20  23
ATOM     23  C3  UNL     1      11.673   4.562  20.447  0.00  0.00    +0.002 A 
ATOM     24  C4  UNL     1      12.775   5.131  19.782  0.00  0.00    +0.013 A 
ATOM     25  C5  UNL     1      13.927   4.377  19.539  0.00  0.00    +0.039 A 
ATOM     26  C6  UNL     1      13.994   3.046  19.958  0.00  0.00    +0.123 A 
ATOM     27  F1  UNL     1      15.112   2.316  19.722  0.00  0.00    -0.205 F 
ATOM     28  C7  UNL     1      12.909   2.468  20.619  0.00  0.00    +0.039 A 
ATOM     29  C8  UNL     1      11.754   3.219  20.864  0.00  0.00    +0.013 A 
ENDBRANCH  20  23
ENDBRANCH  16  22
ENDBRANCH   1  16
TORSDOF 4
ENDMDL
MODEL 7
REMARK VINA RESULT:    -6.710     12.260     15.442
REMARK INTER + INTRA:          -8.747
REMARK INTER:                  -8.063
REMARK INTRA:                  -0.684
REMARK UNBOUND:                -0.468
REMARK  Name = /home/qwerty/github/datacon2025hack/step_04_hit_selection/docking/ligands/lig_268.pdb
REMARK  5 active torsions:
REMARK  status: ('A' for Active; 'I' for Inactive)
REMARK    1  A    between atoms: C1_1  and  N1_2
REMARK    2  A    between atoms: C2_4  and  C3_5
REMARK    3  A    between atoms: C10_13  and  C11_14
REMARK    4  A    between atoms: C11_14  and  N3_15
REMARK    5  A    between atoms: C14_19  and  C15_21
REMARK                            x       y       z     vdW  Elec       q    Type
REMARK                         _______ _______ _______ _____ _____    ______ ____
ROOT
ATOM      1  N3  UNL     1      21.342   4.192  25.485  0.00  0.00    -0.294 NA
ATOM      2  C12 UNL     1      21.438   4.781  26.840  0.00  0.00    +0.104 C 
ATOM      3  C13 UNL     1      20.834   3.833  27.879  0.00  0.00    +0.123 C 
ATOM      4  N4  UNL     1      21.464   2.515  27.754  0.00  0.00    -0.295 N 
ATOM      5  C14 UNL     1      22.181   1.922  28.852  0.00  0.00    +0.247 C 
ATOM      6  O1  UNL     1      23.303   1.386  28.638  0.00  0.00    -0.270 OA
ATOM      7  C21 UNL     1      21.501   1.913  26.420  0.00  0.00    +0.123 C 
ATOM      8  C22 UNL     1      22.089   2.918  25.426  0.00  0.00    +0.104 C 
ENDROOT
BRANCH   5   9
ATOM      9  C15 UNL     1      21.630   1.923  30.228  0.00  0.00    +0.037 A 
ATOM     10  C16 UNL     1      22.169   2.779  31.207  0.00  0.00    +0.014 A 
ATOM     11  C17 UNL     1      21.658   2.776  32.508  0.00  0.00    +0.021 A 
ATOM     12  C18 UNL     1      20.612   1.916  32.849  0.00  0.00    +0.041 A 
ATOM     13 CL1  UNL     1      19.974   1.915  34.484  0.00  0.00    -0.084 Cl
ATOM     14  C19 UNL     1      20.078   1.053  31.889  0.00  0.00    +0.021 A 
ATOM     15  C20 UNL     1      20.585   1.052  30.586  0.00  0.00    +0.014 A 
ENDBRANCH   5   9
BRANCH   1  16
ATOM     16  C11 UNL     1      21.865   5.129  24.470  0.00  0.00    +0.139 C 
BRANCH  16  22
ATOM     17  C1  UNL     1      22.582   6.272  21.665  0.00  0.00    +0.172 C 
ATOM     18  N1  UNL     1      21.329   5.622  22.033  0.00  0.00    -0.270 N 
ATOM     19  N2  UNL     1      20.323   5.450  21.193  0.00  0.00    -0.171 NA
ATOM     20  C2  UNL     1      19.330   4.820  21.857  0.00  0.00    +0.093 A 
ATOM     21  C9  UNL     1      19.728   4.586  23.167  0.00  0.00    +0.054 A 
ATOM     22  C10 UNL     1      21.004   5.106  23.237  0.00  0.00    +0.053 A 
BRANCH  20  23
ATOM     23  C3  UNL     1      18.031   4.461  21.241  0.00  0.00    +0.002 A 
ATOM     24  C4  UNL     1      17.398   5.357  20.359  0.00  0.00    +0.013 A 
ATOM     25  C5  UNL     1      16.173   5.032  19.772  0.00  0.00    +0.039 A 
ATOM     26  C6  UNL     1      15.563   3.808  20.055  0.00  0.00    +0.123 A 
ATOM     27  F1  UNL     1      14.374   3.494  19.484  0.00  0.00    -0.205 F 
ATOM     28  C7  UNL     1      16.178   2.908  20.928  0.00  0.00    +0.039 A 
ATOM     29  C8  UNL     1      17.405   3.230  21.519  0.00  0.00    +0.013 A 
ENDBRANCH  20  23
ENDBRANCH  16  22
ENDBRANCH   1  16
TORSDOF 4
ENDMDL
MODEL 8
REMARK VINA RESULT:    -6.678      4.814     10.269
REMARK INTER + INTRA:          -8.708
REMARK INTER:                  -8.024
REMARK INTRA:                  -0.684
REMARK UNBOUND:                -0.468
REMARK  Name = /home/qwerty/github/datacon2025hack/step_04_hit_selection/docking/ligands/lig_268.pdb
REMARK  5 active torsions:
REMARK  status: ('A' for Active; 'I' for Inactive)
REMARK    1  A    between atoms: C1_1  and  N1_2
REMARK    2  A    between atoms: C2_4  and  C3_5
REMARK    3  A    between atoms: C10_13  and  C11_14
REMARK    4  A    between atoms: C11_14  and  N3_15
REMARK    5  A    between atoms: C14_19  and  C15_21
REMARK                            x       y       z     vdW  Elec       q    Type
REMARK                         _______ _______ _______ _____ _____    ______ ____
ROOT
ATOM      1  N3  UNL     1      15.551  12.991  35.004  0.00  0.00    -0.294 NA
ATOM      2  C12 UNL     1      15.871  11.713  35.679  0.00  0.00    +0.104 C 
ATOM      3  C13 UNL     1      17.099  11.061  35.037  0.00  0.00    +0.123 C 
ATOM      4  N4  UNL     1      18.205  12.023  35.023  0.00  0.00    -0.295 N 
ATOM      5  C14 UNL     1      19.446  11.746  35.698  0.00  0.00    +0.247 C 
ATOM      6  O1  UNL     1      19.975  12.643  36.409  0.00  0.00    -0.270 OA
ATOM      7  C21 UNL     1      17.933  13.350  34.465  0.00  0.00    +0.123 C 
ATOM      8  C22 UNL     1      16.684  13.933  35.128  0.00  0.00    +0.104 C 
ENDROOT
BRANCH   5   9
ATOM      9  C15 UNL     1      20.117  10.430  35.574  0.00  0.00    +0.037 A 
ATOM     10  C16 UNL     1      20.021   9.485  36.612  0.00  0.00    +0.014 A 
ATOM     11  C17 UNL     1      20.661   8.247  36.502  0.00  0.00    +0.021 A 
ATOM     12  C18 UNL     1      21.410   7.942  35.363  0.00  0.00    +0.041 A 
ATOM     13 CL1  UNL     1      22.212   6.387  35.229  0.00  0.00    -0.084 Cl
ATOM     14  C19 UNL     1      21.523   8.879  34.332  0.00  0.00    +0.021 A 
ATOM     15  C20 UNL     1      20.884  10.118  34.437  0.00  0.00    +0.014 A 
ENDBRANCH   5   9
BRANCH   1  16
ATOM     16  C11 UNL     1      14.330  13.593  35.577  0.00  0.00    +0.139 C 
BRANCH  16  22
ATOM     17  C1  UNL     1      11.254  13.481  36.033  0.00  0.00    +0.172 C 
ATOM     18  N1  UNL     1      11.927  13.640  34.749  0.00  0.00    -0.270 N 
ATOM     19  N2  UNL     1      11.284  13.746  33.598  0.00  0.00    -0.171 NA
ATOM     20  C2  UNL     1      12.206  13.879  32.619  0.00  0.00    +0.093 A 
ATOM     21  C9  UNL     1      13.477  13.855  33.177  0.00  0.00    +0.054 A 
ATOM     22  C10 UNL     1      13.257  13.707  34.531  0.00  0.00    +0.053 A 
BRANCH  20  23
ATOM     23  C3  UNL     1      11.863  14.018  31.183  0.00  0.00    +0.002 A 
ATOM     24  C4  UNL     1      10.654  13.490  30.695  0.00  0.00    +0.013 A 
ATOM     25  C5  UNL     1      10.318  13.613  29.344  0.00  0.00    +0.039 A 
ATOM     26  C6  UNL     1      11.184  14.266  28.463  0.00  0.00    +0.123 A 
ATOM     27  F1  UNL     1      10.855  14.385  27.153  0.00  0.00    -0.205 F 
ATOM     28  C7  UNL     1      12.387  14.796  28.934  0.00  0.00    +0.039 A 
ATOM     29  C8  UNL     1      12.728  14.674  30.285  0.00  0.00    +0.013 A 
ENDBRANCH  20  23
ENDBRANCH  16  22
ENDBRANCH   1  16
TORSDOF 4
ENDMDL
MODEL 9
REMARK VINA RESULT:    -6.660     13.393     15.475
REMARK INTER + INTRA:          -8.685
REMARK INTER:                  -8.038
REMARK INTRA:                  -0.647
REMARK UNBOUND:                -0.468
REMARK  Name = /home/qwerty/github/datacon2025hack/step_04_hit_selection/docking/ligands/lig_268.pdb
REMARK  5 active torsions:
REMARK  status: ('A' for Active; 'I' for Inactive)
REMARK    1  A    between atoms: C1_1  and  N1_2
REMARK    2  A    between atoms: C2_4  and  C3_5
REMARK    3  A    between atoms: C10_13  and  C11_14
REMARK    4  A    between atoms: C11_14  and  N3_15
REMARK    5  A    between atoms: C14_19  and  C15_21
REMARK                            x       y       z     vdW  Elec       q    Type
REMARK                         _______ _______ _______ _____ _____    ______ ____
ROOT
ATOM      1  N3  UNL     1      10.451   5.317  21.632  0.00  0.00    -0.294 NA
ATOM      2  C12 UNL     1       9.794   5.529  22.941  0.00  0.00    +0.104 C 
ATOM      3  C13 UNL     1      10.296   6.822  23.589  0.00  0.00    +0.123 C 
ATOM      4  N4  UNL     1      10.124   7.933  22.647  0.00  0.00    -0.295 N 
ATOM      5  C14 UNL     1       9.304   9.070  22.974  0.00  0.00    +0.247 C 
ATOM      6  O1  UNL     1       8.493   9.512  22.115  0.00  0.00    -0.270 OA
ATOM      7  C21 UNL     1      10.657   7.754  21.295  0.00  0.00    +0.123 C 
ATOM      8  C22 UNL     1      10.140   6.436  20.716  0.00  0.00    +0.104 C 
ENDROOT
BRANCH   5   9
ATOM      9  C15 UNL     1       9.393   9.735  24.296  0.00  0.00    +0.037 A 
ATOM     10  C16 UNL     1       8.232   9.952  25.060  0.00  0.00    +0.014 A 
ATOM     11  C17 UNL     1       8.312  10.587  26.303  0.00  0.00    +0.021 A 
ATOM     12  C18 UNL     1       9.547  11.020  26.792  0.00  0.00    +0.041 A 
ATOM     13 CL1  UNL     1       9.642  11.818  28.352  0.00  0.00    -0.084 Cl
ATOM     14  C19 UNL     1      10.704  10.822  26.035  0.00  0.00    +0.021 A 
ATOM     15  C20 UNL     1      10.630  10.186  24.792  0.00  0.00    +0.014 A 
ENDBRANCH   5   9
BRANCH   1  16
ATOM     16  C11 UNL     1      10.019   4.039  21.031  0.00  0.00    +0.139 C 
BRANCH  16  22
ATOM     17  C1  UNL     1       9.392   2.015  23.309  0.00  0.00    +0.172 C 
ATOM     18  N1  UNL     1      10.608   2.053  22.505  0.00  0.00    -0.270 N 
ATOM     19  N2  UNL     1      11.616   1.213  22.668  0.00  0.00    -0.171 NA
ATOM     20  C2  UNL     1      12.570   1.530  21.765  0.00  0.00    +0.093 A 
ATOM     21  C9  UNL     1      12.145   2.612  21.006  0.00  0.00    +0.054 A 
ATOM     22  C10 UNL     1      10.893   2.911  21.503  0.00  0.00    +0.053 A 
BRANCH  20  23
ATOM     23  C3  UNL     1      13.859   0.808  21.648  0.00  0.00    +0.002 A 
ATOM     24  C4  UNL     1      14.232  -0.130  22.629  0.00  0.00    +0.013 A 
ATOM     25  C5  UNL     1      15.445  -0.818  22.531  0.00  0.00    +0.039 A 
ATOM     26  C6  UNL     1      16.301  -0.579  21.452  0.00  0.00    +0.123 A 
ATOM     27  F1  UNL     1      17.477  -1.248  21.359  0.00  0.00    -0.205 F 
ATOM     28  C7  UNL     1      15.944   0.348  20.472  0.00  0.00    +0.039 A 
ATOM     29  C8  UNL     1      14.731   1.039  20.566  0.00  0.00    +0.013 A 
ENDBRANCH  20  23
ENDBRANCH  16  22
ENDBRANCH   1  16
TORSDOF 4
ENDMDL
