REMARK  Name = /home/qwerty/github/datacon2025hack/step_04_hit_selection/docking/ligands/lig_185.pdb
REMARK  6 active torsions:
REMARK  status: ('A' for Active; 'I' for Inactive)
REMARK    1  A    between atoms: C1_1  and  C2_2
REMARK    2  A    between atoms: N3_8  and  C5_9
REMARK    3  A    between atoms: C5_9  and  C6_10
REMARK    4  A    between atoms: C6_10  and  C7_11
REMARK    5  A    between atoms: C6_10  and  N4_12
REMARK    6  A    between atoms: N6_23  and  C17_24
REMARK                            x       y       z     vdW  Elec       q    Type
REMARK                         _______ _______ _______ _____ _____    ______ ____
ROOT
ATOM      1  C1  UNL     1       4.427  -0.905  -2.840  0.00  0.00    +0.088 C 
ATOM      2  C2  UNL     1       3.771  -0.489  -1.560  0.00  0.00    +0.132 A 
ATOM      3  N1  UNL     1       2.633   0.234  -1.526  0.00  0.00    -0.198 NA
ATOM      4  C3  UNL     1       2.456   0.418  -0.200  0.00  0.00    +0.242 A 
ATOM      5  N2  UNL     1       1.373   1.164   0.372  0.00  0.00    -0.237 N 
ATOM      6  C4  UNL     1       0.304   1.738  -0.394  0.00  0.00    +0.306 C 
ATOM      7  O1  UNL     1       0.226   1.532  -1.634  0.00  0.00    -0.252 OA
ATOM      8  N3  UNL     1      -0.686   2.540   0.264  0.00  0.00    -0.298 N 
ATOM      9  N5  UNL     1       3.422  -0.152   0.544  0.00  0.00    -0.128 NA
ATOM     10  N6  UNL     1       4.239  -0.734  -0.316  0.00  0.00    -0.216 N 
ATOM     11  H4  UNL     1       1.369   1.300   1.408  0.00  0.00    +0.159 HD
ATOM     12  H5  UNL     1      -0.538   2.784   1.271  0.00  0.00    +0.150 HD
ENDROOT
BRANCH  10  13
ATOM     13  C17 UNL     1       5.424  -1.446   0.079  0.00  0.00    +0.067 A 
ATOM     14  C18 UNL     1       5.781  -2.660  -0.535  0.00  0.00    +0.028 A 
ATOM     15  C19 UNL     1       6.928  -3.347  -0.126  0.00  0.00    +0.002 A 
ATOM     16  C20 UNL     1       7.720  -2.838   0.908  0.00  0.00    +0.000 A 
ATOM     17  C21 UNL     1       7.361  -1.644   1.539  0.00  0.00    +0.002 A 
ATOM     18  C22 UNL     1       6.215  -0.954   1.132  0.00  0.00    +0.028 A 
ENDBRANCH  10  13
BRANCH   8  19
ATOM     19  C5  UNL     1      -1.783   3.193  -0.449  0.00  0.00    +0.124 C 
BRANCH  19  20
ATOM     20  C6  UNL     1      -3.111   3.081   0.340  0.00  0.00    +0.071 C 
ATOM     21  C7  UNL     1      -4.210   3.891  -0.357  0.00  0.00    +0.026 C 
BRANCH  20  22
ATOM     22  N4  UNL     1      -3.589   1.690   0.572  0.00  0.00    -0.294 NA
ATOM     23  C8  UNL     1      -2.989   1.046   1.756  0.00  0.00    +0.090 C 
ATOM     24  C9  UNL     1      -3.874  -0.123   2.195  0.00  0.00    +0.051 C 
ATOM     25  C10 UNL     1      -4.271  -0.999   1.033  0.00  0.00    -0.042 A 
ATOM     26  C11 UNL     1      -4.837  -2.259   1.283  0.00  0.00    +0.004 A 
ATOM     27  C12 UNL     1      -5.248  -3.071   0.223  0.00  0.00    +0.000 A 
ATOM     28  C13 UNL     1      -5.104  -2.630  -1.093  0.00  0.00    +0.000 A 
ATOM     29  C14 UNL     1      -4.557  -1.371  -1.355  0.00  0.00    +0.005 A 
ATOM     30  C15 UNL     1      -4.158  -0.538  -0.299  0.00  0.00    -0.030 A 
ATOM     31  C16 UNL     1      -3.511   0.791  -0.599  0.00  0.00    +0.120 C 
ENDBRANCH  20  22
ENDBRANCH  19  20
ENDBRANCH   8  19
TORSDOF 4
