MODEL 1
REMARK VINA RESULT:    -8.196      0.000      0.000
REMARK INTER + INTRA:         -11.083
REMARK INTER:                  -9.633
REMARK INTRA:                  -1.450
REMARK UNBOUND:                -1.450
REMARK  Name = /home/qwerty/github/datacon2025hack/step_04_hit_selection/docking/ligands/lig_463.pdb
REMARK  4 active torsions:
REMARK  status: ('A' for Active; 'I' for Inactive)
REMARK    1  A    between atoms: C1_1  and  C2_2
REMARK    2  A    between atoms: C10_10  and  C11_11
REMARK    3  A    between atoms: N1_13  and  C12_14
REMARK    4  A    between atoms: N3_21  and  C17_22
REMARK                            x       y       z     vdW  Elec       q    Type
REMARK                         _______ _______ _______ _____ _____    ______ ____
ROOT
ATOM      1  C12 UNL     1      21.195   8.470  36.911  0.00  0.00    +0.036 A 
ATOM      2  C13 UNL     1      21.592   7.355  37.696  0.00  0.00    +0.025 A 
ATOM      3  C14 UNL     1      22.579   6.461  37.235  0.00  0.00    +0.029 A 
ATOM      4  C15 UNL     1      23.164   6.729  35.998  0.00  0.00    +0.067 A 
ATOM      5  N2  UNL     1      24.103   6.013  35.351  0.00  0.00    -0.306 N 
ATOM      6  C16 UNL     1      24.303   6.708  34.203  0.00  0.00    +0.332 A 
ATOM      7  O2  UNL     1      25.134   6.354  33.323  0.00  0.00    -0.246 OA
ATOM      8  N3  UNL     1      23.537   7.828  34.109  0.00  0.00    -0.261 N 
ATOM      9  C25 UNL     1      22.817   7.821  35.250  0.00  0.00    +0.077 A 
ATOM     10  C26 UNL     1      21.825   8.708  35.665  0.00  0.00    +0.051 A 
ATOM     11  H15 UNL     1      24.568   5.128  35.660  0.00  0.00    +0.170 HD
ENDROOT
BRANCH   8  12
ATOM     12  C17 UNL     1      23.501   8.791  33.041  0.00  0.00    +0.052 A 
ATOM     13  C18 UNL     1      24.710   9.285  32.488  0.00  0.00    +0.028 A 
ATOM     14  C19 UNL     1      24.688  10.182  31.401  0.00  0.00    +0.028 A 
ATOM     15  C20 UNL     1      23.447  10.569  30.898  0.00  0.00    +0.047 A 
ATOM     16  N4  UNL     1      23.201  11.402  29.869  0.00  0.00    -0.361 N 
ATOM     17  C21 UNL     1      21.854  11.467  29.757  0.00  0.00    +0.083 A 
ATOM     18  C22 UNL     1      21.241  10.671  30.720  0.00  0.00    +0.027 A 
ATOM     19  C23 UNL     1      22.277  10.107  31.437  0.00  0.00    +0.002 A 
ATOM     20  C24 UNL     1      22.261   9.225  32.514  0.00  0.00    +0.036 A 
ATOM     21  H18 UNL     1      23.903  11.901  29.276  0.00  0.00    +0.165 HD
ENDBRANCH   8  12
BRANCH   1  24
ATOM     22  C11 UNL     1      19.086   9.835  36.638  0.00  0.00    +0.258 C 
ATOM     23  O1  UNL     1      18.551   9.068  35.789  0.00  0.00    -0.271 OA
ATOM     24  N1  UNL     1      20.202   9.378  37.416  0.00  0.00    -0.282 N 
ATOM     25  H12 UNL     1      20.305   9.740  38.389  0.00  0.00    +0.155 HD
BRANCH  22  35
ATOM     26  C1  UNL     1      18.886  13.649  30.659  0.00  0.00    +0.044 C 
ATOM     27  C2  UNL     1      18.555  13.086  32.009  0.00  0.00    -0.050 A 
ATOM     28  C3  UNL     1      17.240  12.695  32.313  0.00  0.00    +0.007 A 
ATOM     29  C4  UNL     1      16.931  12.176  33.576  0.00  0.00    +0.046 A 
ATOM     30  C5  UNL     1      17.925  12.061  34.552  0.00  0.00    +0.125 A 
ATOM     31  C6  UNL     1      19.241  12.485  34.271  0.00  0.00    -0.005 A 
ATOM     32  C7  UNL     1      19.551  12.983  32.995  0.00  0.00    +0.010 A 
ATOM     33  C8  UNL     1      20.322  12.340  35.314  0.00  0.00    +0.043 C 
ATOM     34  C9  UNL     1      19.734  12.258  36.735  0.00  0.00    +0.059 C 
ATOM     35  C10 UNL     1      18.579  11.241  36.807  0.00  0.00    +0.259 C 
ATOM     36  O3  UNL     1      17.593  11.542  35.813  0.00  0.00    -0.479 OA
ENDBRANCH  22  35
ENDBRANCH   1  24
TORSDOF 3
ENDMDL
MODEL 2
REMARK VINA RESULT:    -7.677     11.163     13.270
REMARK INTER + INTRA:         -10.473
REMARK INTER:                  -9.173
REMARK INTRA:                  -1.300
REMARK UNBOUND:                -1.450
REMARK  Name = /home/qwerty/github/datacon2025hack/step_04_hit_selection/docking/ligands/lig_463.pdb
REMARK  4 active torsions:
REMARK  status: ('A' for Active; 'I' for Inactive)
REMARK    1  A    between atoms: C1_1  and  C2_2
REMARK    2  A    between atoms: C10_10  and  C11_11
REMARK    3  A    between atoms: N1_13  and  C12_14
REMARK    4  A    between atoms: N3_21  and  C17_22
REMARK                            x       y       z     vdW  Elec       q    Type
REMARK                         _______ _______ _______ _____ _____    ______ ____
ROOT
ATOM      1  C12 UNL     1      19.971   1.425  24.781  0.00  0.00    +0.036 A 
ATOM      2  C13 UNL     1      20.469   2.517  24.021  0.00  0.00    +0.025 A 
ATOM      3  C14 UNL     1      21.030   3.642  24.657  0.00  0.00    +0.029 A 
ATOM      4  C15 UNL     1      21.102   3.628  26.049  0.00  0.00    +0.067 A 
ATOM      5  N2  UNL     1      21.573   4.587  26.867  0.00  0.00    -0.306 N 
ATOM      6  C16 UNL     1      21.401   4.066  28.108  0.00  0.00    +0.332 A 
ATOM      7  O2  UNL     1      21.739   4.674  29.160  0.00  0.00    -0.246 OA
ATOM      8  N3  UNL     1      20.850   2.823  28.100  0.00  0.00    -0.261 N 
ATOM      9  C25 UNL     1      20.660   2.564  26.790  0.00  0.00    +0.077 A 
ATOM     10  C26 UNL     1      20.074   1.450  26.193  0.00  0.00    +0.051 A 
ATOM     11  H15 UNL     1      21.977   5.517  26.607  0.00  0.00    +0.170 HD
ENDROOT
BRANCH   8  12
ATOM     12  C17 UNL     1      20.539   1.983  29.226  0.00  0.00    +0.052 A 
ATOM     13  C18 UNL     1      21.474   1.013  29.669  0.00  0.00    +0.028 A 
ATOM     14  C19 UNL     1      21.207   0.228  30.808  0.00  0.00    +0.028 A 
ATOM     15  C20 UNL     1      19.999   0.431  31.474  0.00  0.00    +0.047 A 
ATOM     16  N4  UNL     1      19.553  -0.200  32.577  0.00  0.00    -0.361 N 
ATOM     17  C21 UNL     1      18.339   0.334  32.845  0.00  0.00    +0.083 A 
ATOM     18  C22 UNL     1      18.012   1.310  31.907  0.00  0.00    +0.027 A 
ATOM     19  C23 UNL     1      19.087   1.354  31.043  0.00  0.00    +0.002 A 
ATOM     20  C24 UNL     1      19.315   2.143  29.919  0.00  0.00    +0.036 A 
ATOM     21  H18 UNL     1      20.039  -0.951  33.118  0.00  0.00    +0.165 HD
ENDBRANCH   8  12
BRANCH   1  24
ATOM     22  C11 UNL     1      18.077   0.230  23.611  0.00  0.00    +0.258 C 
ATOM     23  O1  UNL     1      17.528   1.275  23.162  0.00  0.00    -0.271 OA
ATOM     24  N1  UNL     1      19.422   0.280  24.106  0.00  0.00    -0.282 N 
ATOM     25  H12 UNL     1      20.023  -0.565  23.986  0.00  0.00    +0.155 HD
BRANCH  22  35
ATOM     26  C1  UNL     1      12.114   0.488  27.447  0.00  0.00    +0.044 C 
ATOM     27  C2  UNL     1      13.121   0.152  26.387  0.00  0.00    -0.050 A 
ATOM     28  C3  UNL     1      12.759   0.185  25.029  0.00  0.00    +0.007 A 
ATOM     29  C4  UNL     1      13.697  -0.135  24.040  0.00  0.00    +0.046 A 
ATOM     30  C5  UNL     1      14.996  -0.509  24.397  0.00  0.00    +0.125 A 
ATOM     31  C6  UNL     1      15.360  -0.580  25.758  0.00  0.00    -0.005 A 
ATOM     32  C7  UNL     1      14.423  -0.236  26.745  0.00  0.00    +0.010 A 
ATOM     33  C8  UNL     1      16.768  -0.960  26.146  0.00  0.00    +0.043 C 
ATOM     34  C9  UNL     1      17.473  -1.752  25.028  0.00  0.00    +0.059 C 
ATOM     35  C10 UNL     1      17.307  -1.062  23.661  0.00  0.00    +0.259 C 
ATOM     36  O3  UNL     1      15.920  -0.829  23.389  0.00  0.00    -0.479 OA
ENDBRANCH  22  35
ENDBRANCH   1  24
TORSDOF 3
ENDMDL
MODEL 3
REMARK VINA RESULT:    -7.662     13.428     15.921
REMARK INTER + INTRA:         -10.456
REMARK INTER:                  -9.236
REMARK INTRA:                  -1.219
REMARK UNBOUND:                -1.450
REMARK  Name = /home/qwerty/github/datacon2025hack/step_04_hit_selection/docking/ligands/lig_463.pdb
REMARK  4 active torsions:
REMARK  status: ('A' for Active; 'I' for Inactive)
REMARK    1  A    between atoms: C1_1  and  C2_2
REMARK    2  A    between atoms: C10_10  and  C11_11
REMARK    3  A    between atoms: N1_13  and  C12_14
REMARK    4  A    between atoms: N3_21  and  C17_22
REMARK                            x       y       z     vdW  Elec       q    Type
REMARK                         _______ _______ _______ _____ _____    ______ ____
ROOT
ATOM      1  C12 UNL     1       9.073   5.239  25.812  0.00  0.00    +0.036 A 
ATOM      2  C13 UNL     1       8.157   4.164  25.969  0.00  0.00    +0.025 A 
ATOM      3  C14 UNL     1       7.453   3.648  24.863  0.00  0.00    +0.029 A 
ATOM      4  C15 UNL     1       7.710   4.213  23.614  0.00  0.00    +0.067 A 
ATOM      5  N2  UNL     1       7.150   3.902  22.431  0.00  0.00    -0.306 N 
ATOM      6  C16 UNL     1       7.749   4.752  21.558  0.00  0.00    +0.332 A 
ATOM      7  O2  UNL     1       7.492   4.759  20.324  0.00  0.00    -0.246 OA
ATOM      8  N3  UNL     1       8.662   5.572  22.143  0.00  0.00    -0.261 N 
ATOM      9  C25 UNL     1       8.619   5.223  23.445  0.00  0.00    +0.077 A 
ATOM     10  C26 UNL     1       9.310   5.773  24.523  0.00  0.00    +0.051 A 
ATOM     11  H15 UNL     1       6.423   3.177  22.230  0.00  0.00    +0.170 HD
ENDROOT
BRANCH   8  12
ATOM     12  C17 UNL     1       9.479   6.578  21.519  0.00  0.00    +0.052 A 
ATOM     13  C18 UNL     1      10.767   6.245  21.027  0.00  0.00    +0.028 A 
ATOM     14  C19 UNL     1      11.551   7.206  20.359  0.00  0.00    +0.028 A 
ATOM     15  C20 UNL     1      11.023   8.488  20.207  0.00  0.00    +0.047 A 
ATOM     16  N4  UNL     1      11.596   9.544  19.599  0.00  0.00    -0.361 N 
ATOM     17  C21 UNL     1      10.707  10.560  19.703  0.00  0.00    +0.083 A 
ATOM     18  C22 UNL     1       9.564  10.146  20.381  0.00  0.00    +0.027 A 
ATOM     19  C23 UNL     1       9.788   8.820  20.692  0.00  0.00    +0.002 A 
ATOM     20  C24 UNL     1       8.990   7.897  21.362  0.00  0.00    +0.036 A 
ATOM     21  H18 UNL     1      12.535   9.580  19.141  0.00  0.00    +0.165 HD
ENDBRANCH   8  12
BRANCH   1  24
ATOM     22  C11 UNL     1       9.411   6.909  27.678  0.00  0.00    +0.258 C 
ATOM     23  O1  UNL     1       8.190   7.207  27.802  0.00  0.00    -0.271 OA
ATOM     24  N1  UNL     1       9.794   5.730  26.955  0.00  0.00    -0.282 N 
ATOM     25  H12 UNL     1      10.650   5.219  27.264  0.00  0.00    +0.155 HD
BRANCH  22  35
ATOM     26  C1  UNL     1       7.811  13.819  27.528  0.00  0.00    +0.044 C 
ATOM     27  C2  UNL     1       8.347  12.483  27.949  0.00  0.00    -0.050 A 
ATOM     28  C3  UNL     1       8.169  12.030  29.268  0.00  0.00    +0.007 A 
ATOM     29  C4  UNL     1       8.675  10.785  29.661  0.00  0.00    +0.046 A 
ATOM     30  C5  UNL     1       9.379   9.992  28.751  0.00  0.00    +0.125 A 
ATOM     31  C6  UNL     1       9.595  10.452  27.434  0.00  0.00    -0.005 A 
ATOM     32  C7  UNL     1       9.065  11.691  27.038  0.00  0.00    +0.010 A 
ATOM     33  C8  UNL     1      10.333   9.588  26.442  0.00  0.00    +0.043 C 
ATOM     34  C9  UNL     1      11.231   8.553  27.145  0.00  0.00    +0.059 C 
ATOM     35  C10 UNL     1      10.467   7.810  28.257  0.00  0.00    +0.259 C 
ATOM     36  O3  UNL     1       9.882   8.749  29.167  0.00  0.00    -0.479 OA
ENDBRANCH  22  35
ENDBRANCH   1  24
TORSDOF 3
ENDMDL
MODEL 4
REMARK VINA RESULT:    -7.620     12.203     14.403
REMARK INTER + INTRA:         -10.407
REMARK INTER:                  -9.363
REMARK INTRA:                  -1.044
REMARK UNBOUND:                -1.450
REMARK  Name = /home/qwerty/github/datacon2025hack/step_04_hit_selection/docking/ligands/lig_463.pdb
REMARK  4 active torsions:
REMARK  status: ('A' for Active; 'I' for Inactive)
REMARK    1  A    between atoms: C1_1  and  C2_2
REMARK    2  A    between atoms: C10_10  and  C11_11
REMARK    3  A    between atoms: N1_13  and  C12_14
REMARK    4  A    between atoms: N3_21  and  C17_22
REMARK                            x       y       z     vdW  Elec       q    Type
REMARK                         _______ _______ _______ _____ _____    ______ ____
ROOT
ATOM      1  C12 UNL     1      17.679   0.299  24.574  0.00  0.00    +0.036 A 
ATOM      2  C13 UNL     1      17.668  -1.103  24.343  0.00  0.00    +0.025 A 
ATOM      3  C14 UNL     1      17.110  -1.636  23.164  0.00  0.00    +0.029 A 
ATOM      4  C15 UNL     1      16.598  -0.737  22.229  0.00  0.00    +0.067 A 
ATOM      5  N2  UNL     1      16.004  -1.011  21.053  0.00  0.00    -0.306 N 
ATOM      6  C16 UNL     1      15.694   0.214  20.556  0.00  0.00    +0.332 A 
ATOM      7  O2  UNL     1      15.127   0.378  19.442  0.00  0.00    -0.246 OA
ATOM      8  N3  UNL     1      16.075   1.237  21.366  0.00  0.00    -0.261 N 
ATOM      9  C25 UNL     1      16.638   0.618  22.424  0.00  0.00    +0.077 A 
ATOM     10  C26 UNL     1      17.157   1.174  23.591  0.00  0.00    +0.051 A 
ATOM     11  H15 UNL     1      15.822  -1.947  20.622  0.00  0.00    +0.170 HD
ENDROOT
BRANCH   8  12
ATOM     12  C17 UNL     1      15.912   2.650  21.147  0.00  0.00    +0.052 A 
ATOM     13  C18 UNL     1      14.786   3.327  21.680  0.00  0.00    +0.028 A 
ATOM     14  C19 UNL     1      14.646   4.721  21.524  0.00  0.00    +0.028 A 
ATOM     15  C20 UNL     1      15.643   5.403  20.827  0.00  0.00    +0.047 A 
ATOM     16  N4  UNL     1      15.710   6.724  20.573  0.00  0.00    -0.361 N 
ATOM     17  C21 UNL     1      16.852   6.910  19.871  0.00  0.00    +0.083 A 
ATOM     18  C22 UNL     1      17.514   5.700  19.679  0.00  0.00    +0.027 A 
ATOM     19  C23 UNL     1      16.724   4.753  20.297  0.00  0.00    +0.002 A 
ATOM     20  C24 UNL     1      16.890   3.377  20.428  0.00  0.00    +0.036 A 
ATOM     21  H18 UNL     1      15.022   7.459  20.854  0.00  0.00    +0.165 HD
ENDBRANCH   8  12
BRANCH   1  24
ATOM     22  C11 UNL     1      17.510   1.237  26.914  0.00  0.00    +0.258 C 
ATOM     23  O1  UNL     1      16.436   0.642  27.210  0.00  0.00    -0.271 OA
ATOM     24  N1  UNL     1      18.275   0.817  25.775  0.00  0.00    -0.282 N 
ATOM     25  H12 UNL     1      19.313   0.912  25.817  0.00  0.00    +0.155 HD
BRANCH  22  35
ATOM     26  C1  UNL     1      24.181   0.771  29.282  0.00  0.00    +0.044 C 
ATOM     27  C2  UNL     1      22.884   1.308  28.755  0.00  0.00    -0.050 A 
ATOM     28  C3  UNL     1      22.873   2.208  27.676  0.00  0.00    +0.007 A 
ATOM     29  C4  UNL     1      21.662   2.714  27.189  0.00  0.00    +0.046 A 
ATOM     30  C5  UNL     1      20.454   2.344  27.787  0.00  0.00    +0.125 A 
ATOM     31  C6  UNL     1      20.454   1.469  28.894  0.00  0.00    -0.005 A 
ATOM     32  C7  UNL     1      21.670   0.946  29.364  0.00  0.00    +0.010 A 
ATOM     33  C8  UNL     1      19.150   1.048  29.527  0.00  0.00    +0.043 C 
ATOM     34  C9  UNL     1      18.023   2.055  29.231  0.00  0.00    +0.059 C 
ATOM     35  C10 UNL     1      17.968   2.413  27.734  0.00  0.00    +0.259 C 
ATOM     36  O3  UNL     1      19.251   2.866  27.286  0.00  0.00    -0.479 OA
ENDBRANCH  22  35
ENDBRANCH   1  24
TORSDOF 3
ENDMDL
MODEL 5
REMARK VINA RESULT:    -7.457      5.755      7.072
REMARK INTER + INTRA:         -10.214
REMARK INTER:                  -8.643
REMARK INTRA:                  -1.571
REMARK UNBOUND:                -1.450
REMARK  Name = /home/qwerty/github/datacon2025hack/step_04_hit_selection/docking/ligands/lig_463.pdb
REMARK  4 active torsions:
REMARK  status: ('A' for Active; 'I' for Inactive)
REMARK    1  A    between atoms: C1_1  and  C2_2
REMARK    2  A    between atoms: C10_10  and  C11_11
REMARK    3  A    between atoms: N1_13  and  C12_14
REMARK    4  A    between atoms: N3_21  and  C17_22
REMARK                            x       y       z     vdW  Elec       q    Type
REMARK                         _______ _______ _______ _____ _____    ______ ____
ROOT
ATOM      1  C12 UNL     1      21.563   3.196  32.952  0.00  0.00    +0.036 A 
ATOM      2  C13 UNL     1      20.908   2.159  33.668  0.00  0.00    +0.025 A 
ATOM      3  C14 UNL     1      19.963   1.330  33.034  0.00  0.00    +0.029 A 
ATOM      4  C15 UNL     1      19.718   1.549  31.679  0.00  0.00    +0.067 A 
ATOM      5  N2  UNL     1      18.852   0.903  30.876  0.00  0.00    -0.306 N 
ATOM      6  C16 UNL     1      19.009   1.514  29.675  0.00  0.00    +0.332 A 
ATOM      7  O2  UNL     1      18.367   1.176  28.644  0.00  0.00    -0.246 OA
ATOM      8  N3  UNL     1      19.939   2.507  29.692  0.00  0.00    -0.261 N 
ATOM      9  C25 UNL     1      20.371   2.520  30.969  0.00  0.00    +0.077 A 
ATOM     10  C26 UNL     1      21.291   3.375  31.574  0.00  0.00    +0.051 A 
ATOM     11  H15 UNL     1      18.208   0.115  31.120  0.00  0.00    +0.170 HD
ENDROOT
BRANCH   8  12
ATOM     12  C17 UNL     1      20.359   3.347  28.602  0.00  0.00    +0.052 A 
ATOM     13  C18 UNL     1      19.688   4.571  28.348  0.00  0.00    +0.028 A 
ATOM     14  C19 UNL     1      20.129   5.431  27.323  0.00  0.00    +0.028 A 
ATOM     15  C20 UNL     1      21.234   5.036  26.569  0.00  0.00    +0.047 A 
ATOM     16  N4  UNL     1      21.819   5.705  25.557  0.00  0.00    -0.361 N 
ATOM     17  C21 UNL     1      22.846   4.928  25.142  0.00  0.00    +0.083 A 
ATOM     18  C22 UNL     1      22.914   3.759  25.895  0.00  0.00    +0.027 A 
ATOM     19  C23 UNL     1      21.875   3.850  26.799  0.00  0.00    +0.002 A 
ATOM     20  C24 UNL     1      21.463   2.974  27.800  0.00  0.00    +0.036 A 
ATOM     21  H18 UNL     1      21.539   6.634  25.166  0.00  0.00    +0.165 HD
ENDBRANCH   8  12
BRANCH   1  24
ATOM     22  C11 UNL     1      22.259   5.332  34.110  0.00  0.00    +0.258 C 
ATOM     23  O1  UNL     1      21.112   5.607  34.563  0.00  0.00    -0.271 OA
ATOM     24  N1  UNL     1      22.540   4.013  33.619  0.00  0.00    -0.282 N 
ATOM     25  H12 UNL     1      23.508   3.641  33.735  0.00  0.00    +0.155 HD
BRANCH  22  35
ATOM     26  C1  UNL     1      20.677  10.846  29.935  0.00  0.00    +0.044 C 
ATOM     27  C2  UNL     1      21.210  10.009  31.060  0.00  0.00    -0.050 A 
ATOM     28  C3  UNL     1      21.036  10.416  32.393  0.00  0.00    +0.007 A 
ATOM     29  C4  UNL     1      21.539   9.637  33.442  0.00  0.00    +0.046 A 
ATOM     30  C5  UNL     1      22.238   8.458  33.170  0.00  0.00    +0.125 A 
ATOM     31  C6  UNL     1      22.451   8.057  31.833  0.00  0.00    -0.005 A 
ATOM     32  C7  UNL     1      21.924   8.830  30.786  0.00  0.00    +0.010 A 
ATOM     33  C8  UNL     1      23.184   6.772  31.536  0.00  0.00    +0.043 C 
ATOM     34  C9  UNL     1      24.082   6.343  32.712  0.00  0.00    +0.059 C 
ATOM     35  C10 UNL     1      23.319   6.398  34.049  0.00  0.00    +0.259 C 
ATOM     36  O3  UNL     1      22.739   7.693  34.236  0.00  0.00    -0.479 OA
ENDBRANCH  22  35
ENDBRANCH   1  24
TORSDOF 3
ENDMDL
MODEL 6
REMARK VINA RESULT:    -7.426     14.620     16.433
REMARK INTER + INTRA:         -10.178
REMARK INTER:                  -8.324
REMARK INTRA:                  -1.854
REMARK UNBOUND:                -1.450
REMARK  Name = /home/qwerty/github/datacon2025hack/step_04_hit_selection/docking/ligands/lig_463.pdb
REMARK  4 active torsions:
REMARK  status: ('A' for Active; 'I' for Inactive)
REMARK    1  A    between atoms: C1_1  and  C2_2
REMARK    2  A    between atoms: C10_10  and  C11_11
REMARK    3  A    between atoms: N1_13  and  C12_14
REMARK    4  A    between atoms: N3_21  and  C17_22
REMARK                            x       y       z     vdW  Elec       q    Type
REMARK                         _______ _______ _______ _____ _____    ______ ____
ROOT
ATOM      1  C12 UNL     1       7.719   6.179  27.412  0.00  0.00    +0.036 A 
ATOM      2  C13 UNL     1       7.161   6.446  28.691  0.00  0.00    +0.025 A 
ATOM      3  C14 UNL     1       7.070   7.764  29.177  0.00  0.00    +0.029 A 
ATOM      4  C15 UNL     1       7.520   8.791  28.348  0.00  0.00    +0.067 A 
ATOM      5  N2  UNL     1       7.550  10.112  28.603  0.00  0.00    -0.306 N 
ATOM      6  C16 UNL     1       8.084  10.646  27.475  0.00  0.00    +0.332 A 
ATOM      7  O2  UNL     1       8.266  11.884  27.322  0.00  0.00    -0.246 OA
ATOM      8  N3  UNL     1       8.380   9.717  26.526  0.00  0.00    -0.261 N 
ATOM      9  C25 UNL     1       8.024   8.549  27.098  0.00  0.00    +0.077 A 
ATOM     10  C26 UNL     1       8.154   7.254  26.600  0.00  0.00    +0.051 A 
ATOM     11  H15 UNL     1       7.238  10.611  29.468  0.00  0.00    +0.170 HD
ENDROOT
BRANCH   8  12
ATOM     12  C17 UNL     1       8.944   9.932  25.221  0.00  0.00    +0.052 A 
ATOM     13  C18 UNL     1      10.348  10.052  25.063  0.00  0.00    +0.028 A 
ATOM     14  C19 UNL     1      10.916  10.202  23.782  0.00  0.00    +0.028 A 
ATOM     15  C20 UNL     1      10.056  10.235  22.685  0.00  0.00    +0.047 A 
ATOM     16  N4  UNL     1      10.386  10.361  21.386  0.00  0.00    -0.361 N 
ATOM     17  C21 UNL     1       9.218  10.341  20.702  0.00  0.00    +0.083 A 
ATOM     18  C22 UNL     1       8.140  10.201  21.572  0.00  0.00    +0.027 A 
ATOM     19  C23 UNL     1       8.699  10.135  22.832  0.00  0.00    +0.002 A 
ATOM     20  C24 UNL     1       8.104   9.992  24.083  0.00  0.00    +0.036 A 
ATOM     21  H18 UNL     1      11.345  10.458  20.982  0.00  0.00    +0.165 HD
ENDBRANCH   8  12
BRANCH   1  24
ATOM     22  C11 UNL     1       9.003   4.186  26.536  0.00  0.00    +0.258 C 
ATOM     23  O1  UNL     1      10.082   4.462  27.130  0.00  0.00    -0.271 OA
ATOM     24  N1  UNL     1       7.781   4.825  26.932  0.00  0.00    -0.282 N 
ATOM     25  H12 UNL     1       6.892   4.284  26.847  0.00  0.00    +0.155 HD
BRANCH  22  35
ATOM     26  C1  UNL     1      10.796   7.008  20.278  0.00  0.00    +0.044 C 
ATOM     27  C2  UNL     1      10.639   6.056  21.426  0.00  0.00    -0.050 A 
ATOM     28  C3  UNL     1      11.741   5.324  21.899  0.00  0.00    +0.007 A 
ATOM     29  C4  UNL     1      11.592   4.431  22.967  0.00  0.00    +0.046 A 
ATOM     30  C5  UNL     1      10.339   4.245  23.558  0.00  0.00    +0.125 A 
ATOM     31  C6  UNL     1       9.217   4.946  23.068  0.00  0.00    -0.005 A 
ATOM     32  C7  UNL     1       9.377   5.859  22.013  0.00  0.00    +0.010 A 
ATOM     33  C8  UNL     1       7.868   4.766  23.720  0.00  0.00    +0.043 C 
ATOM     34  C9  UNL     1       7.776   3.430  24.480  0.00  0.00    +0.059 C 
ATOM     35  C10 UNL     1       9.003   3.215  25.386  0.00  0.00    +0.259 C 
ATOM     36  O3  UNL     1      10.209   3.341  24.625  0.00  0.00    -0.479 OA
ENDBRANCH  22  35
ENDBRANCH   1  24
TORSDOF 3
ENDMDL
MODEL 7
REMARK VINA RESULT:    -7.325      6.660     10.013
REMARK INTER + INTRA:         -10.059
REMARK INTER:                  -8.621
REMARK INTRA:                  -1.438
REMARK UNBOUND:                -1.450
REMARK  Name = /home/qwerty/github/datacon2025hack/step_04_hit_selection/docking/ligands/lig_463.pdb
REMARK  4 active torsions:
REMARK  status: ('A' for Active; 'I' for Inactive)
REMARK    1  A    between atoms: C1_1  and  C2_2
REMARK    2  A    between atoms: C10_10  and  C11_11
REMARK    3  A    between atoms: N1_13  and  C12_14
REMARK    4  A    between atoms: N3_21  and  C17_22
REMARK                            x       y       z     vdW  Elec       q    Type
REMARK                         _______ _______ _______ _____ _____    ______ ____
ROOT
ATOM      1  C12 UNL     1      11.671  13.728  30.486  0.00  0.00    +0.036 A 
ATOM      2  C13 UNL     1      10.786  13.819  29.378  0.00  0.00    +0.025 A 
ATOM      3  C14 UNL     1      11.234  14.306  28.134  0.00  0.00    +0.029 A 
ATOM      4  C15 UNL     1      12.577  14.666  28.029  0.00  0.00    +0.067 A 
ATOM      5  N2  UNL     1      13.221  15.170  26.959  0.00  0.00    -0.306 N 
ATOM      6  C16 UNL     1      14.492  15.346  27.401  0.00  0.00    +0.332 A 
ATOM      7  O2  UNL     1      15.415  15.797  26.671  0.00  0.00    -0.246 OA
ATOM      8  N3  UNL     1      14.671  14.967  28.695  0.00  0.00    -0.261 N 
ATOM      9  C25 UNL     1      13.448  14.546  29.078  0.00  0.00    +0.077 A 
ATOM     10  C26 UNL     1      13.029  14.095  30.328  0.00  0.00    +0.051 A 
ATOM     11  H15 UNL     1      12.832  15.379  26.010  0.00  0.00    +0.170 HD
ENDROOT
BRANCH   8  12
ATOM     12  C17 UNL     1      15.881  15.008  29.472  0.00  0.00    +0.052 A 
ATOM     13  C18 UNL     1      16.338  13.843  30.139  0.00  0.00    +0.028 A 
ATOM     14  C19 UNL     1      17.554  13.855  30.851  0.00  0.00    +0.028 A 
ATOM     15  C20 UNL     1      18.281  15.044  30.884  0.00  0.00    +0.047 A 
ATOM     16  N4  UNL     1      19.460  15.269  31.494  0.00  0.00    -0.361 N 
ATOM     17  C21 UNL     1      19.765  16.565  31.247  0.00  0.00    +0.083 A 
ATOM     18  C22 UNL     1      18.774  17.165  30.474  0.00  0.00    +0.027 A 
ATOM     19  C23 UNL     1      17.838  16.175  30.255  0.00  0.00    +0.002 A 
ATOM     20  C24 UNL     1      16.639  16.201  29.547  0.00  0.00    +0.036 A 
ATOM     21  H18 UNL     1      20.026  14.588  32.049  0.00  0.00    +0.165 HD
ENDBRANCH   8  12
BRANCH   1  24
ATOM     22  C11 UNL     1      11.264  13.934  32.971  0.00  0.00    +0.258 C 
ATOM     23  O1  UNL     1      11.138  15.191  32.973  0.00  0.00    -0.271 OA
ATOM     24  N1  UNL     1      11.191  13.207  31.737  0.00  0.00    -0.282 N 
ATOM     25  H12 UNL     1      10.789  12.244  31.756  0.00  0.00    +0.155 HD
BRANCH  22  35
ATOM     26  C1  UNL     1      18.110  13.501  34.779  0.00  0.00    +0.044 C 
ATOM     27  C2  UNL     1      16.617  13.622  34.848  0.00  0.00    -0.050 A 
ATOM     28  C3  UNL     1      16.020  14.604  35.657  0.00  0.00    +0.007 A 
ATOM     29  C4  UNL     1      14.626  14.713  35.725  0.00  0.00    +0.046 A 
ATOM     30  C5  UNL     1      13.816  13.832  35.003  0.00  0.00    +0.125 A 
ATOM     31  C6  UNL     1      14.403  12.819  34.215  0.00  0.00    -0.005 A 
ATOM     32  C7  UNL     1      15.802  12.729  34.132  0.00  0.00    +0.010 A 
ATOM     33  C8  UNL     1      13.531  11.882  33.416  0.00  0.00    +0.043 C 
ATOM     34  C9  UNL     1      12.105  11.801  33.990  0.00  0.00    +0.059 C 
ATOM     35  C10 UNL     1      11.527  13.203  34.259  0.00  0.00    +0.259 C 
ATOM     36  O3  UNL     1      12.420  13.955  35.089  0.00  0.00    -0.479 OA
ENDBRANCH  22  35
ENDBRANCH   1  24
TORSDOF 3
ENDMDL
MODEL 8
REMARK VINA RESULT:    -7.282     14.920     17.402
REMARK INTER + INTRA:         -10.009
REMARK INTER:                  -8.119
REMARK INTRA:                  -1.890
REMARK UNBOUND:                -1.450
REMARK  Name = /home/qwerty/github/datacon2025hack/step_04_hit_selection/docking/ligands/lig_463.pdb
REMARK  4 active torsions:
REMARK  status: ('A' for Active; 'I' for Inactive)
REMARK    1  A    between atoms: C1_1  and  C2_2
REMARK    2  A    between atoms: C10_10  and  C11_11
REMARK    3  A    between atoms: N1_13  and  C12_14
REMARK    4  A    between atoms: N3_21  and  C17_22
REMARK                            x       y       z     vdW  Elec       q    Type
REMARK                         _______ _______ _______ _____ _____    ______ ____
ROOT
ATOM      1  C12 UNL     1       8.557   4.230  22.181  0.00  0.00    +0.036 A 
ATOM      2  C13 UNL     1       7.414   4.999  21.835  0.00  0.00    +0.025 A 
ATOM      3  C14 UNL     1       7.549   6.248  21.198  0.00  0.00    +0.029 A 
ATOM      4  C15 UNL     1       8.840   6.683  20.898  0.00  0.00    +0.067 A 
ATOM      5  N2  UNL     1       9.213   7.837  20.316  0.00  0.00    -0.306 N 
ATOM      6  C16 UNL     1      10.567   7.753  20.272  0.00  0.00    +0.332 A 
ATOM      7  O2  UNL     1      11.295   8.655  19.777  0.00  0.00    -0.246 OA
ATOM      8  N3  UNL     1      11.053   6.594  20.794  0.00  0.00    -0.261 N 
ATOM      9  C25 UNL     1       9.947   5.933  21.192  0.00  0.00    +0.077 A 
ATOM     10  C26 UNL     1       9.847   4.707  21.847  0.00  0.00    +0.051 A 
ATOM     11  H15 UNL     1       8.604   8.618  19.977  0.00  0.00    +0.170 HD
ENDROOT
BRANCH   8  12
ATOM     12  C17 UNL     1      12.425   6.176  20.899  0.00  0.00    +0.052 A 
ATOM     13  C18 UNL     1      13.289   6.799  21.835  0.00  0.00    +0.028 A 
ATOM     14  C19 UNL     1      14.618   6.357  21.990  0.00  0.00    +0.028 A 
ATOM     15  C20 UNL     1      15.052   5.299  21.192  0.00  0.00    +0.047 A 
ATOM     16  N4  UNL     1      16.268   4.721  21.184  0.00  0.00    -0.361 N 
ATOM     17  C21 UNL     1      16.210   3.745  20.248  0.00  0.00    +0.083 A 
ATOM     18  C22 UNL     1      14.950   3.703  19.658  0.00  0.00    +0.027 A 
ATOM     19  C23 UNL     1      14.228   4.704  20.277  0.00  0.00    +0.002 A 
ATOM     20  C24 UNL     1      12.912   5.119  20.093  0.00  0.00    +0.036 A 
ATOM     21  H18 UNL     1      17.093   4.972  21.776  0.00  0.00    +0.165 HD
ENDBRANCH   8  12
BRANCH   1  24
ATOM     22  C11 UNL     1       9.033   2.587  24.041  0.00  0.00    +0.258 C 
ATOM     23  O1  UNL     1       9.236   3.461  24.930  0.00  0.00    -0.271 OA
ATOM     24  N1  UNL     1       8.388   2.950  22.812  0.00  0.00    -0.282 N 
ATOM     25  H12 UNL     1       7.783   2.238  22.344  0.00  0.00    +0.155 HD
BRANCH  22  35
ATOM     26  C1  UNL     1      16.014   1.627  23.219  0.00  0.00    +0.044 C 
ATOM     27  C2  UNL     1      14.602   1.513  23.711  0.00  0.00    -0.050 A 
ATOM     28  C3  UNL     1      14.328   1.511  25.090  0.00  0.00    +0.007 A 
ATOM     29  C4  UNL     1      13.010   1.398  25.548  0.00  0.00    +0.046 A 
ATOM     30  C5  UNL     1      11.957   1.265  24.638  0.00  0.00    +0.125 A 
ATOM     31  C6  UNL     1      12.224   1.229  23.253  0.00  0.00    -0.005 A 
ATOM     32  C7  UNL     1      13.545   1.366  22.797  0.00  0.00    +0.010 A 
ATOM     33  C8  UNL     1      11.088   1.110  22.266  0.00  0.00    +0.043 C 
ATOM     34  C9  UNL     1       9.834   0.493  22.913  0.00  0.00    +0.059 C 
ATOM     35  C10 UNL     1       9.501   1.173  24.255  0.00  0.00    +0.259 C 
ATOM     36  O3  UNL     1      10.643   1.149  25.118  0.00  0.00    -0.479 OA
ENDBRANCH  22  35
ENDBRANCH   1  24
TORSDOF 3
ENDMDL
MODEL 9
REMARK VINA RESULT:    -7.276      8.186     12.302
REMARK INTER + INTRA:         -10.002
REMARK INTER:                  -9.100
REMARK INTRA:                  -0.902
REMARK UNBOUND:                -1.450
REMARK  Name = /home/qwerty/github/datacon2025hack/step_04_hit_selection/docking/ligands/lig_463.pdb
REMARK  4 active torsions:
REMARK  status: ('A' for Active; 'I' for Inactive)
REMARK    1  A    between atoms: C1_1  and  C2_2
REMARK    2  A    between atoms: C10_10  and  C11_11
REMARK    3  A    between atoms: N1_13  and  C12_14
REMARK    4  A    between atoms: N3_21  and  C17_22
REMARK                            x       y       z     vdW  Elec       q    Type
REMARK                         _______ _______ _______ _____ _____    ______ ____
ROOT
ATOM      1  C12 UNL     1      11.603  14.158  31.366  0.00  0.00    +0.036 A 
ATOM      2  C13 UNL     1      12.513  14.911  30.576  0.00  0.00    +0.025 A 
ATOM      3  C14 UNL     1      12.720  14.599  29.218  0.00  0.00    +0.029 A 
ATOM      4  C15 UNL     1      11.981  13.547  28.678  0.00  0.00    +0.067 A 
ATOM      5  N2  UNL     1      12.024  13.059  27.424  0.00  0.00    -0.306 N 
ATOM      6  C16 UNL     1      11.120  12.047  27.441  0.00  0.00    +0.332 A 
ATOM      7  O2  UNL     1      10.861  11.342  26.429  0.00  0.00    -0.246 OA
ATOM      8  N3  UNL     1      10.510  11.888  28.647  0.00  0.00    -0.261 N 
ATOM      9  C25 UNL     1      11.073  12.840  29.419  0.00  0.00    +0.077 A 
ATOM     10  C26 UNL     1      10.867  13.105  30.772  0.00  0.00    +0.051 A 
ATOM     11  H15 UNL     1      12.616  13.383  26.624  0.00  0.00    +0.170 HD
ENDROOT
BRANCH   8  12
ATOM     12  C17 UNL     1       9.504  10.926  29.012  0.00  0.00    +0.052 A 
ATOM     13  C18 UNL     1       8.136  11.296  29.018  0.00  0.00    +0.028 A 
ATOM     14  C19 UNL     1       7.137  10.347  29.314  0.00  0.00    +0.028 A 
ATOM     15  C20 UNL     1       7.539   9.044  29.604  0.00  0.00    +0.047 A 
ATOM     16  N4  UNL     1       6.756   7.990  29.903  0.00  0.00    -0.361 N 
ATOM     17  C21 UNL     1       7.596   6.948  30.106  0.00  0.00    +0.083 A 
ATOM     18  C22 UNL     1       8.920   7.343  29.934  0.00  0.00    +0.027 A 
ATOM     19  C23 UNL     1       8.859   8.685  29.615  0.00  0.00    +0.002 A 
ATOM     20  C24 UNL     1       9.872   9.597  29.333  0.00  0.00    +0.036 A 
ATOM     21  H18 UNL     1       5.713   7.975  29.969  0.00  0.00    +0.165 HD
ENDBRANCH   8  12
BRANCH   1  24
ATOM     22  C11 UNL     1      12.332  14.200  33.785  0.00  0.00    +0.258 C 
ATOM     23  O1  UNL     1      13.571  14.198  33.542  0.00  0.00    -0.271 OA
ATOM     24  N1  UNL     1      11.396  14.513  32.743  0.00  0.00    -0.282 N 
ATOM     25  H12 UNL     1      10.513  15.003  33.006  0.00  0.00    +0.155 HD
BRANCH  22  35
ATOM     26  C1  UNL     1      16.197   9.283  37.134  0.00  0.00    +0.044 C 
ATOM     27  C2  UNL     1      15.338  10.479  36.850  0.00  0.00    -0.050 A 
ATOM     28  C3  UNL     1      15.649  11.728  37.415  0.00  0.00    +0.007 A 
ATOM     29  C4  UNL     1      14.843  12.842  37.154  0.00  0.00    +0.046 A 
ATOM     30  C5  UNL     1      13.709  12.717  36.346  0.00  0.00    +0.125 A 
ATOM     31  C6  UNL     1      13.366  11.460  35.803  0.00  0.00    -0.005 A 
ATOM     32  C7  UNL     1      14.191  10.351  36.048  0.00  0.00    +0.010 A 
ATOM     33  C8  UNL     1      12.157  11.326  34.910  0.00  0.00    +0.043 C 
ATOM     34  C9  UNL     1      11.143  12.461  35.150  0.00  0.00    +0.059 C 
ATOM     35  C10 UNL     1      11.834  13.838  35.158  0.00  0.00    +0.259 C 
ATOM     36  O3  UNL     1      12.912  13.846  36.100  0.00  0.00    -0.479 OA
ENDBRANCH  22  35
ENDBRANCH   1  24
TORSDOF 3
ENDMDL
