REMARK  Name = /home/qwerty/github/datacon2025hack/step_04_hit_selection/docking/ligands/lig_438.pdb
REMARK  3 active torsions:
REMARK  status: ('A' for Active; 'I' for Inactive)
REMARK    1  A    between atoms: C1_2  and  C8_12
REMARK    2  A    between atoms: N1_3  and  C2_4
REMARK    3  A    between atoms: C4_7  and  C5_8
REMARK                            x       y       z     vdW  Elec       q    Type
REMARK                         _______ _______ _______ _____ _____    ______ ____
ROOT
ATOM      1  O1  UNL     1       1.536  -1.955  -0.189  0.00  0.00    -0.268 OA
ATOM      2  C1  UNL     1       1.699  -0.780   0.237  0.00  0.00    +0.269 C 
ATOM      3  N1  UNL     1       0.553   0.017   0.585  0.00  0.00    -0.273 N 
ATOM      4  H1  UNL     1       0.692   0.844   1.207  0.00  0.00    +0.156 HD
ENDROOT
BRANCH   2   5
ATOM      5  C8  UNL     1       3.064  -0.213   0.388  0.00  0.00    +0.147 A 
ATOM      6  N3  UNL     1       3.172   1.137   0.526  0.00  0.00    -0.228 NA
ATOM      7  C9  UNL     1       4.362   1.775   0.658  0.00  0.00    +0.150 A 
ATOM      8 CL1  UNL     1       4.363   3.524   0.827  0.00  0.00    -0.060 Cl
ATOM      9  C10 UNL     1       5.553   1.039   0.655  0.00  0.00    +0.097 A 
ATOM     10 CL2  UNL     1       7.105   1.861   0.825  0.00  0.00    -0.079 Cl
ATOM     11  C11 UNL     1       5.491  -0.357   0.518  0.00  0.00    +0.083 A 
ATOM     12 CL3  UNL     1       6.982  -1.304   0.520  0.00  0.00    -0.080 Cl
ATOM     13  C12 UNL     1       4.244  -0.998   0.385  0.00  0.00    +0.091 A 
ATOM     14 CL4  UNL     1       4.199  -2.763   0.264  0.00  0.00    -0.080 Cl
ENDBRANCH   2   5
BRANCH   3  15
ATOM     15  C2  UNL     1      -0.794  -0.287   0.197  0.00  0.00    +0.092 A 
ATOM     16  C3  UNL     1      -1.201  -1.105  -0.856  0.00  0.00    +0.142 A 
ATOM     17  N2  UNL     1      -2.549  -1.180  -1.020  0.00  0.00    -0.250 NA
ATOM     18  C4  UNL     1      -3.211  -0.412  -0.125  0.00  0.00    +0.083 A 
ATOM     19  S1  UNL     1      -2.156   0.380   0.922  0.00  0.00    -0.057 S 
BRANCH  18  20
ATOM     20  C5  UNL     1      -4.703  -0.337  -0.046  0.00  0.00    +0.045 C 
ATOM     21  C6  UNL     1      -5.278   1.043  -0.325  0.00  0.00    +0.011 C 
ATOM     22  C7  UNL     1      -5.400  -0.053  -1.369  0.00  0.00    +0.011 C 
ENDBRANCH  18  20
ENDBRANCH   3  15
TORSDOF 3
