REMARK  Name = /home/qwerty/github/datacon2025hack/step_04_hit_selection/docking/ligands/lig_619.pdb
REMARK  6 active torsions:
REMARK  status: ('A' for Active; 'I' for Inactive)
REMARK    1  A    between atoms: C1_1  and  C2_2
REMARK    2  A    between atoms: C5_5  and  N1_6
REMARK    3  A    between atoms: N2_9  and  C7_10
REMARK    4  A    between atoms: N4_13  and  C9_14
REMARK    5  A    between atoms: C9_14  and  C10_15
REMARK    6  A    between atoms: N5_17  and  C11_18
REMARK                            x       y       z     vdW  Elec       q    Type
REMARK                         _______ _______ _______ _____ _____    ______ ____
ROOT
ATOM      1  C7  UNL     1      -0.437  -1.744  -1.859  0.00  0.00    +0.072 A 
ATOM      2  C8  UNL     1       0.445  -2.239  -2.799  0.00  0.00    +0.157 A 
ATOM      3  N3  UNL     1       1.380  -2.979  -2.172  0.00  0.00    -0.177 NA
ATOM      4  N4  UNL     1       1.109  -2.957  -0.875  0.00  0.00    -0.261 N 
ATOM      5  C18 UNL     1       0.017  -2.203  -0.639  0.00  0.00    +0.132 A 
ENDROOT
BRANCH   1   9
ATOM      6  N1  UNL     1      -3.614   0.369  -1.555  0.00  0.00    -0.269 N 
ATOM      7  C6  UNL     1      -2.608  -0.594  -1.204  0.00  0.00    +0.308 C 
ATOM      8  O1  UNL     1      -2.697  -1.237  -0.124  0.00  0.00    -0.252 OA
ATOM      9  N2  UNL     1      -1.543  -0.870  -2.128  0.00  0.00    -0.267 N 
ATOM     10  H6  UNL     1      -3.666   0.672  -2.554  0.00  0.00    +0.156 HD
ATOM     11  H7  UNL     1      -1.592  -0.432  -3.076  0.00  0.00    +0.156 HD
BRANCH   6  16
ATOM     12  C1  UNL     1      -7.761   2.267   1.954  0.00  0.00    +0.044 C 
ATOM     13  C2  UNL     1      -6.688   1.738   1.050  0.00  0.00    -0.050 A 
ATOM     14  C3  UNL     1      -6.930   1.582  -0.322  0.00  0.00    +0.005 A 
ATOM     15  C4  UNL     1      -5.915   1.128  -1.169  0.00  0.00    +0.023 A 
ATOM     16  C5  UNL     1      -4.646   0.818  -0.659  0.00  0.00    +0.035 A 
ATOM     17  C19 UNL     1      -4.393   1.013   0.711  0.00  0.00    +0.023 A 
ATOM     18  C20 UNL     1      -5.408   1.470   1.558  0.00  0.00    +0.005 A 
ENDBRANCH   6  16
ENDBRANCH   1   9
BRANCH   4  19
ATOM     19  C9  UNL     1       1.942  -3.598   0.138  0.00  0.00    +0.239 C 
BRANCH  19  20
ATOM     20  C10 UNL     1       3.222  -2.838   0.305  0.00  0.00    +0.239 C 
ATOM     21  O2  UNL     1       4.321  -3.445   0.190  0.00  0.00    -0.273 OA
ATOM     22  N5  UNL     1       3.189  -1.445   0.650  0.00  0.00    -0.284 N 
ATOM     23  H11 UNL     1       2.311  -1.070   1.076  0.00  0.00    +0.155 HD
BRANCH  22  24
ATOM     24  C11 UNL     1       4.308  -0.554   0.504  0.00  0.00    +0.037 A 
ATOM     25  C12 UNL     1       5.268  -0.736  -0.529  0.00  0.00    +0.027 A 
ATOM     26  C13 UNL     1       6.344   0.160  -0.672  0.00  0.00    +0.051 A 
ATOM     27  C14 UNL     1       6.423   1.227   0.216  0.00  0.00    +0.166 A 
ATOM     28  C15 UNL     1       5.500   1.420   1.192  0.00  0.00    +0.168 A 
ATOM     29  C16 UNL     1       4.421   0.558   1.368  0.00  0.00    +0.072 A 
ATOM     30  O3  UNL     1       5.823   2.554   1.913  0.00  0.00    -0.453 OA
ATOM     31  C17 UNL     1       7.023   3.107   1.355  0.00  0.00    +0.466 C 
ATOM     32  O4  UNL     1       7.372   2.230   0.274  0.00  0.00    -0.453 OA
ENDBRANCH  22  24
ENDBRANCH  19  20
ENDBRANCH   4  19
TORSDOF 5
