MODEL 1
REMARK VINA RESULT:    -6.477      0.000      0.000
REMARK INTER + INTRA:          -9.547
REMARK INTER:                  -8.750
REMARK INTRA:                  -0.797
REMARK UNBOUND:                -0.797
REMARK  Name = /home/qwerty/github/datacon2025hack/step_04_hit_selection/docking/ligands/lig_57.pdb
REMARK  9 active torsions:
REMARK  status: ('A' for Active; 'I' for Inactive)
REMARK    1  A    between atoms: C1_1  and  O1_2
REMARK    2  A    between atoms: O1_2  and  C2_3
REMARK    3  A    between atoms: C4_5  and  C5_6
REMARK    4  A    between atoms: C5_6  and  N1_7
REMARK    5  A    between atoms: C9_11  and  N2_12
REMARK    6  A    between atoms: C10_13  and  C11_15
REMARK    7  A    between atoms: C14_18  and  C15_19
REMARK    8  A    between atoms: C19_23  and  O3_24
REMARK    9  A    between atoms: C21_26  and  O4_27
REMARK                            x       y       z     vdW  Elec       q    Type
REMARK                         _______ _______ _______ _____ _____    ______ ____
ROOT
ATOM      1  N1  UNL     1      17.552  12.637  36.220  0.00  0.00    -0.296 NA
ATOM      2  C6  UNL     1      16.701  11.829  37.124  0.00  0.00    +0.085 C 
ATOM      3  C7  UNL     1      16.570  10.364  36.666  0.00  0.00    +0.017 C 
ATOM      4  C8  UNL     1      17.861   9.816  36.034  0.00  0.00    +0.025 C 
ATOM      5  C9  UNL     1      19.087  10.614  36.490  0.00  0.00    +0.087 C 
ATOM      6  C18 UNL     1      18.932  12.097  36.067  0.00  0.00    +0.107 C 
ENDROOT
BRANCH   5   7
ATOM      7  N2  UNL     1      20.313  10.032  35.930  0.00  0.00    -0.307 N 
ATOM      8  C10 UNL     1      20.895   8.827  36.458  0.00  0.00    +0.244 C 
ATOM      9  O2  UNL     1      20.477   8.361  37.553  0.00  0.00    -0.270 OA
ATOM     10  H14 UNL     1      20.831  10.549  35.185  0.00  0.00    +0.149 HD
BRANCH   8  11
ATOM     11  C11 UNL     1      21.996   8.134  35.747  0.00  0.00    +0.037 A 
ATOM     12  C12 UNL     1      22.654   7.033  36.326  0.00  0.00    +0.013 A 
ATOM     13  C13 UNL     1      23.696   6.393  35.647  0.00  0.00    +0.004 A 
ATOM     14  C14 UNL     1      24.111   6.853  34.390  0.00  0.00    -0.050 A 
ATOM     15  C15 UNL     1      25.202   6.142  33.646  0.00  0.00    +0.044 C 
ATOM     16  C16 UNL     1      23.454   7.946  33.806  0.00  0.00    +0.004 A 
ATOM     17  C17 UNL     1      22.413   8.587  34.483  0.00  0.00    +0.013 A 
ENDBRANCH   8  11
ENDBRANCH   5   7
BRANCH   1  18
ATOM     18  C5  UNL     1      16.903  12.919  34.919  0.00  0.00    +0.123 C 
BRANCH  18  21
ATOM     19  C2  UNL     1      13.090  13.086  34.780  0.00  0.00    +0.162 A 
ATOM     20  C3  UNL     1      14.420  12.648  34.631  0.00  0.00    +0.058 A 
ATOM     21  C4  UNL     1      15.489  13.418  35.116  0.00  0.00    +0.012 A 
ATOM     22  C19 UNL     1      15.226  14.644  35.753  0.00  0.00    +0.125 A 
ATOM     23  C20 UNL     1      13.903  15.080  35.903  0.00  0.00    +0.094 A 
ATOM     24  C21 UNL     1      12.840  14.311  35.422  0.00  0.00    +0.162 A 
BRANCH  19  26
ATOM     25  C1  UNL     1      11.341  11.314  35.044  0.00  0.00    +0.277 C 
ATOM     26  O1  UNL     1      12.002  12.336  34.305  0.00  0.00    -0.491 OA
ENDBRANCH  19  26
BRANCH  22  27
ATOM     27  O3  UNL     1      16.272  15.432  36.234  0.00  0.00    -0.506 OA
ATOM     28  H24 UNL     1      17.222  15.085  36.280  0.00  0.00    +0.292 HD
ENDBRANCH  22  27
BRANCH  24  29
ATOM     29  O4  UNL     1      11.538  14.782  35.592  0.00  0.00    -0.503 OA
ATOM     30  H26 UNL     1      11.323  15.575  36.184  0.00  0.00    +0.292 HD
ENDBRANCH  24  29
ENDBRANCH  18  21
ENDBRANCH   1  18
TORSDOF 7
ENDMDL
MODEL 2
REMARK VINA RESULT:    -6.296     14.298     16.041
REMARK INTER + INTRA:          -9.301
REMARK INTER:                  -8.573
REMARK INTRA:                  -0.728
REMARK UNBOUND:                -0.797
REMARK  Name = /home/qwerty/github/datacon2025hack/step_04_hit_selection/docking/ligands/lig_57.pdb
REMARK  9 active torsions:
REMARK  status: ('A' for Active; 'I' for Inactive)
REMARK    1  A    between atoms: C1_1  and  O1_2
REMARK    2  A    between atoms: O1_2  and  C2_3
REMARK    3  A    between atoms: C4_5  and  C5_6
REMARK    4  A    between atoms: C5_6  and  N1_7
REMARK    5  A    between atoms: C9_11  and  N2_12
REMARK    6  A    between atoms: C10_13  and  C11_15
REMARK    7  A    between atoms: C14_18  and  C15_19
REMARK    8  A    between atoms: C19_23  and  O3_24
REMARK    9  A    between atoms: C21_26  and  O4_27
REMARK                            x       y       z     vdW  Elec       q    Type
REMARK                         _______ _______ _______ _____ _____    ______ ____
ROOT
ATOM      1  N1  UNL     1      22.451  11.462  19.261  0.00  0.00    -0.296 NA
ATOM      2  C6  UNL     1      23.730  11.926  18.677  0.00  0.00    +0.085 C 
ATOM      3  C7  UNL     1      23.971  13.433  18.891  0.00  0.00    +0.017 C 
ATOM      4  C8  UNL     1      23.449  13.936  20.248  0.00  0.00    +0.025 C 
ATOM      5  C9  UNL     1      23.329  12.789  21.258  0.00  0.00    +0.087 C 
ATOM      6  C18 UNL     1      22.339  11.723  20.724  0.00  0.00    +0.107 C 
ENDROOT
BRANCH   5   7
ATOM      7  N2  UNL     1      22.896  13.303  22.564  0.00  0.00    -0.307 N 
ATOM      8  C10 UNL     1      23.801  13.977  23.456  0.00  0.00    +0.244 C 
ATOM      9  O2  UNL     1      25.040  13.955  23.221  0.00  0.00    -0.270 OA
ATOM     10  H14 UNL     1      21.928  13.098  22.899  0.00  0.00    +0.149 HD
BRANCH   8  11
ATOM     11  C11 UNL     1      23.303  14.682  24.662  0.00  0.00    +0.037 A 
ATOM     12  C12 UNL     1      23.343  14.071  25.928  0.00  0.00    +0.013 A 
ATOM     13  C13 UNL     1      22.863  14.744  27.056  0.00  0.00    +0.004 A 
ATOM     14  C14 UNL     1      22.317  16.030  26.936  0.00  0.00    -0.050 A 
ATOM     15  C15 UNL     1      21.838  16.765  28.152  0.00  0.00    +0.044 C 
ATOM     16  C16 UNL     1      22.281  16.646  25.676  0.00  0.00    +0.004 A 
ATOM     17  C17 UNL     1      22.759  15.974  24.548  0.00  0.00    +0.013 A 
ENDBRANCH   8  11
ENDBRANCH   5   7
BRANCH   1  18
ATOM     18  C5  UNL     1      21.268  11.936  18.506  0.00  0.00    +0.123 C 
BRANCH  18  21
ATOM     19  C2  UNL     1      19.002   8.882  18.860  0.00  0.00    +0.162 A 
ATOM     20  C3  UNL     1      20.117   9.703  18.600  0.00  0.00    +0.058 A 
ATOM     21  C4  UNL     1      20.054  11.089  18.814  0.00  0.00    +0.012 A 
ATOM     22  C19 UNL     1      18.860  11.663  19.288  0.00  0.00    +0.125 A 
ATOM     23  C20 UNL     1      17.752  10.847  19.548  0.00  0.00    +0.094 A 
ATOM     24  C21 UNL     1      17.816   9.467  19.337  0.00  0.00    +0.162 A 
BRANCH  19  26
ATOM     25  C1  UNL     1      19.561   6.552  19.587  0.00  0.00    +0.277 C 
ATOM     26  O1  UNL     1      19.038   7.493  18.655  0.00  0.00    -0.491 OA
ENDBRANCH  19  26
BRANCH  22  27
ATOM     27  O3  UNL     1      18.771  13.039  19.499  0.00  0.00    -0.506 OA
ATOM     28  H24 UNL     1      18.003  13.585  19.129  0.00  0.00    +0.292 HD
ENDBRANCH  22  27
BRANCH  24  29
ATOM     29  O4  UNL     1      16.689   8.691  19.608  0.00  0.00    -0.503 OA
ATOM     30  H26 UNL     1      16.065   8.371  18.878  0.00  0.00    +0.292 HD
ENDBRANCH  24  29
ENDBRANCH  18  21
ENDBRANCH   1  18
TORSDOF 7
ENDMDL
MODEL 3
REMARK VINA RESULT:    -6.266     13.057     15.472
REMARK INTER + INTRA:          -9.261
REMARK INTER:                  -8.314
REMARK INTRA:                  -0.948
REMARK UNBOUND:                -0.797
REMARK  Name = /home/qwerty/github/datacon2025hack/step_04_hit_selection/docking/ligands/lig_57.pdb
REMARK  9 active torsions:
REMARK  status: ('A' for Active; 'I' for Inactive)
REMARK    1  A    between atoms: C1_1  and  O1_2
REMARK    2  A    between atoms: O1_2  and  C2_3
REMARK    3  A    between atoms: C4_5  and  C5_6
REMARK    4  A    between atoms: C5_6  and  N1_7
REMARK    5  A    between atoms: C9_11  and  N2_12
REMARK    6  A    between atoms: C10_13  and  C11_15
REMARK    7  A    between atoms: C14_18  and  C15_19
REMARK    8  A    between atoms: C19_23  and  O3_24
REMARK    9  A    between atoms: C21_26  and  O4_27
REMARK                            x       y       z     vdW  Elec       q    Type
REMARK                         _______ _______ _______ _____ _____    ______ ____
ROOT
ATOM      1  N1  UNL     1      18.757   0.330  24.365  0.00  0.00    -0.296 NA
ATOM      2  C6  UNL     1      19.813   1.061  23.628  0.00  0.00    +0.085 C 
ATOM      3  C7  UNL     1      20.043   2.484  24.171  0.00  0.00    +0.017 C 
ATOM      4  C8  UNL     1      19.887   2.574  25.699  0.00  0.00    +0.025 C 
ATOM      5  C9  UNL     1      20.088   1.207  26.361  0.00  0.00    +0.087 C 
ATOM      6  C18 UNL     1      19.033   0.206  25.825  0.00  0.00    +0.107 C 
ENDROOT
BRANCH   5   7
ATOM      7  N2  UNL     1      20.002   1.330  27.822  0.00  0.00    -0.307 N 
ATOM      8  C10 UNL     1      21.111   1.008  28.680  0.00  0.00    +0.244 C 
ATOM      9  O2  UNL     1      22.115   0.412  28.204  0.00  0.00    -0.270 OA
ATOM     10  H14 UNL     1      19.086   1.571  28.262  0.00  0.00    +0.149 HD
BRANCH   8  11
ATOM     11  C11 UNL     1      21.084   1.348  30.124  0.00  0.00    +0.037 A 
ATOM     12  C12 UNL     1      20.265   0.639  31.021  0.00  0.00    +0.013 A 
ATOM     13  C13 UNL     1      20.244   0.975  32.378  0.00  0.00    +0.004 A 
ATOM     14  C14 UNL     1      21.025   2.036  32.859  0.00  0.00    -0.050 A 
ATOM     15  C15 UNL     1      21.030   2.369  34.321  0.00  0.00    +0.044 C 
ATOM     16  C16 UNL     1      21.847   2.741  31.969  0.00  0.00    +0.004 A 
ATOM     17  C17 UNL     1      21.869   2.407  30.612  0.00  0.00    +0.013 A 
ENDBRANCH   8  11
ENDBRANCH   5   7
BRANCH   1  18
ATOM     18  C5  UNL     1      17.397   0.846  24.084  0.00  0.00    +0.123 C 
BRANCH  18  21
ATOM     19  C2  UNL     1      15.998   1.192  20.548  0.00  0.00    +0.162 A 
ATOM     20  C3  UNL     1      16.430   1.489  21.855  0.00  0.00    +0.058 A 
ATOM     21  C4  UNL     1      16.962   0.487  22.682  0.00  0.00    +0.012 A 
ATOM     22  C19 UNL     1      17.056  -0.831  22.199  0.00  0.00    +0.125 A 
ATOM     23  C20 UNL     1      16.628  -1.128  20.899  0.00  0.00    +0.094 A 
ATOM     24  C21 UNL     1      16.101  -0.129  20.076  0.00  0.00    +0.162 A 
BRANCH  19  26
ATOM     25  C1  UNL     1      15.721   3.570  19.817  0.00  0.00    +0.277 C 
ATOM     26  O1  UNL     1      15.463   2.174  19.700  0.00  0.00    -0.491 OA
ENDBRANCH  19  26
BRANCH  22  27
ATOM     27  O3  UNL     1      17.572  -1.846  23.005  0.00  0.00    -0.506 OA
ATOM     28  H24 UNL     1      18.381  -1.698  23.595  0.00  0.00    +0.292 HD
ENDBRANCH  22  27
BRANCH  24  29
ATOM     29  O4  UNL     1      15.686  -0.467  18.787  0.00  0.00    -0.503 OA
ATOM     30  H26 UNL     1      14.754  -0.810  18.593  0.00  0.00    +0.292 HD
ENDBRANCH  24  29
ENDBRANCH  18  21
ENDBRANCH   1  18
TORSDOF 7
ENDMDL
MODEL 4
REMARK VINA RESULT:    -6.245      9.548     13.549
REMARK INTER + INTRA:          -9.232
REMARK INTER:                  -8.743
REMARK INTRA:                  -0.489
REMARK UNBOUND:                -0.797
REMARK  Name = /home/qwerty/github/datacon2025hack/step_04_hit_selection/docking/ligands/lig_57.pdb
REMARK  9 active torsions:
REMARK  status: ('A' for Active; 'I' for Inactive)
REMARK    1  A    between atoms: C1_1  and  O1_2
REMARK    2  A    between atoms: O1_2  and  C2_3
REMARK    3  A    between atoms: C4_5  and  C5_6
REMARK    4  A    between atoms: C5_6  and  N1_7
REMARK    5  A    between atoms: C9_11  and  N2_12
REMARK    6  A    between atoms: C10_13  and  C11_15
REMARK    7  A    between atoms: C14_18  and  C15_19
REMARK    8  A    between atoms: C19_23  and  O3_24
REMARK    9  A    between atoms: C21_26  and  O4_27
REMARK                            x       y       z     vdW  Elec       q    Type
REMARK                         _______ _______ _______ _____ _____    ______ ____
ROOT
ATOM      1  N1  UNL     1       9.185   9.946  29.560  0.00  0.00    -0.296 NA
ATOM      2  C6  UNL     1       8.362   8.835  30.091  0.00  0.00    +0.085 C 
ATOM      3  C7  UNL     1       7.147   8.513  29.199  0.00  0.00    +0.017 C 
ATOM      4  C8  UNL     1       7.446   8.678  27.699  0.00  0.00    +0.025 C 
ATOM      5  C9  UNL     1       8.949   8.578  27.416  0.00  0.00    +0.087 C 
ATOM      6  C18 UNL     1       9.702   9.693  28.185  0.00  0.00    +0.107 C 
ENDROOT
BRANCH   5   7
ATOM      7  N2  UNL     1       9.203   8.669  25.972  0.00  0.00    -0.307 N 
ATOM      8  C10 UNL     1       8.728   9.774  25.183  0.00  0.00    +0.244 C 
ATOM      9  O2  UNL     1       7.900  10.585  25.681  0.00  0.00    -0.270 OA
ATOM     10  H14 UNL     1       9.663   7.870  25.482  0.00  0.00    +0.149 HD
BRANCH   8  11
ATOM     11  C11 UNL     1       9.179   9.964  23.783  0.00  0.00    +0.037 A 
ATOM     12  C12 UNL     1       8.252  10.113  22.736  0.00  0.00    +0.013 A 
ATOM     13  C13 UNL     1       8.692  10.284  21.419  0.00  0.00    +0.004 A 
ATOM     14  C14 UNL     1      10.063  10.290  21.124  0.00  0.00    -0.050 A 
ATOM     15  C15 UNL     1      10.533  10.513  19.718  0.00  0.00    +0.044 C 
ATOM     16  C16 UNL     1      10.990  10.149  22.166  0.00  0.00    +0.004 A 
ATOM     17  C17 UNL     1      10.553   9.977  23.482  0.00  0.00    +0.013 A 
ENDBRANCH   8  11
ENDBRANCH   5   7
BRANCH   1  18
ATOM     18  C5  UNL     1       8.522  11.264  29.686  0.00  0.00    +0.123 C 
BRANCH  18  21
ATOM     19  C2  UNL     1      11.440  13.724  29.827  0.00  0.00    +0.162 A 
ATOM     20  C3  UNL     1      10.549  12.679  30.141  0.00  0.00    +0.058 A 
ATOM     21  C4  UNL     1       9.464  12.382  29.301  0.00  0.00    +0.012 A 
ATOM     22  C19 UNL     1       9.263  13.143  28.135  0.00  0.00    +0.125 A 
ATOM     23  C20 UNL     1      10.149  14.181  27.820  0.00  0.00    +0.094 A 
ATOM     24  C21 UNL     1      11.230  14.474  28.656  0.00  0.00    +0.162 A 
BRANCH  19  26
ATOM     25  C1  UNL     1      12.450  14.827  31.834  0.00  0.00    +0.277 C 
ATOM     26  O1  UNL     1      12.533  14.043  30.649  0.00  0.00    -0.491 OA
ENDBRANCH  19  26
BRANCH  22  27
ATOM     27  O3  UNL     1       8.187  12.872  27.290  0.00  0.00    -0.506 OA
ATOM     28  H24 UNL     1       7.552  13.601  26.987  0.00  0.00    +0.292 HD
ENDBRANCH  22  27
BRANCH  24  29
ATOM     29  O4  UNL     1      12.089  15.516  28.306  0.00  0.00    -0.503 OA
ATOM     30  H26 UNL     1      11.870  16.486  28.501  0.00  0.00    +0.292 HD
ENDBRANCH  24  29
ENDBRANCH  18  21
ENDBRANCH   1  18
TORSDOF 7
ENDMDL
MODEL 5
REMARK VINA RESULT:    -6.144      2.195      9.971
REMARK INTER + INTRA:          -9.096
REMARK INTER:                  -8.354
REMARK INTRA:                  -0.742
REMARK UNBOUND:                -0.797
REMARK  Name = /home/qwerty/github/datacon2025hack/step_04_hit_selection/docking/ligands/lig_57.pdb
REMARK  9 active torsions:
REMARK  status: ('A' for Active; 'I' for Inactive)
REMARK    1  A    between atoms: C1_1  and  O1_2
REMARK    2  A    between atoms: O1_2  and  C2_3
REMARK    3  A    between atoms: C4_5  and  C5_6
REMARK    4  A    between atoms: C5_6  and  N1_7
REMARK    5  A    between atoms: C9_11  and  N2_12
REMARK    6  A    between atoms: C10_13  and  C11_15
REMARK    7  A    between atoms: C14_18  and  C15_19
REMARK    8  A    between atoms: C19_23  and  O3_24
REMARK    9  A    between atoms: C21_26  and  O4_27
REMARK                            x       y       z     vdW  Elec       q    Type
REMARK                         _______ _______ _______ _____ _____    ______ ____
ROOT
ATOM      1  N1  UNL     1      19.675   9.301  36.789  0.00  0.00    -0.296 NA
ATOM      2  C6  UNL     1      20.545  10.121  35.915  0.00  0.00    +0.085 C 
ATOM      3  C7  UNL     1      19.907  10.413  34.543  0.00  0.00    +0.017 C 
ATOM      4  C8  UNL     1      18.385  10.619  34.622  0.00  0.00    +0.025 C 
ATOM      5  C9  UNL     1      17.951  11.028  36.034  0.00  0.00    +0.087 C 
ATOM      6  C18 UNL     1      18.343   9.919  37.044  0.00  0.00    +0.107 C 
ENDROOT
BRANCH   5   7
ATOM      7  N2  UNL     1      16.505  11.285  36.069  0.00  0.00    -0.307 N 
ATOM      8  C10 UNL     1      15.966  12.550  36.489  0.00  0.00    +0.244 C 
ATOM      9  O2  UNL     1      16.721  13.398  37.038  0.00  0.00    -0.270 OA
ATOM     10  H14 UNL     1      15.842  10.503  35.870  0.00  0.00    +0.149 HD
BRANCH   8  11
ATOM     11  C11 UNL     1      14.529  12.868  36.307  0.00  0.00    +0.037 A 
ATOM     12  C12 UNL     1      14.123  14.063  35.685  0.00  0.00    +0.013 A 
ATOM     13  C13 UNL     1      12.764  14.353  35.527  0.00  0.00    +0.004 A 
ATOM     14  C14 UNL     1      11.789  13.467  36.004  0.00  0.00    -0.050 A 
ATOM     15  C15 UNL     1      10.333  13.762  35.799  0.00  0.00    +0.044 C 
ATOM     16  C16 UNL     1      12.189  12.272  36.619  0.00  0.00    +0.004 A 
ATOM     17  C17 UNL     1      13.547  11.980  36.779  0.00  0.00    +0.013 A 
ENDBRANCH   8  11
ENDBRANCH   5   7
BRANCH   1  18
ATOM     18  C5  UNL     1      19.573   7.893  36.341  0.00  0.00    +0.123 C 
BRANCH  18  21
ATOM     19  C2  UNL     1      22.379   6.362  34.251  0.00  0.00    +0.162 A 
ATOM     20  C3  UNL     1      21.135   6.892  34.644  0.00  0.00    +0.058 A 
ATOM     21  C4  UNL     1      20.929   7.348  35.956  0.00  0.00    +0.012 A 
ATOM     22  C19 UNL     1      21.980   7.269  36.889  0.00  0.00    +0.125 A 
ATOM     23  C20 UNL     1      23.218   6.743  36.499  0.00  0.00    +0.094 A 
ATOM     24  C21 UNL     1      23.422   6.291  35.192  0.00  0.00    +0.162 A 
BRANCH  19  26
ATOM     25  C1  UNL     1      22.876   6.737  31.826  0.00  0.00    +0.277 C 
ATOM     26  O1  UNL     1      22.612   5.898  32.946  0.00  0.00    -0.491 OA
ENDBRANCH  19  26
BRANCH  22  27
ATOM     27  O3  UNL     1      21.797   7.707  38.200  0.00  0.00    -0.506 OA
ATOM     28  H24 UNL     1      21.018   7.388  38.764  0.00  0.00    +0.292 HD
ENDBRANCH  22  27
BRANCH  24  29
ATOM     29  O4  UNL     1      24.670   5.775  34.845  0.00  0.00    -0.503 OA
ATOM     30  H26 UNL     1      25.081   4.984  35.326  0.00  0.00    +0.292 HD
ENDBRANCH  24  29
ENDBRANCH  18  21
ENDBRANCH   1  18
TORSDOF 7
ENDMDL
MODEL 6
REMARK VINA RESULT:    -6.129      8.342     10.767
REMARK INTER + INTRA:          -9.076
REMARK INTER:                  -8.563
REMARK INTRA:                  -0.513
REMARK UNBOUND:                -0.797
REMARK  Name = /home/qwerty/github/datacon2025hack/step_04_hit_selection/docking/ligands/lig_57.pdb
REMARK  9 active torsions:
REMARK  status: ('A' for Active; 'I' for Inactive)
REMARK    1  A    between atoms: C1_1  and  O1_2
REMARK    2  A    between atoms: O1_2  and  C2_3
REMARK    3  A    between atoms: C4_5  and  C5_6
REMARK    4  A    between atoms: C5_6  and  N1_7
REMARK    5  A    between atoms: C9_11  and  N2_12
REMARK    6  A    between atoms: C10_13  and  C11_15
REMARK    7  A    between atoms: C14_18  and  C15_19
REMARK    8  A    between atoms: C19_23  and  O3_24
REMARK    9  A    between atoms: C21_26  and  O4_27
REMARK                            x       y       z     vdW  Elec       q    Type
REMARK                         _______ _______ _______ _____ _____    ______ ____
ROOT
ATOM      1  N1  UNL     1      11.756  12.791  27.853  0.00  0.00    -0.296 NA
ATOM      2  C6  UNL     1      12.821  13.697  27.367  0.00  0.00    +0.085 C 
ATOM      3  C7  UNL     1      13.041  14.909  28.292  0.00  0.00    +0.017 C 
ATOM      4  C8  UNL     1      12.862  14.566  29.781  0.00  0.00    +0.025 C 
ATOM      5  C9  UNL     1      13.056  13.067  30.034  0.00  0.00    +0.087 C 
ATOM      6  C18 UNL     1      12.011  12.260  29.222  0.00  0.00    +0.107 C 
ENDROOT
BRANCH   5   7
ATOM      7  N2  UNL     1      12.948  12.774  31.469  0.00  0.00    -0.307 N 
ATOM      8  C10 UNL     1      11.755  13.062  32.219  0.00  0.00    +0.244 C 
ATOM      9  O2  UNL     1      10.848  13.768  31.699  0.00  0.00    -0.270 OA
ATOM     10  H14 UNL     1      13.789  12.430  31.985  0.00  0.00    +0.149 HD
BRANCH   8  11
ATOM     11  C11 UNL     1      11.582  12.560  33.603  0.00  0.00    +0.037 A 
ATOM     12  C12 UNL     1      11.387  11.191  33.859  0.00  0.00    +0.013 A 
ATOM     13  C13 UNL     1      11.217  10.732  35.169  0.00  0.00    +0.004 A 
ATOM     14  C14 UNL     1      11.219  11.633  36.243  0.00  0.00    -0.050 A 
ATOM     15  C15 UNL     1      11.075  11.135  37.650  0.00  0.00    +0.044 C 
ATOM     16  C16 UNL     1      11.419  12.998  35.993  0.00  0.00    +0.004 A 
ATOM     17  C17 UNL     1      11.588  13.459  34.684  0.00  0.00    +0.013 A 
ENDBRANCH   8  11
ENDBRANCH   5   7
BRANCH   1  18
ATOM     18  C5  UNL     1      10.400  13.368  27.709  0.00  0.00    +0.123 C 
BRANCH  18  21
ATOM     19  C2  UNL     1       8.170  10.267  27.724  0.00  0.00    +0.162 A 
ATOM     20  C3  UNL     1       9.157  11.209  27.373  0.00  0.00    +0.058 A 
ATOM     21  C4  UNL     1       9.341  12.375  28.132  0.00  0.00    +0.012 A 
ATOM     22  C19 UNL     1       8.525  12.606  29.255  0.00  0.00    +0.125 A 
ATOM     23  C20 UNL     1       7.545  11.669  29.606  0.00  0.00    +0.094 A 
ATOM     24  C21 UNL     1       7.364  10.507  28.851  0.00  0.00    +0.162 A 
BRANCH  19  26
ATOM     25  C1  UNL     1       9.005   8.308  26.407  0.00  0.00    +0.277 C 
ATOM     26  O1  UNL     1       7.965   9.093  26.982  0.00  0.00    -0.491 OA
ENDBRANCH  19  26
BRANCH  22  27
ATOM     27  O3  UNL     1       8.683  13.762  30.019  0.00  0.00    -0.506 OA
ATOM     28  H24 UNL     1       9.551  14.283  30.024  0.00  0.00    +0.292 HD
ENDBRANCH  22  27
BRANCH  24  29
ATOM     29  O4  UNL     1       6.376   9.601  29.236  0.00  0.00    -0.503 OA
ATOM     30  H26 UNL     1       6.541   8.602  29.266  0.00  0.00    +0.292 HD
ENDBRANCH  24  29
ENDBRANCH  18  21
ENDBRANCH   1  18
TORSDOF 7
ENDMDL
MODEL 7
REMARK VINA RESULT:    -6.115      4.884      7.828
REMARK INTER + INTRA:          -9.056
REMARK INTER:                  -8.224
REMARK INTRA:                  -0.832
REMARK UNBOUND:                -0.797
REMARK  Name = /home/qwerty/github/datacon2025hack/step_04_hit_selection/docking/ligands/lig_57.pdb
REMARK  9 active torsions:
REMARK  status: ('A' for Active; 'I' for Inactive)
REMARK    1  A    between atoms: C1_1  and  O1_2
REMARK    2  A    between atoms: O1_2  and  C2_3
REMARK    3  A    between atoms: C4_5  and  C5_6
REMARK    4  A    between atoms: C5_6  and  N1_7
REMARK    5  A    between atoms: C9_11  and  N2_12
REMARK    6  A    between atoms: C10_13  and  C11_15
REMARK    7  A    between atoms: C14_18  and  C15_19
REMARK    8  A    between atoms: C19_23  and  O3_24
REMARK    9  A    between atoms: C21_26  and  O4_27
REMARK                            x       y       z     vdW  Elec       q    Type
REMARK                         _______ _______ _______ _____ _____    ______ ____
ROOT
ATOM      1  N1  UNL     1      21.105   8.799  32.741  0.00  0.00    -0.296 NA
ATOM      2  C6  UNL     1      21.700   9.665  31.696  0.00  0.00    +0.085 C 
ATOM      3  C7  UNL     1      23.052   9.135  31.183  0.00  0.00    +0.017 C 
ATOM      4  C8  UNL     1      23.108   7.599  31.115  0.00  0.00    +0.025 C 
ATOM      5  C9  UNL     1      21.702   6.994  31.035  0.00  0.00    +0.087 C 
ATOM      6  C18 UNL     1      20.887   7.395  32.291  0.00  0.00    +0.107 C 
ENDROOT
BRANCH   5   7
ATOM      7  N2  UNL     1      21.782   5.534  30.902  0.00  0.00    -0.307 N 
ATOM      8  C10 UNL     1      21.324   4.850  29.722  0.00  0.00    +0.244 C 
ATOM      9  O2  UNL     1      20.649   5.477  28.861  0.00  0.00    -0.270 OA
ATOM     10  H14 UNL     1      22.095   4.963  31.718  0.00  0.00    +0.149 HD
BRANCH   8  11
ATOM     11  C11 UNL     1      21.614   3.411  29.512  0.00  0.00    +0.037 A 
ATOM     12  C12 UNL     1      21.770   2.884  28.217  0.00  0.00    +0.013 A 
ATOM     13  C13 UNL     1      22.036   1.524  28.032  0.00  0.00    +0.004 A 
ATOM     14  C14 UNL     1      22.130   0.664  29.135  0.00  0.00    -0.050 A 
ATOM     15  C15 UNL     1      22.454  -0.787  28.937  0.00  0.00    +0.044 C 
ATOM     16  C16 UNL     1      21.982   1.185  30.428  0.00  0.00    +0.004 A 
ATOM     17  C17 UNL     1      21.715   2.544  30.614  0.00  0.00    +0.013 A 
ENDBRANCH   8  11
ENDBRANCH   5   7
BRANCH   1  18
ATOM     18  C5  UNL     1      21.825   8.878  34.033  0.00  0.00    +0.123 C 
BRANCH  18  21
ATOM     19  C2  UNL     1      19.536   8.606  37.077  0.00  0.00    +0.162 A 
ATOM     20  C3  UNL     1      20.424   8.283  36.033  0.00  0.00    +0.058 A 
ATOM     21  C4  UNL     1      20.887   9.272  35.151  0.00  0.00    +0.012 A 
ATOM     22  C19 UNL     1      20.454  10.601  35.312  0.00  0.00    +0.125 A 
ATOM     23  C20 UNL     1      19.572  10.924  36.352  0.00  0.00    +0.094 A 
ATOM     24  C21 UNL     1      19.114   9.938  37.230  0.00  0.00    +0.162 A 
BRANCH  19  26
ATOM     25  C1  UNL     1      18.982   6.243  37.691  0.00  0.00    +0.277 C 
ATOM     26  O1  UNL     1      19.057   7.636  37.973  0.00  0.00    -0.491 OA
ENDBRANCH  19  26
BRANCH  22  27
ATOM     27  O3  UNL     1      20.894  11.599  34.443  0.00  0.00    -0.506 OA
ATOM     28  H24 UNL     1      20.424  11.786  33.566  0.00  0.00    +0.292 HD
ENDBRANCH  22  27
BRANCH  24  29
ATOM     29  O4  UNL     1      18.236  10.303  38.252  0.00  0.00    -0.503 OA
ATOM     30  H26 UNL     1      17.992  11.268  38.436  0.00  0.00    +0.292 HD
ENDBRANCH  24  29
ENDBRANCH  18  21
ENDBRANCH   1  18
TORSDOF 7
ENDMDL
MODEL 8
REMARK VINA RESULT:    -6.107     15.688     19.152
REMARK INTER + INTRA:          -9.046
REMARK INTER:                  -8.084
REMARK INTRA:                  -0.962
REMARK UNBOUND:                -0.797
REMARK  Name = /home/qwerty/github/datacon2025hack/step_04_hit_selection/docking/ligands/lig_57.pdb
REMARK  9 active torsions:
REMARK  status: ('A' for Active; 'I' for Inactive)
REMARK    1  A    between atoms: C1_1  and  O1_2
REMARK    2  A    between atoms: O1_2  and  C2_3
REMARK    3  A    between atoms: C4_5  and  C5_6
REMARK    4  A    between atoms: C5_6  and  N1_7
REMARK    5  A    between atoms: C9_11  and  N2_12
REMARK    6  A    between atoms: C10_13  and  C11_15
REMARK    7  A    between atoms: C14_18  and  C15_19
REMARK    8  A    between atoms: C19_23  and  O3_24
REMARK    9  A    between atoms: C21_26  and  O4_27
REMARK                            x       y       z     vdW  Elec       q    Type
REMARK                         _______ _______ _______ _____ _____    ______ ____
ROOT
ATOM      1  N1  UNL     1      13.475   1.708  21.467  0.00  0.00    -0.296 NA
ATOM      2  C6  UNL     1      12.510   0.772  22.088  0.00  0.00    +0.085 C 
ATOM      3  C7  UNL     1      11.718   1.412  23.244  0.00  0.00    +0.017 C 
ATOM      4  C8  UNL     1      11.391   2.894  22.997  0.00  0.00    +0.025 C 
ATOM      5  C9  UNL     1      11.424   3.231  21.502  0.00  0.00    +0.087 C 
ATOM      6  C18 UNL     1      12.838   2.946  20.934  0.00  0.00    +0.107 C 
ENDROOT
BRANCH   5   7
ATOM      7  N2  UNL     1      11.042   4.632  21.286  0.00  0.00    -0.307 N 
ATOM      8  C10 UNL     1       9.667   5.052  21.258  0.00  0.00    +0.244 C 
ATOM      9  O2  UNL     1       8.752   4.185  21.211  0.00  0.00    -0.270 OA
ATOM     10  H14 UNL     1      11.781   5.334  21.056  0.00  0.00    +0.149 HD
BRANCH   8  11
ATOM     11  C11 UNL     1       9.305   6.490  21.263  0.00  0.00    +0.037 A 
ATOM     12  C12 UNL     1      10.050   7.428  20.525  0.00  0.00    +0.013 A 
ATOM     13  C13 UNL     1       9.703   8.782  20.545  0.00  0.00    +0.004 A 
ATOM     14  C14 UNL     1       8.619   9.225  21.317  0.00  0.00    -0.050 A 
ATOM     15  C15 UNL     1       8.224  10.672  21.306  0.00  0.00    +0.044 C 
ATOM     16  C16 UNL     1       7.870   8.293  22.049  0.00  0.00    +0.004 A 
ATOM     17  C17 UNL     1       8.216   6.939  22.031  0.00  0.00    +0.013 A 
ENDBRANCH   8  11
ENDBRANCH   5   7
BRANCH   1  18
ATOM     18  C5  UNL     1      14.638   1.996  22.337  0.00  0.00    +0.123 C 
BRANCH  18  21
ATOM     19  C2  UNL     1      16.434  -0.853  24.138  0.00  0.00    +0.162 A 
ATOM     20  C3  UNL     1      15.659   0.294  23.880  0.00  0.00    +0.058 A 
ATOM     21  C4  UNL     1      15.462   0.749  22.567  0.00  0.00    +0.012 A 
ATOM     22  C19 UNL     1      16.052   0.051  21.497  0.00  0.00    +0.125 A 
ATOM     23  C20 UNL     1      16.822  -1.091  21.752  0.00  0.00    +0.094 A 
ATOM     24  C21 UNL     1      17.015  -1.544  23.060  0.00  0.00    +0.162 A 
BRANCH  19  26
ATOM     25  C1  UNL     1      16.501  -0.547  26.622  0.00  0.00    +0.277 C 
ATOM     26  O1  UNL     1      16.647  -1.330  25.441  0.00  0.00    -0.491 OA
ENDBRANCH  19  26
BRANCH  22  27
ATOM     27  O3  UNL     1      15.879   0.490  20.184  0.00  0.00    -0.506 OA
ATOM     28  H24 UNL     1      16.529   1.131  19.747  0.00  0.00    +0.292 HD
ENDBRANCH  22  27
BRANCH  24  29
ATOM     29  O4  UNL     1      17.789  -2.686  23.269  0.00  0.00    -0.503 OA
ATOM     30  H26 UNL     1      18.073  -3.293  22.510  0.00  0.00    +0.292 HD
ENDBRANCH  24  29
ENDBRANCH  18  21
ENDBRANCH   1  18
TORSDOF 7
ENDMDL
MODEL 9
REMARK VINA RESULT:    -6.084     16.124     16.868
REMARK INTER + INTRA:          -9.015
REMARK INTER:                  -8.160
REMARK INTRA:                  -0.855
REMARK UNBOUND:                -0.797
REMARK  Name = /home/qwerty/github/datacon2025hack/step_04_hit_selection/docking/ligands/lig_57.pdb
REMARK  9 active torsions:
REMARK  status: ('A' for Active; 'I' for Inactive)
REMARK    1  A    between atoms: C1_1  and  O1_2
REMARK    2  A    between atoms: O1_2  and  C2_3
REMARK    3  A    between atoms: C4_5  and  C5_6
REMARK    4  A    between atoms: C5_6  and  N1_7
REMARK    5  A    between atoms: C9_11  and  N2_12
REMARK    6  A    between atoms: C10_13  and  C11_15
REMARK    7  A    between atoms: C14_18  and  C15_19
REMARK    8  A    between atoms: C19_23  and  O3_24
REMARK    9  A    between atoms: C21_26  and  O4_27
REMARK                            x       y       z     vdW  Elec       q    Type
REMARK                         _______ _______ _______ _____ _____    ______ ____
ROOT
ATOM      1  N1  UNL     1      11.046   4.523  21.198  0.00  0.00    -0.296 NA
ATOM      2  C6  UNL     1      11.627   4.949  19.904  0.00  0.00    +0.085 C 
ATOM      3  C7  UNL     1      13.167   4.998  19.929  0.00  0.00    +0.017 C 
ATOM      4  C8  UNL     1      13.788   3.883  20.788  0.00  0.00    +0.025 C 
ATOM      5  C9  UNL     1      12.822   2.704  20.952  0.00  0.00    +0.087 C 
ATOM      6  C18 UNL     1      11.523   3.184  21.648  0.00  0.00    +0.107 C 
ENDROOT
BRANCH   5   7
ATOM      7  N2  UNL     1      13.460   1.624  21.715  0.00  0.00    -0.307 N 
ATOM      8  C10 UNL     1      14.466   0.773  21.138  0.00  0.00    +0.244 C 
ATOM      9  O2  UNL     1      14.669   0.804  19.894  0.00  0.00    -0.270 OA
ATOM     10  H14 UNL     1      13.116   1.405  22.677  0.00  0.00    +0.149 HD
BRANCH   8  11
ATOM     11  C11 UNL     1      15.255  -0.159  21.980  0.00  0.00    +0.037 A 
ATOM     12  C12 UNL     1      16.537  -0.583  21.586  0.00  0.00    +0.013 A 
ATOM     13  C13 UNL     1      17.267  -1.468  22.385  0.00  0.00    +0.004 A 
ATOM     14  C14 UNL     1      16.723  -1.959  23.580  0.00  0.00    -0.050 A 
ATOM     15  C15 UNL     1      17.523  -2.877  24.455  0.00  0.00    +0.044 C 
ATOM     16  C16 UNL     1      15.448  -1.534  23.979  0.00  0.00    +0.004 A 
ATOM     17  C17 UNL     1      14.716  -0.650  23.181  0.00  0.00    +0.013 A 
ENDBRANCH   8  11
ENDBRANCH   5   7
BRANCH   1  18
ATOM     18  C5  UNL     1      11.171   5.556  22.252  0.00  0.00    +0.123 C 
BRANCH  18  21
ATOM     19  C2  UNL     1       9.792   9.010  21.385  0.00  0.00    +0.162 A 
ATOM     20  C3  UNL     1      10.671   7.930  21.593  0.00  0.00    +0.058 A 
ATOM     21  C4  UNL     1      10.190   6.683  22.024  0.00  0.00    +0.012 A 
ATOM     22  C19 UNL     1       8.812   6.515  22.254  0.00  0.00    +0.125 A 
ATOM     23  C20 UNL     1       7.936   7.588  22.046  0.00  0.00    +0.094 A 
ATOM     24  C21 UNL     1       8.417   8.828  21.615  0.00  0.00    +0.162 A 
BRANCH  19  26
ATOM     25  C1  UNL     1      10.761  10.538  19.655  0.00  0.00    +0.277 C 
ATOM     26  O1  UNL     1      10.246  10.267  20.955  0.00  0.00    -0.491 OA
ENDBRANCH  19  26
BRANCH  22  27
ATOM     27  O3  UNL     1       8.311   5.289  22.692  0.00  0.00    -0.506 OA
ATOM     28  H24 UNL     1       7.486   4.873  22.279  0.00  0.00    +0.292 HD
ENDBRANCH  22  27
BRANCH  24  29
ATOM     29  O4  UNL     1       7.510   9.870  21.420  0.00  0.00    -0.503 OA
ATOM     30  H26 UNL     1       7.008   9.994  20.549  0.00  0.00    +0.292 HD
ENDBRANCH  24  29
ENDBRANCH  18  21
ENDBRANCH   1  18
TORSDOF 7
ENDMDL
