REMARK  Name = /home/qwerty/github/datacon2025hack/step_04_hit_selection/docking/ligands/lig_420.pdb
REMARK  5 active torsions:
REMARK  status: ('A' for Active; 'I' for Inactive)
REMARK    1  A    between atoms: C2_2  and  C3_3
REMARK    2  A    between atoms: C3_3  and  C4_4
REMARK    3  A    between atoms: C4_4  and  C5_5
REMARK    4  A    between atoms: C13_16  and  C14_18
REMARK    5  A    between atoms: C17_22  and  C18_23
REMARK                            x       y       z     vdW  Elec       q    Type
REMARK                         _______ _______ _______ _____ _____    ______ ____
ROOT
ATOM      1  C5  UNL     1       2.795  -0.411  -1.014  0.00  0.00    +0.216 C 
ATOM      2  O1  UNL     1       2.762  -0.492  -2.273  0.00  0.00    -0.276 OA
ATOM      3  N1  UNL     1       1.648  -0.841  -0.244  0.00  0.00    -0.297 N 
ATOM      4  C6  UNL     1       1.815  -1.165   1.183  0.00  0.00    +0.108 C 
ATOM      5  C7  UNL     1       0.747  -2.131   1.680  0.00  0.00    +0.021 C 
ATOM      6  C8  UNL     1      -0.629  -1.573   1.366  0.00  0.00    +0.026 C 
ATOM      7  C9  UNL     1      -0.828  -1.491  -0.150  0.00  0.00    +0.097 C 
ATOM      8  C10 UNL     1       0.317  -0.774  -0.889  0.00  0.00    +0.098 C 
ATOM      9  C11 UNL     1      -0.161   0.669  -1.050  0.00  0.00    +0.043 C 
ATOM     10  C12 UNL     1      -1.682   0.579  -1.075  0.00  0.00    +0.110 C 
ATOM     11  N2  UNL     1      -2.011  -0.689  -0.438  0.00  0.00    -0.293 N 
ATOM     12  C13 UNL     1      -3.351  -1.204  -0.355  0.00  0.00    +0.250 C 
ATOM     13  O2  UNL     1      -3.545  -2.449  -0.374  0.00  0.00    -0.270 OA
ENDROOT
BRANCH  12  14
ATOM     14  C14 UNL     1      -4.514  -0.306  -0.279  0.00  0.00    +0.077 A 
ATOM     15  C15 UNL     1      -5.658  -0.408  -1.041  0.00  0.00    +0.054 A 
ATOM     16  C16 UNL     1      -6.488   0.607  -0.611  0.00  0.00    +0.196 A 
ATOM     17  O3  UNL     1      -5.910   1.273   0.364  0.00  0.00    -0.467 OA
ATOM     18  C17 UNL     1      -4.731   0.745   0.599  0.00  0.00    +0.114 A 
ATOM     19  C18 UNL     1      -3.822   1.225   1.685  0.00  0.00    +0.087 C 
ENDBRANCH  12  14
BRANCH   1  20
ATOM     20  C4  UNL     1       4.055   0.086  -0.344  0.00  0.00    +0.100 C 
BRANCH  20  21
ATOM     21  C3  UNL     1       4.810   1.105  -1.210  0.00  0.00    +0.036 C 
BRANCH  21  23
ATOM     22  C1  UNL     1       5.971   2.437   0.535  0.00  0.00    +0.004 C 
ATOM     23  C2  UNL     1       6.043   1.607  -0.511  0.00  0.00    -0.034 C 
ENDBRANCH  21  23
ENDBRANCH  20  21
ENDBRANCH   1  20
TORSDOF 4
