MODEL 1
REMARK VINA RESULT:    -6.451      0.000      0.000
REMARK INTER + INTRA:          -8.023
REMARK INTER:                  -7.583
REMARK INTRA:                  -0.440
REMARK UNBOUND:                -0.440
REMARK  Name = /home/qwerty/github/datacon2025hack/step_04_hit_selection/docking/ligands/lig_715.pdb
REMARK  5 active torsions:
REMARK  status: ('A' for Active; 'I' for Inactive)
REMARK    1  A    between atoms: C1_1  and  O1_2
REMARK    2  A    between atoms: O1_2  and  C2_3
REMARK    3  A    between atoms: C4_5  and  C5_6
REMARK    4  A    between atoms: C6_9  and  C7_10
REMARK    5  A    between atoms: N3_19  and  C14_20
REMARK                            x       y       z     vdW  Elec       q    Type
REMARK                         _______ _______ _______ _____ _____    ______ ____
ROOT
ATOM      1  C5  UNL     1      14.503   0.884  21.405  0.00  0.00    +0.202 A 
ATOM      2  N1  UNL     1      14.770   1.327  20.159  0.00  0.00    -0.056 NA
ATOM      3  O2  UNL     1      13.845   2.202  19.908  0.00  0.00    -0.332 OA
ATOM      4  C6  UNL     1      13.040   2.303  20.938  0.00  0.00    +0.260 A 
ATOM      5  N4  UNL     1      13.413   1.478  21.936  0.00  0.00    -0.187 NA
ENDROOT
BRANCH   4   6
ATOM      6  C7  UNL     1      11.876   3.207  20.996  0.00  0.00    +0.061 A 
ATOM      7  C8  UNL     1      11.911   4.456  20.356  0.00  0.00    +0.126 A 
ATOM      8  N2  UNL     1      10.833   5.284  20.404  0.00  0.00    -0.236 NA
ATOM      9  C9  UNL     1       9.697   4.943  21.073  0.00  0.00    +0.163 A 
ATOM     10  C10 UNL     1       9.628   3.716  21.745  0.00  0.00    +0.161 A 
ATOM     11  C11 UNL     1      10.714   2.842  21.694  0.00  0.00    +0.064 A 
ATOM     12  O3  UNL     1       8.472   3.380  22.455  0.00  0.00    -0.487 OA
ATOM     13  C12 UNL     1       7.476   4.359  22.757  0.00  0.00    +0.248 C 
ATOM     14  C13 UNL     1       7.263   5.294  21.562  0.00  0.00    +0.147 C 
ATOM     15  N3  UNL     1       8.552   5.816  21.085  0.00  0.00    -0.312 N 
ATOM     16  C14 UNL     1       8.650   7.171  20.538  0.00  0.00    +0.131 C 
ENDBRANCH   4   6
BRANCH   1  19
ATOM     17  C2  UNL     1      15.665  -1.609  24.029  0.00  0.00    +0.156 A 
ATOM     18  C3  UNL     1      14.896  -0.637  23.356  0.00  0.00    +0.060 A 
ATOM     19  C4  UNL     1      15.310  -0.136  22.109  0.00  0.00    +0.026 A 
ATOM     20  C15 UNL     1      16.502  -0.615  21.539  0.00  0.00    +0.015 A 
ATOM     21  C16 UNL     1      17.265  -1.578  22.204  0.00  0.00    +0.043 A 
ATOM     22  C17 UNL     1      16.849  -2.072  23.443  0.00  0.00    +0.165 A 
ATOM     23  F1  UNL     1      17.599  -3.008  24.076  0.00  0.00    -0.202 F 
BRANCH  17  25
ATOM     24  C1  UNL     1      14.175  -3.001  25.480  0.00  0.00    +0.277 C 
ATOM     25  O1  UNL     1      15.286  -2.135  25.274  0.00  0.00    -0.492 OA
ENDBRANCH  17  25
ENDBRANCH   1  19
TORSDOF 3
ENDMDL
MODEL 2
REMARK VINA RESULT:    -6.279     17.174     17.705
REMARK INTER + INTRA:          -7.820
REMARK INTER:                  -7.390
REMARK INTRA:                  -0.430
REMARK UNBOUND:                -0.440
REMARK  Name = /home/qwerty/github/datacon2025hack/step_04_hit_selection/docking/ligands/lig_715.pdb
REMARK  5 active torsions:
REMARK  status: ('A' for Active; 'I' for Inactive)
REMARK    1  A    between atoms: C1_1  and  O1_2
REMARK    2  A    between atoms: O1_2  and  C2_3
REMARK    3  A    between atoms: C4_5  and  C5_6
REMARK    4  A    between atoms: C6_9  and  C7_10
REMARK    5  A    between atoms: N3_19  and  C14_20
REMARK                            x       y       z     vdW  Elec       q    Type
REMARK                         _______ _______ _______ _____ _____    ______ ____
ROOT
ATOM      1  C5  UNL     1      20.098   8.458  36.760  0.00  0.00    +0.202 A 
ATOM      2  N1  UNL     1      19.513   7.976  37.875  0.00  0.00    -0.056 NA
ATOM      3  O2  UNL     1      18.463   8.719  38.052  0.00  0.00    -0.332 OA
ATOM      4  C6  UNL     1      18.391   9.617  37.101  0.00  0.00    +0.260 A 
ATOM      5  N4  UNL     1      19.417   9.500  36.235  0.00  0.00    -0.187 NA
ENDROOT
BRANCH   4   6
ATOM      6  C7  UNL     1      17.321  10.628  36.992  0.00  0.00    +0.061 A 
ATOM      7  C8  UNL     1      17.638  11.992  36.901  0.00  0.00    +0.126 A 
ATOM      8  N2  UNL     1      16.651  12.921  36.791  0.00  0.00    -0.236 NA
ATOM      9  C9  UNL     1      15.335  12.570  36.774  0.00  0.00    +0.163 A 
ATOM     10  C10 UNL     1      14.975  11.221  36.886  0.00  0.00    +0.161 A 
ATOM     11  C11 UNL     1      15.970  10.248  36.981  0.00  0.00    +0.064 A 
ATOM     12  O3  UNL     1      13.623  10.865  36.898  0.00  0.00    -0.487 OA
ATOM     13  C12 UNL     1      12.600  11.843  37.089  0.00  0.00    +0.248 C 
ATOM     14  C13 UNL     1      12.933  13.126  36.318  0.00  0.00    +0.147 C 
ATOM     15  N3  UNL     1      14.304  13.562  36.622  0.00  0.00    -0.312 N 
ATOM     16  C14 UNL     1      14.636  14.988  36.672  0.00  0.00    +0.131 C 
ENDBRANCH   4   6
BRANCH   1  19
ATOM     17  C2  UNL     1      22.929   7.756  34.322  0.00  0.00    +0.156 A 
ATOM     18  C3  UNL     1      21.745   8.279  34.880  0.00  0.00    +0.060 A 
ATOM     19  C4  UNL     1      21.340   7.909  36.176  0.00  0.00    +0.026 A 
ATOM     20  C15 UNL     1      22.132   7.009  36.909  0.00  0.00    +0.015 A 
ATOM     21  C16 UNL     1      23.305   6.490  36.358  0.00  0.00    +0.043 A 
ATOM     22  C17 UNL     1      23.702   6.861  35.071  0.00  0.00    +0.165 A 
ATOM     23  F1  UNL     1      24.845   6.350  34.550  0.00  0.00    -0.202 F 
BRANCH  17  25
ATOM     24  C1  UNL     1      24.314   9.125  32.750  0.00  0.00    +0.277 C 
ATOM     25  O1  UNL     1      23.367   8.100  33.034  0.00  0.00    -0.492 OA
ENDBRANCH  17  25
ENDBRANCH   1  19
TORSDOF 3
ENDMDL
MODEL 3
REMARK VINA RESULT:    -6.249      1.324      1.966
REMARK INTER + INTRA:          -7.785
REMARK INTER:                  -7.351
REMARK INTRA:                  -0.434
REMARK UNBOUND:                -0.440
REMARK  Name = /home/qwerty/github/datacon2025hack/step_04_hit_selection/docking/ligands/lig_715.pdb
REMARK  5 active torsions:
REMARK  status: ('A' for Active; 'I' for Inactive)
REMARK    1  A    between atoms: C1_1  and  O1_2
REMARK    2  A    between atoms: O1_2  and  C2_3
REMARK    3  A    between atoms: C4_5  and  C5_6
REMARK    4  A    between atoms: C6_9  and  C7_10
REMARK    5  A    between atoms: N3_19  and  C14_20
REMARK                            x       y       z     vdW  Elec       q    Type
REMARK                         _______ _______ _______ _____ _____    ______ ____
ROOT
ATOM      1  C5  UNL     1      14.677   1.153  21.343  0.00  0.00    +0.202 A 
ATOM      2  N1  UNL     1      15.067   1.639  20.147  0.00  0.00    -0.056 NA
ATOM      3  O2  UNL     1      14.203   2.565  19.862  0.00  0.00    -0.332 OA
ATOM      4  C6  UNL     1      13.319   2.657  20.825  0.00  0.00    +0.260 A 
ATOM      5  N4  UNL     1      13.572   1.771  21.810  0.00  0.00    -0.187 NA
ENDROOT
BRANCH   4   6
ATOM      6  C7  UNL     1      12.191   3.608  20.831  0.00  0.00    +0.061 A 
ATOM      7  C8  UNL     1      10.877   3.153  21.020  0.00  0.00    +0.126 A 
ATOM      8  N2  UNL     1       9.840   4.033  21.034  0.00  0.00    -0.236 NA
ATOM      9  C9  UNL     1      10.032   5.370  20.859  0.00  0.00    +0.163 A 
ATOM     10  C10 UNL     1      11.325   5.863  20.645  0.00  0.00    +0.161 A 
ATOM     11  C11 UNL     1      12.407   4.982  20.645  0.00  0.00    +0.064 A 
ATOM     12  O3  UNL     1      11.518   7.232  20.436  0.00  0.00    -0.487 OA
ATOM     13  C12 UNL     1      10.420   8.100  20.150  0.00  0.00    +0.248 C 
ATOM     14  C13 UNL     1       9.206   7.733  21.010  0.00  0.00    +0.147 C 
ATOM     15  N3  UNL     1       8.928   6.292  20.911  0.00  0.00    -0.312 N 
ATOM     16  C14 UNL     1       7.552   5.794  20.965  0.00  0.00    +0.131 C 
ENDBRANCH   4   6
BRANCH   1  19
ATOM     17  C2  UNL     1      15.591  -1.403  24.004  0.00  0.00    +0.156 A 
ATOM     18  C3  UNL     1      14.923  -0.368  23.318  0.00  0.00    +0.060 A 
ATOM     19  C4  UNL     1      15.379   0.067  22.061  0.00  0.00    +0.026 A 
ATOM     20  C15 UNL     1      16.512  -0.541  21.495  0.00  0.00    +0.015 A 
ATOM     21  C16 UNL     1      17.176  -1.566  22.173  0.00  0.00    +0.043 A 
ATOM     22  C17 UNL     1      16.718  -1.995  23.421  0.00  0.00    +0.165 A 
ATOM     23  F1  UNL     1      17.372  -2.992  24.067  0.00  0.00    -0.202 F 
BRANCH  17  25
ATOM     24  C1  UNL     1      14.243  -2.931  25.456  0.00  0.00    +0.277 C 
ATOM     25  O1  UNL     1      15.167  -1.867  25.259  0.00  0.00    -0.492 OA
ENDBRANCH  17  25
ENDBRANCH   1  19
TORSDOF 3
ENDMDL
MODEL 4
REMARK VINA RESULT:    -6.174     15.658     18.043
REMARK INTER + INTRA:          -7.696
REMARK INTER:                  -7.298
REMARK INTRA:                  -0.399
REMARK UNBOUND:                -0.440
REMARK  Name = /home/qwerty/github/datacon2025hack/step_04_hit_selection/docking/ligands/lig_715.pdb
REMARK  5 active torsions:
REMARK  status: ('A' for Active; 'I' for Inactive)
REMARK    1  A    between atoms: C1_1  and  O1_2
REMARK    2  A    between atoms: O1_2  and  C2_3
REMARK    3  A    between atoms: C4_5  and  C5_6
REMARK    4  A    between atoms: C6_9  and  C7_10
REMARK    5  A    between atoms: N3_19  and  C14_20
REMARK                            x       y       z     vdW  Elec       q    Type
REMARK                         _______ _______ _______ _____ _____    ______ ____
ROOT
ATOM      1  C5  UNL     1      12.642  14.097  32.189  0.00  0.00    +0.202 A 
ATOM      2  N1  UNL     1      12.452  15.017  33.156  0.00  0.00    -0.056 NA
ATOM      3  O2  UNL     1      13.237  14.654  34.124  0.00  0.00    -0.332 OA
ATOM      4  C6  UNL     1      13.885  13.567  33.784  0.00  0.00    +0.260 A 
ATOM      5  N4  UNL     1      13.545  13.159  32.546  0.00  0.00    -0.187 NA
ENDROOT
BRANCH   4   6
ATOM      6  C7  UNL     1      14.864  12.879  34.648  0.00  0.00    +0.061 A 
ATOM      7  C8  UNL     1      14.436  11.944  35.603  0.00  0.00    +0.126 A 
ATOM      8  N2  UNL     1      15.340  11.304  36.392  0.00  0.00    -0.236 NA
ATOM      9  C9  UNL     1      16.677  11.548  36.293  0.00  0.00    +0.163 A 
ATOM     10  C10 UNL     1      17.144  12.491  35.369  0.00  0.00    +0.161 A 
ATOM     11  C11 UNL     1      16.237  13.147  34.536  0.00  0.00    +0.064 A 
ATOM     12  O3  UNL     1      18.513  12.762  35.289  0.00  0.00    -0.487 OA
ATOM     13  C12 UNL     1      19.416  12.326  36.306  0.00  0.00    +0.248 C 
ATOM     14  C13 UNL     1      19.054  10.913  36.777  0.00  0.00    +0.147 C 
ATOM     15  N3  UNL     1      17.624  10.837  37.111  0.00  0.00    -0.312 N 
ATOM     16  C14 UNL     1      17.159   9.973  38.199  0.00  0.00    +0.131 C 
ENDBRANCH   4   6
BRANCH   1  19
ATOM     17  C2  UNL     1       9.963  13.636  29.531  0.00  0.00    +0.156 A 
ATOM     18  C3  UNL     1      10.631  13.621  30.773  0.00  0.00    +0.060 A 
ATOM     19  C4  UNL     1      11.943  14.114  30.885  0.00  0.00    +0.026 A 
ATOM     20  C15 UNL     1      12.584  14.622  29.743  0.00  0.00    +0.015 A 
ATOM     21  C16 UNL     1      11.925  14.638  28.512  0.00  0.00    +0.043 A 
ATOM     22  C17 UNL     1      10.621  14.147  28.406  0.00  0.00    +0.165 A 
ATOM     23  F1  UNL     1       9.993  14.170  27.204  0.00  0.00    -0.202 F 
BRANCH  17  25
ATOM     24  C1  UNL     1       7.480  13.880  29.725  0.00  0.00    +0.277 C 
ATOM     25  O1  UNL     1       8.654  13.153  29.377  0.00  0.00    -0.492 OA
ENDBRANCH  17  25
ENDBRANCH   1  19
TORSDOF 3
ENDMDL
MODEL 5
REMARK VINA RESULT:    -5.979      3.995      9.411
REMARK INTER + INTRA:          -7.467
REMARK INTER:                  -7.048
REMARK INTRA:                  -0.419
REMARK UNBOUND:                -0.440
REMARK  Name = /home/qwerty/github/datacon2025hack/step_04_hit_selection/docking/ligands/lig_715.pdb
REMARK  5 active torsions:
REMARK  status: ('A' for Active; 'I' for Inactive)
REMARK    1  A    between atoms: C1_1  and  O1_2
REMARK    2  A    between atoms: O1_2  and  C2_3
REMARK    3  A    between atoms: C4_5  and  C5_6
REMARK    4  A    between atoms: C6_9  and  C7_10
REMARK    5  A    between atoms: N3_19  and  C14_20
REMARK                            x       y       z     vdW  Elec       q    Type
REMARK                         _______ _______ _______ _____ _____    ______ ____
ROOT
ATOM      1  C5  UNL     1      10.137   4.992  21.415  0.00  0.00    +0.202 A 
ATOM      2  N1  UNL     1       9.242   3.983  21.419  0.00  0.00    -0.056 NA
ATOM      3  O2  UNL     1       9.953   2.905  21.559  0.00  0.00    -0.332 OA
ATOM      4  C6  UNL     1      11.223   3.219  21.640  0.00  0.00    +0.260 A 
ATOM      5  N4  UNL     1      11.406   4.552  21.554  0.00  0.00    -0.187 NA
ENDROOT
BRANCH   4   6
ATOM      6  C7  UNL     1      12.313   2.239  21.806  0.00  0.00    +0.061 A 
ATOM      7  C8  UNL     1      12.453   1.527  23.007  0.00  0.00    +0.126 A 
ATOM      8  N2  UNL     1      13.453   0.617  23.155  0.00  0.00    -0.236 NA
ATOM      9  C9  UNL     1      14.350   0.371  22.159  0.00  0.00    +0.163 A 
ATOM     10  C10 UNL     1      14.260   1.076  20.953  0.00  0.00    +0.161 A 
ATOM     11  C11 UNL     1      13.231   2.001  20.771  0.00  0.00    +0.064 A 
ATOM     12  O3  UNL     1      15.198   0.843  19.943  0.00  0.00    -0.487 OA
ATOM     13  C12 UNL     1      16.406   0.127  20.204  0.00  0.00    +0.248 C 
ATOM     14  C13 UNL     1      16.136  -1.061  21.135  0.00  0.00    +0.147 C 
ATOM     15  N3  UNL     1      15.382  -0.620  22.318  0.00  0.00    -0.312 N 
ATOM     16  C14 UNL     1      15.606  -1.251  23.621  0.00  0.00    +0.131 C 
ENDBRANCH   4   6
BRANCH   1  19
ATOM     17  C2  UNL     1      10.238   8.655  20.404  0.00  0.00    +0.156 A 
ATOM     18  C3  UNL     1      10.585   7.296  20.538  0.00  0.00    +0.060 A 
ATOM     19  C4  UNL     1       9.771   6.418  21.276  0.00  0.00    +0.026 A 
ATOM     20  C15 UNL     1       8.603   6.913  21.881  0.00  0.00    +0.015 A 
ATOM     21  C16 UNL     1       8.257   8.260  21.750  0.00  0.00    +0.043 A 
ATOM     22  C17 UNL     1       9.070   9.127  21.016  0.00  0.00    +0.165 A 
ATOM     23  F1  UNL     1       8.721  10.432  20.897  0.00  0.00    -0.202 F 
BRANCH  17  25
ATOM     24  C1  UNL     1      12.033  10.391  20.243  0.00  0.00    +0.277 C 
ATOM     25  O1  UNL     1      11.023   9.563  19.676  0.00  0.00    -0.492 OA
ENDBRANCH  17  25
ENDBRANCH   1  19
TORSDOF 3
ENDMDL
MODEL 6
REMARK VINA RESULT:    -5.902      3.602      8.874
REMARK INTER + INTRA:          -7.377
REMARK INTER:                  -6.982
REMARK INTRA:                  -0.395
REMARK UNBOUND:                -0.440
REMARK  Name = /home/qwerty/github/datacon2025hack/step_04_hit_selection/docking/ligands/lig_715.pdb
REMARK  5 active torsions:
REMARK  status: ('A' for Active; 'I' for Inactive)
REMARK    1  A    between atoms: C1_1  and  O1_2
REMARK    2  A    between atoms: O1_2  and  C2_3
REMARK    3  A    between atoms: C4_5  and  C5_6
REMARK    4  A    between atoms: C6_9  and  C7_10
REMARK    5  A    between atoms: N3_19  and  C14_20
REMARK                            x       y       z     vdW  Elec       q    Type
REMARK                         _______ _______ _______ _____ _____    ______ ____
ROOT
ATOM      1  C5  UNL     1      12.255   3.914  20.942  0.00  0.00    +0.202 A 
ATOM      2  N1  UNL     1      12.813   3.248  19.910  0.00  0.00    -0.056 NA
ATOM      3  O2  UNL     1      13.314   2.173  20.436  0.00  0.00    -0.332 OA
ATOM      4  C6  UNL     1      13.085   2.162  21.726  0.00  0.00    +0.260 A 
ATOM      5  N4  UNL     1      12.405   3.259  22.114  0.00  0.00    -0.187 NA
ENDROOT
BRANCH   4   6
ATOM      6  C7  UNL     1      13.516   1.085  22.639  0.00  0.00    +0.061 A 
ATOM      7  C8  UNL     1      12.823   0.848  23.836  0.00  0.00    +0.126 A 
ATOM      8  N2  UNL     1      13.217  -0.151  24.671  0.00  0.00    -0.236 NA
ATOM      9  C9  UNL     1      14.288  -0.943  24.387  0.00  0.00    +0.163 A 
ATOM     10  C10 UNL     1      15.022  -0.724  23.214  0.00  0.00    +0.161 A 
ATOM     11  C11 UNL     1      14.626   0.283  22.332  0.00  0.00    +0.064 A 
ATOM     12  O3  UNL     1      16.139  -1.518  22.938  0.00  0.00    -0.487 OA
ATOM     13  C12 UNL     1      16.725  -2.348  23.941  0.00  0.00    +0.248 C 
ATOM     14  C13 UNL     1      15.636  -3.019  24.787  0.00  0.00    +0.147 C 
ATOM     15  N3  UNL     1      14.671  -2.018  25.264  0.00  0.00    -0.312 N 
ATOM     16  C14 UNL     1      14.033  -2.165  26.574  0.00  0.00    +0.131 C 
ENDBRANCH   4   6
BRANCH   1  19
ATOM     17  C2  UNL     1       9.502   6.495  20.485  0.00  0.00    +0.156 A 
ATOM     18  C3  UNL     1      10.167   5.258  20.613  0.00  0.00    +0.060 A 
ATOM     19  C4  UNL     1      11.559   5.212  20.807  0.00  0.00    +0.026 A 
ATOM     20  C15 UNL     1      12.282   6.415  20.872  0.00  0.00    +0.015 A 
ATOM     21  C16 UNL     1      11.625   7.641  20.744  0.00  0.00    +0.043 A 
ATOM     22  C17 UNL     1      10.242   7.681  20.551  0.00  0.00    +0.165 A 
ATOM     23  F1  UNL     1       9.618   8.879  20.430  0.00  0.00    -0.202 F 
BRANCH  17  25
ATOM     24  C1  UNL     1       7.140   5.995  21.144  0.00  0.00    +0.277 C 
ATOM     25  O1  UNL     1       8.115   6.584  20.290  0.00  0.00    -0.492 OA
ENDBRANCH  17  25
ENDBRANCH   1  19
TORSDOF 3
ENDMDL
MODEL 7
REMARK VINA RESULT:    -5.896      8.849     12.960
REMARK INTER + INTRA:          -7.370
REMARK INTER:                  -6.949
REMARK INTRA:                  -0.421
REMARK UNBOUND:                -0.440
REMARK  Name = /home/qwerty/github/datacon2025hack/step_04_hit_selection/docking/ligands/lig_715.pdb
REMARK  5 active torsions:
REMARK  status: ('A' for Active; 'I' for Inactive)
REMARK    1  A    between atoms: C1_1  and  O1_2
REMARK    2  A    between atoms: O1_2  and  C2_3
REMARK    3  A    between atoms: C4_5  and  C5_6
REMARK    4  A    between atoms: C6_9  and  C7_10
REMARK    5  A    between atoms: N3_19  and  C14_20
REMARK                            x       y       z     vdW  Elec       q    Type
REMARK                         _______ _______ _______ _____ _____    ______ ____
ROOT
ATOM      1  C5  UNL     1       7.375   8.693  29.228  0.00  0.00    +0.202 A 
ATOM      2  N1  UNL     1       7.030   8.418  30.503  0.00  0.00    -0.056 NA
ATOM      3  O2  UNL     1       6.818   7.137  30.524  0.00  0.00    -0.332 OA
ATOM      4  C6  UNL     1       7.019   6.635  29.330  0.00  0.00    +0.260 A 
ATOM      5  N4  UNL     1       7.381   7.590  28.450  0.00  0.00    -0.187 NA
ENDROOT
BRANCH   4   6
ATOM      6  C7  UNL     1       6.868   5.207  28.992  0.00  0.00    +0.061 A 
ATOM      7  C8  UNL     1       6.126   4.354  29.824  0.00  0.00    +0.126 A 
ATOM      8  N2  UNL     1       5.981   3.039  29.507  0.00  0.00    -0.236 NA
ATOM      9  C9  UNL     1       6.549   2.505  28.390  0.00  0.00    +0.163 A 
ATOM     10  C10 UNL     1       7.318   3.316  27.545  0.00  0.00    +0.161 A 
ATOM     11  C11 UNL     1       7.465   4.672  27.840  0.00  0.00    +0.064 A 
ATOM     12  O3  UNL     1       7.924   2.760  26.415  0.00  0.00    -0.487 OA
ATOM     13  C12 UNL     1       8.027   1.345  26.249  0.00  0.00    +0.248 C 
ATOM     14  C13 UNL     1       6.736   0.656  26.707  0.00  0.00    +0.147 C 
ATOM     15  N3  UNL     1       6.358   1.119  28.050  0.00  0.00    -0.312 N 
ATOM     16  C14 UNL     1       5.705   0.210  28.995  0.00  0.00    +0.131 C 
ENDBRANCH   4   6
BRANCH   1  19
ATOM     17  C2  UNL     1       7.936  12.452  29.130  0.00  0.00    +0.156 A 
ATOM     18  C3  UNL     1       7.617  11.160  29.596  0.00  0.00    +0.060 A 
ATOM     19  C4  UNL     1       7.709  10.048  28.739  0.00  0.00    +0.026 A 
ATOM     20  C15 UNL     1       8.123  10.240  27.410  0.00  0.00    +0.015 A 
ATOM     21  C16 UNL     1       8.438  11.520  26.947  0.00  0.00    +0.043 A 
ATOM     22  C17 UNL     1       8.345  12.620  27.803  0.00  0.00    +0.165 A 
ATOM     23  F1  UNL     1       8.656  13.856  27.339  0.00  0.00    -0.202 F 
BRANCH  17  25
ATOM     24  C1  UNL     1       6.796  14.535  29.921  0.00  0.00    +0.277 C 
ATOM     25  O1  UNL     1       7.857  13.586  29.953  0.00  0.00    -0.492 OA
ENDBRANCH  17  25
ENDBRANCH   1  19
TORSDOF 3
ENDMDL
MODEL 8
REMARK VINA RESULT:    -5.845      7.887     10.388
REMARK INTER + INTRA:          -7.310
REMARK INTER:                  -6.888
REMARK INTRA:                  -0.421
REMARK UNBOUND:                -0.440
REMARK  Name = /home/qwerty/github/datacon2025hack/step_04_hit_selection/docking/ligands/lig_715.pdb
REMARK  5 active torsions:
REMARK  status: ('A' for Active; 'I' for Inactive)
REMARK    1  A    between atoms: C1_1  and  O1_2
REMARK    2  A    between atoms: O1_2  and  C2_3
REMARK    3  A    between atoms: C4_5  and  C5_6
REMARK    4  A    between atoms: C6_9  and  C7_10
REMARK    5  A    between atoms: N3_19  and  C14_20
REMARK                            x       y       z     vdW  Elec       q    Type
REMARK                         _______ _______ _______ _____ _____    ______ ____
ROOT
ATOM      1  C5  UNL     1      18.352   8.299  19.159  0.00  0.00    +0.202 A 
ATOM      2  N1  UNL     1      19.071   7.361  18.509  0.00  0.00    -0.056 NA
ATOM      3  O2  UNL     1      18.441   6.247  18.723  0.00  0.00    -0.332 OA
ATOM      4  C6  UNL     1      17.385   6.471  19.466  0.00  0.00    +0.260 A 
ATOM      5  N4  UNL     1      17.273   7.777  19.780  0.00  0.00    -0.187 NA
ENDROOT
BRANCH   4   6
ATOM      6  C7  UNL     1      16.439   5.426  19.902  0.00  0.00    +0.061 A 
ATOM      7  C8  UNL     1      15.244   5.774  20.550  0.00  0.00    +0.126 A 
ATOM      8  N2  UNL     1      14.369   4.810  20.944  0.00  0.00    -0.236 NA
ATOM      9  C9  UNL     1      14.619   3.488  20.735  0.00  0.00    +0.163 A 
ATOM     10  C10 UNL     1      15.811   3.095  20.114  0.00  0.00    +0.161 A 
ATOM     11  C11 UNL     1      16.715   4.067  19.684  0.00  0.00    +0.064 A 
ATOM     12  O3  UNL     1      16.079   1.736  19.927  0.00  0.00    -0.487 OA
ATOM     13  C12 UNL     1      15.321   0.731  20.601  0.00  0.00    +0.248 C 
ATOM     14  C13 UNL     1      13.835   1.108  20.630  0.00  0.00    +0.147 C 
ATOM     15  N3  UNL     1      13.667   2.482  21.127  0.00  0.00    -0.312 N 
ATOM     16  C14 UNL     1      12.495   2.844  21.927  0.00  0.00    +0.131 C 
ENDBRANCH   4   6
BRANCH   1  19
ATOM     17  C2  UNL     1      20.343  11.527  18.892  0.00  0.00    +0.156 A 
ATOM     18  C3  UNL     1      20.006  10.158  18.864  0.00  0.00    +0.060 A 
ATOM     19  C4  UNL     1      18.704   9.735  19.189  0.00  0.00    +0.026 A 
ATOM     20  C15 UNL     1      17.741  10.694  19.543  0.00  0.00    +0.015 A 
ATOM     21  C16 UNL     1      18.073  12.051  19.572  0.00  0.00    +0.043 A 
ATOM     22  C17 UNL     1      19.367  12.465  19.248  0.00  0.00    +0.165 A 
ATOM     23  F1  UNL     1      19.675  13.786  19.279  0.00  0.00    -0.202 F 
BRANCH  17  25
ATOM     24  C1  UNL     1      22.794  11.735  19.353  0.00  0.00    +0.277 C 
ATOM     25  O1  UNL     1      21.629  11.989  18.574  0.00  0.00    -0.492 OA
ENDBRANCH  17  25
ENDBRANCH   1  19
TORSDOF 3
ENDMDL
MODEL 9
REMARK VINA RESULT:    -5.833      2.181      3.072
REMARK INTER + INTRA:          -7.296
REMARK INTER:                  -6.881
REMARK INTRA:                  -0.415
REMARK UNBOUND:                -0.440
REMARK  Name = /home/qwerty/github/datacon2025hack/step_04_hit_selection/docking/ligands/lig_715.pdb
REMARK  5 active torsions:
REMARK  status: ('A' for Active; 'I' for Inactive)
REMARK    1  A    between atoms: C1_1  and  O1_2
REMARK    2  A    between atoms: O1_2  and  C2_3
REMARK    3  A    between atoms: C4_5  and  C5_6
REMARK    4  A    between atoms: C6_9  and  C7_10
REMARK    5  A    between atoms: N3_19  and  C14_20
REMARK                            x       y       z     vdW  Elec       q    Type
REMARK                         _______ _______ _______ _____ _____    ______ ____
ROOT
ATOM      1  C5  UNL     1      12.793   2.238  21.431  0.00  0.00    +0.202 A 
ATOM      2  N1  UNL     1      11.559   1.836  21.799  0.00  0.00    -0.056 NA
ATOM      3  O2  UNL     1      10.835   2.913  21.780  0.00  0.00    -0.332 OA
ATOM      4  C6  UNL     1      11.572   3.936  21.421  0.00  0.00    +0.260 A 
ATOM      5  N4  UNL     1      12.845   3.564  21.181  0.00  0.00    -0.187 NA
ENDROOT
BRANCH   4   6
ATOM      6  C7  UNL     1      11.072   5.318  21.295  0.00  0.00    +0.061 A 
ATOM      7  C8  UNL     1      11.687   6.219  20.412  0.00  0.00    +0.126 A 
ATOM      8  N2  UNL     1      11.219   7.490  20.290  0.00  0.00    -0.236 NA
ATOM      9  C9  UNL     1      10.155   7.934  21.016  0.00  0.00    +0.163 A 
ATOM     10  C10 UNL     1       9.526   7.074  21.925  0.00  0.00    +0.161 A 
ATOM     11  C11 UNL     1       9.977   5.760  22.054  0.00  0.00    +0.064 A 
ATOM     12  O3  UNL     1       8.453   7.540  22.690  0.00  0.00    -0.487 OA
ATOM     13  C12 UNL     1       8.161   8.935  22.786  0.00  0.00    +0.248 C 
ATOM     14  C13 UNL     1       8.340   9.616  21.424  0.00  0.00    +0.147 C 
ATOM     15  N3  UNL     1       9.649   9.272  20.850  0.00  0.00    -0.312 N 
ATOM     16  C14 UNL     1      10.384  10.244  20.036  0.00  0.00    +0.131 C 
ENDBRANCH   4   6
BRANCH   1  19
ATOM     17  C2  UNL     1      15.325  -0.491  22.201  0.00  0.00    +0.156 A 
ATOM     18  C3  UNL     1      14.218   0.374  22.311  0.00  0.00    +0.060 A 
ATOM     19  C4  UNL     1      13.955   1.331  21.314  0.00  0.00    +0.026 A 
ATOM     20  C15 UNL     1      14.812   1.416  20.204  0.00  0.00    +0.015 A 
ATOM     21  C16 UNL     1      15.910   0.559  20.092  0.00  0.00    +0.043 A 
ATOM     22  C17 UNL     1      16.166  -0.389  21.086  0.00  0.00    +0.165 A 
ATOM     23  F1  UNL     1      17.235  -1.214  20.964  0.00  0.00    -0.202 F 
BRANCH  17  25
ATOM     24  C1  UNL     1      16.213  -1.178  24.437  0.00  0.00    +0.277 C 
ATOM     25  O1  UNL     1      15.621  -1.458  23.173  0.00  0.00    -0.492 OA
ENDBRANCH  17  25
ENDBRANCH   1  19
TORSDOF 3
ENDMDL
