REMARK  Name = /home/qwerty/github/datacon2025hack/step_04_hit_selection/docking/ligands/lig_522.pdb
REMARK  4 active torsions:
REMARK  status: ('A' for Active; 'I' for Inactive)
REMARK    1  A    between atoms: C1_1  and  C2_2
REMARK    2  A    between atoms: C5_5  and  C6_6
REMARK    3  A    between atoms: C9_11  and  N2_12
REMARK    4  A    between atoms: C10_13  and  C11_15
REMARK                            x       y       z     vdW  Elec       q    Type
REMARK                         _______ _______ _______ _____ _____    ______ ____
ROOT
ATOM      1  C6  UNL     1      -2.387   1.358  -0.163  0.00  0.00    +0.248 C 
ATOM      2  O1  UNL     1      -2.425   2.616  -0.241  0.00  0.00    -0.270 OA
ATOM      3  N1  UNL     1      -1.168   0.664  -0.483  0.00  0.00    -0.296 N 
ATOM      4  C7  UNL     1      -1.125  -0.673  -1.056  0.00  0.00    +0.110 C 
ATOM      5  C8  UNL     1       0.348  -0.969  -1.303  0.00  0.00    +0.043 C 
ATOM      6  C9  UNL     1       1.048   0.391  -1.297  0.00  0.00    +0.092 C 
ATOM      7  C16 UNL     1       0.125   1.328  -0.517  0.00  0.00    +0.130 C 
ENDROOT
BRANCH   1  12
ATOM      8  C1  UNL     1      -7.204  -1.349   1.456  0.00  0.00    +0.065 C 
ATOM      9  C2  UNL     1      -5.939  -0.673   1.035  0.00  0.00    +0.038 A 
ATOM     10  C3  UNL     1      -4.709  -1.073   1.572  0.00  0.00    +0.024 A 
ATOM     11  C4  UNL     1      -3.543  -0.414   1.179  0.00  0.00    +0.016 A 
ATOM     12  C5  UNL     1      -3.606   0.632   0.248  0.00  0.00    +0.055 A 
ATOM     13  C17 UNL     1      -4.861   1.020  -0.242  0.00  0.00    +0.124 A 
ATOM     14  N4  UNL     1      -5.984   0.364   0.155  0.00  0.00    -0.259 NA
ENDBRANCH   1  12
BRANCH   6  15
ATOM     15  N2  UNL     1       2.376   0.302  -0.684  0.00  0.00    -0.306 N 
ATOM     16  C10 UNL     1       3.554   0.029  -1.458  0.00  0.00    +0.266 C 
ATOM     17  O2  UNL     1       3.445  -0.289  -2.674  0.00  0.00    -0.268 OA
ATOM     18  H11 UNL     1       2.435   0.216   0.356  0.00  0.00    +0.149 HD
BRANCH  16  19
ATOM     19  C11 UNL     1       4.899   0.068  -0.848  0.00  0.00    +0.161 A 
ATOM     20  N3  UNL     1       5.883  -0.706  -1.387  0.00  0.00    -0.245 NA
ATOM     21  C12 UNL     1       7.147  -0.724  -0.886  0.00  0.00    +0.150 A 
ATOM     22  C13 UNL     1       7.474   0.072   0.212  0.00  0.00    +0.144 A 
ATOM     23  F1  UNL     1       8.733   0.061   0.715  0.00  0.00    -0.204 F 
ATOM     24  C14 UNL     1       6.495   0.890   0.777  0.00  0.00    +0.080 A 
ATOM     25  C15 UNL     1       5.202   0.899   0.249  0.00  0.00    +0.156 A 
ATOM     26  F2  UNL     1       4.282   1.747   0.774  0.00  0.00    -0.203 F 
ENDBRANCH  16  19
ENDBRANCH   6  15
TORSDOF 3
