REMARK  Name = /home/qwerty/github/datacon2025hack/step_04_hit_selection/docking/ligands/lig_512.pdb
REMARK  8 active torsions:
REMARK  status: ('A' for Active; 'I' for Inactive)
REMARK    1  A    between atoms: C1_1  and  C2_2
REMARK    2  A    between atoms: C3_3  and  C4_4
REMARK    3  A    between atoms: C5_6  and  C6_8
REMARK    4  A    between atoms: C8_11  and  O2_12
REMARK    5  A    between atoms: N3_13  and  C9_14
REMARK    6  A    between atoms: C12_18  and  C13_20
REMARK    7  A    between atoms: C16_23  and  O4_24
REMARK    8  A    between atoms: C17_25  and  O5_26
REMARK                            x       y       z     vdW  Elec       q    Type
REMARK                         _______ _______ _______ _____ _____    ______ ____
ROOT
ATOM      1  C1  UNL     1      -0.304   1.842   1.449  0.00  0.00    +0.030 C 
ATOM      2  C2  UNL     1      -0.571   0.941   0.226  0.00  0.00    +0.093 C 
ATOM      3  C3  UNL     1      -1.325  -0.357   0.627  0.00  0.00    +0.093 C 
ATOM      4  C4  UNL     1      -0.668  -1.104   1.801  0.00  0.00    +0.030 C 
ATOM      5  N1  UNL     1      -1.427  -1.260  -0.534  0.00  0.00    -0.290 N 
ATOM      6  C5  UNL     1      -2.552  -2.155  -0.643  0.00  0.00    +0.265 C 
ATOM      7  O1  UNL     1      -2.356  -3.374  -0.903  0.00  0.00    -0.268 OA
ATOM      8  C10 UNL     1      -0.203  -1.571  -1.281  0.00  0.00    +0.127 C 
ATOM      9  C11 UNL     1       0.526  -0.288  -1.672  0.00  0.00    +0.127 C 
ATOM     10  N4  UNL     1       0.661   0.610  -0.520  0.00  0.00    -0.291 N 
ATOM     11  C12 UNL     1       1.773   1.522  -0.550  0.00  0.00    +0.247 C 
ATOM     12  O3  UNL     1       1.577   2.720  -0.893  0.00  0.00    -0.270 OA
ENDROOT
BRANCH   6  13
ATOM     13  C6  UNL     1      -3.935  -1.694  -0.414  0.00  0.00    +0.126 A 
ATOM     14  C7  UNL     1      -4.917  -2.424   0.223  0.00  0.00    +0.147 A 
ATOM     15  N2  UNL     1      -6.056  -1.703   0.271  0.00  0.00    -0.203 NA
ATOM     16  C8  UNL     1      -5.740  -0.551  -0.356  0.00  0.00    +0.296 A 
ATOM     17  N3  UNL     1      -4.465  -0.514  -0.799  0.00  0.00    -0.293 N 
ATOM     18  C9  UNL     1      -3.843   0.559  -1.575  0.00  0.00    +0.154 C 
BRANCH  16  19
ATOM     19  O2  UNL     1      -6.657   0.485  -0.520  0.00  0.00    -0.480 OA
ATOM     20  H10 UNL     1      -6.403   1.354  -0.972  0.00  0.00    +0.295 HD
ENDBRANCH  16  19
ENDBRANCH   6  13
BRANCH  11  21
ATOM     21  C13 UNL     1       3.141   1.062  -0.207  0.00  0.00    +0.041 A 
ATOM     22  C14 UNL     1       3.359  -0.234   0.287  0.00  0.00    +0.017 A 
ATOM     23  C15 UNL     1       4.648  -0.659   0.614  0.00  0.00    +0.050 A 
ATOM     24  C16 UNL     1       5.744   0.196   0.459  0.00  0.00    +0.158 A 
ATOM     25  C17 UNL     1       5.537   1.506  -0.034  0.00  0.00    +0.159 A 
ATOM     26  C18 UNL     1       4.241   1.924  -0.360  0.00  0.00    +0.062 A 
BRANCH  24  27
ATOM     27  O4  UNL     1       7.006  -0.291   0.804  0.00  0.00    -0.503 OA
ATOM     28  H20 UNL     1       7.858   0.245   0.729  0.00  0.00    +0.292 HD
ENDBRANCH  24  27
BRANCH  25  29
ATOM     29  O5  UNL     1       6.581   2.416  -0.214  0.00  0.00    -0.503 OA
ATOM     30  H21 UNL     1       7.549   2.214  -0.009  0.00  0.00    +0.292 HD
ENDBRANCH  25  29
ENDBRANCH  11  21
TORSDOF 5
