MODEL 1
REMARK VINA RESULT:    -5.637      0.000      0.000
REMARK INTER + INTRA:          -9.253
REMARK INTER:                  -7.944
REMARK INTRA:                  -1.309
REMARK UNBOUND:                -1.309
REMARK  Name = /home/qwerty/github/datacon2025hack/step_04_hit_selection/docking/ligands/lig_789.pdb
REMARK  9 active torsions:
REMARK  status: ('A' for Active; 'I' for Inactive)
REMARK    1  A    between atoms: C1_1  and  C2_2
REMARK    2  A    between atoms: C2_2  and  C3_3
REMARK    3  A    between atoms: C2_2  and  C4_4
REMARK    4  A    between atoms: C6_7  and  C7_8
REMARK    5  A    between atoms: C7_8  and  N2_9
REMARK    6  A    between atoms: N2_9  and  C8_10
REMARK    7  A    between atoms: C8_10  and  C9_11
REMARK    8  A    between atoms: C9_11  and  N3_12
REMARK    9  A    between atoms: C10_13  and  C11_15
REMARK                            x       y       z     vdW  Elec       q    Type
REMARK                         _______ _______ _______ _____ _____    ______ ____
ROOT
ATOM      1  C8  UNL     1      20.637   4.150  23.491  0.00  0.00    +0.035 C 
ATOM      2  C13 UNL     1      20.614   4.114  21.928  0.00  0.00    +0.024 C 
ATOM      3  C14 UNL     1      19.787   5.257  21.308  0.00  0.00    +0.002 C 
ATOM      4  C15 UNL     1      19.982   6.612  22.019  0.00  0.00    +0.000 C 
ATOM      5  C16 UNL     1      21.223   6.633  22.915  0.00  0.00    +0.002 C 
ATOM      6  C17 UNL     1      21.144   5.549  24.006  0.00  0.00    +0.024 C 
ENDROOT
BRANCH   1   7
ATOM      7  N2  UNL     1      21.484   3.054  24.038  0.00  0.00    -0.301 NA
ATOM      8  H11 UNL     1      20.859   2.254  24.298  0.00  0.00    +0.123 HD
BRANCH   7   9
ATOM      9  C7  UNL     1      22.297   3.398  25.218  0.00  0.00    +0.178 C 
BRANCH   9  13
ATOM     10  C4  UNL     1      22.229   1.379  28.134  0.00  0.00    +0.128 A 
ATOM     11  C5  UNL     1      21.095   0.926  27.493  0.00  0.00    +0.156 A 
ATOM     12  N1  UNL     1      20.947   1.604  26.339  0.00  0.00    -0.220 NA
ATOM     13  C6  UNL     1      22.002   2.446  26.335  0.00  0.00    +0.210 A 
ATOM     14  O3  UNL     1      22.768   2.315  27.395  0.00  0.00    -0.443 OA
BRANCH  10  16
ATOM     15  C1  UNL     1      22.435   1.868  30.572  0.00  0.00    +0.015 C 
ATOM     16  C2  UNL     1      22.794   0.899  29.442  0.00  0.00    +0.051 C 
ATOM     17  C3  UNL     1      24.311   0.707  29.342  0.00  0.00    +0.015 C 
ENDBRANCH  10  16
ENDBRANCH   9  13
ENDBRANCH   7   9
ENDBRANCH   1   7
BRANCH   1  18
ATOM     18  C9  UNL     1      19.177   3.898  23.989  0.00  0.00    +0.126 C 
BRANCH  18  19
ATOM     19  N3  UNL     1      18.932   2.488  24.307  0.00  0.00    -0.308 N 
ATOM     20  C10 UNL     1      17.945   1.698  23.626  0.00  0.00    +0.267 C 
ATOM     21  O1  UNL     1      17.200   2.225  22.756  0.00  0.00    -0.268 OA
ATOM     22  H14 UNL     1      19.504   2.046  25.061  0.00  0.00    +0.149 HD
BRANCH  20  23
ATOM     23  C11 UNL     1      17.804   0.266  23.925  0.00  0.00    +0.188 A 
ATOM     24  C12 UNL     1      17.205  -0.689  23.139  0.00  0.00    +0.192 A 
ATOM     25  N4  UNL     1      17.310  -1.860  23.792  0.00  0.00    -0.057 NA
ATOM     26  O2  UNL     1      17.941  -1.594  24.901  0.00  0.00    -0.242 OA
ATOM     27  N5  UNL     1      18.262  -0.339  25.034  0.00  0.00    -0.044 NA
ENDBRANCH  20  23
ENDBRANCH  18  19
ENDBRANCH   1  18
TORSDOF 7
ENDMDL
MODEL 2
REMARK VINA RESULT:    -5.605     13.909     15.390
REMARK INTER + INTRA:          -9.208
REMARK INTER:                  -8.270
REMARK INTRA:                  -0.938
REMARK UNBOUND:                -1.309
REMARK  Name = /home/qwerty/github/datacon2025hack/step_04_hit_selection/docking/ligands/lig_789.pdb
REMARK  9 active torsions:
REMARK  status: ('A' for Active; 'I' for Inactive)
REMARK    1  A    between atoms: C1_1  and  C2_2
REMARK    2  A    between atoms: C2_2  and  C3_3
REMARK    3  A    between atoms: C2_2  and  C4_4
REMARK    4  A    between atoms: C6_7  and  C7_8
REMARK    5  A    between atoms: C7_8  and  N2_9
REMARK    6  A    between atoms: N2_9  and  C8_10
REMARK    7  A    between atoms: C8_10  and  C9_11
REMARK    8  A    between atoms: C9_11  and  N3_12
REMARK    9  A    between atoms: C10_13  and  C11_15
REMARK                            x       y       z     vdW  Elec       q    Type
REMARK                         _______ _______ _______ _____ _____    ______ ____
ROOT
ATOM      1  C8  UNL     1       8.221  10.257  28.080  0.00  0.00    +0.035 C 
ATOM      2  C13 UNL     1       7.216  10.435  29.266  0.00  0.00    +0.024 C 
ATOM      3  C14 UNL     1       6.940   9.124  30.028  0.00  0.00    +0.002 C 
ATOM      4  C15 UNL     1       8.201   8.262  30.243  0.00  0.00    +0.000 C 
ATOM      5  C16 UNL     1       9.496   9.048  30.017  0.00  0.00    +0.002 C 
ATOM      6  C17 UNL     1       9.565   9.612  28.586  0.00  0.00    +0.024 C 
ENDROOT
BRANCH   1   7
ATOM      7  N2  UNL     1       8.487  11.559  27.406  0.00  0.00    -0.301 NA
ATOM      8  H11 UNL     1       9.497  11.582  27.123  0.00  0.00    +0.123 HD
BRANCH   7   9
ATOM      9  C7  UNL     1       8.212  12.764  28.206  0.00  0.00    +0.178 C 
BRANCH   9  13
ATOM     10  C4  UNL     1      11.369  14.324  28.632  0.00  0.00    +0.128 A 
ATOM     11  C5  UNL     1      11.106  13.938  29.931  0.00  0.00    +0.156 A 
ATOM     12  N1  UNL     1       9.910  13.321  29.967  0.00  0.00    -0.220 NA
ATOM     13  C6  UNL     1       9.497  13.366  28.683  0.00  0.00    +0.210 A 
ATOM     14  O3  UNL     1      10.359  13.956  27.886  0.00  0.00    -0.443 OA
BRANCH  10  16
ATOM     15  C1  UNL     1      12.738  14.823  26.608  0.00  0.00    +0.015 C 
ATOM     16  C2  UNL     1      12.594  15.028  28.118  0.00  0.00    +0.051 C 
ATOM     17  C3  UNL     1      13.847  14.551  28.860  0.00  0.00    +0.015 C 
ENDBRANCH  10  16
ENDBRANCH   9  13
ENDBRANCH   7   9
ENDBRANCH   1   7
BRANCH   1  18
ATOM     18  C9  UNL     1       7.546   9.321  27.027  0.00  0.00    +0.126 C 
BRANCH  18  19
ATOM     19  N3  UNL     1       7.505   9.922  25.691  0.00  0.00    -0.308 N 
ATOM     20  C10 UNL     1       8.258   9.405  24.582  0.00  0.00    +0.267 C 
ATOM     21  O1  UNL     1       9.045   8.433  24.747  0.00  0.00    -0.268 OA
ATOM     22  H14 UNL     1       6.899  10.760  25.545  0.00  0.00    +0.149 HD
BRANCH  20  23
ATOM     23  C11 UNL     1       8.111   9.994  23.244  0.00  0.00    +0.188 A 
ATOM     24  C12 UNL     1       8.721   9.579  22.084  0.00  0.00    +0.192 A 
ATOM     25  N4  UNL     1       8.295  10.392  21.102  0.00  0.00    -0.057 NA
ATOM     26  O2  UNL     1       7.477  11.235  21.666  0.00  0.00    -0.242 OA
ATOM     27  N5  UNL     1       7.328  11.045  22.946  0.00  0.00    -0.044 NA
ENDBRANCH  20  23
ENDBRANCH  18  19
ENDBRANCH   1  18
TORSDOF 7
ENDMDL
MODEL 3
REMARK VINA RESULT:    -5.564     14.859     16.713
REMARK INTER + INTRA:          -9.150
REMARK INTER:                  -8.215
REMARK INTRA:                  -0.935
REMARK UNBOUND:                -1.309
REMARK  Name = /home/qwerty/github/datacon2025hack/step_04_hit_selection/docking/ligands/lig_789.pdb
REMARK  9 active torsions:
REMARK  status: ('A' for Active; 'I' for Inactive)
REMARK    1  A    between atoms: C1_1  and  C2_2
REMARK    2  A    between atoms: C2_2  and  C3_3
REMARK    3  A    between atoms: C2_2  and  C4_4
REMARK    4  A    between atoms: C6_7  and  C7_8
REMARK    5  A    between atoms: C7_8  and  N2_9
REMARK    6  A    between atoms: N2_9  and  C8_10
REMARK    7  A    between atoms: C8_10  and  C9_11
REMARK    8  A    between atoms: C9_11  and  N3_12
REMARK    9  A    between atoms: C10_13  and  C11_15
REMARK                            x       y       z     vdW  Elec       q    Type
REMARK                         _______ _______ _______ _____ _____    ______ ____
ROOT
ATOM      1  C8  UNL     1      11.140  13.645  29.380  0.00  0.00    +0.035 C 
ATOM      2  C13 UNL     1      11.113  14.555  28.108  0.00  0.00    +0.024 C 
ATOM      3  C14 UNL     1      12.508  14.777  27.492  0.00  0.00    +0.002 C 
ATOM      4  C15 UNL     1      13.384  13.507  27.481  0.00  0.00    +0.000 C 
ATOM      5  C16 UNL     1      12.570  12.230  27.709  0.00  0.00    +0.002 C 
ATOM      6  C17 UNL     1      11.836  12.269  29.062  0.00  0.00    +0.024 C 
ENDROOT
BRANCH   1   7
ATOM      7  N2  UNL     1       9.765  13.426  29.909  0.00  0.00    -0.301 NA
ATOM      8  H11 UNL     1       9.741  12.491  30.384  0.00  0.00    +0.123 HD
BRANCH   7   9
ATOM      9  C7  UNL     1       8.681  13.459  28.913  0.00  0.00    +0.178 C 
BRANCH   9  13
ATOM     10  C4  UNL     1       7.563  10.100  28.685  0.00  0.00    +0.128 A 
ATOM     11  C5  UNL     1       8.093  10.271  27.422  0.00  0.00    +0.156 A 
ATOM     12  N1  UNL     1       8.569  11.526  27.317  0.00  0.00    -0.220 NA
ATOM     13  C6  UNL     1       8.301  12.064  28.526  0.00  0.00    +0.210 A 
ATOM     14  O3  UNL     1       7.707  11.223  29.342  0.00  0.00    -0.443 OA
BRANCH  10  16
ATOM     15  C1  UNL     1       7.348   8.669  30.716  0.00  0.00    +0.015 C 
ATOM     16  C2  UNL     1       6.937   8.857  29.253  0.00  0.00    +0.051 C 
ATOM     17  C3  UNL     1       7.309   7.629  28.415  0.00  0.00    +0.015 C 
ENDBRANCH  10  16
ENDBRANCH   9  13
ENDBRANCH   7   9
ENDBRANCH   1   7
BRANCH   1  18
ATOM     18  C9  UNL     1      11.945  14.404  30.484  0.00  0.00    +0.126 C 
BRANCH  18  19
ATOM     19  N3  UNL     1      11.181  14.555  31.727  0.00  0.00    -0.308 N 
ATOM     20  C10 UNL     1      11.532  13.877  32.943  0.00  0.00    +0.267 C 
ATOM     21  O1  UNL     1      12.494  13.062  32.960  0.00  0.00    -0.268 OA
ATOM     22  H14 UNL     1      10.349  15.187  31.720  0.00  0.00    +0.149 HD
BRANCH  20  23
ATOM     23  C11 UNL     1      10.784  14.136  34.181  0.00  0.00    +0.188 A 
ATOM     24  C12 UNL     1      10.985  13.550  35.408  0.00  0.00    +0.192 A 
ATOM     25  N4  UNL     1      10.087  14.086  36.252  0.00  0.00    -0.057 NA
ATOM     26  O2  UNL     1       9.401  14.942  35.548  0.00  0.00    -0.242 OA
ATOM     27  N5  UNL     1       9.774  15.015  34.303  0.00  0.00    -0.044 NA
ENDBRANCH  20  23
ENDBRANCH  18  19
ENDBRANCH   1  18
TORSDOF 7
ENDMDL
MODEL 4
REMARK VINA RESULT:    -5.430      2.371      3.579
REMARK INTER + INTRA:          -8.961
REMARK INTER:                  -8.108
REMARK INTRA:                  -0.853
REMARK UNBOUND:                -1.309
REMARK  Name = /home/qwerty/github/datacon2025hack/step_04_hit_selection/docking/ligands/lig_789.pdb
REMARK  9 active torsions:
REMARK  status: ('A' for Active; 'I' for Inactive)
REMARK    1  A    between atoms: C1_1  and  C2_2
REMARK    2  A    between atoms: C2_2  and  C3_3
REMARK    3  A    between atoms: C2_2  and  C4_4
REMARK    4  A    between atoms: C6_7  and  C7_8
REMARK    5  A    between atoms: C7_8  and  N2_9
REMARK    6  A    between atoms: N2_9  and  C8_10
REMARK    7  A    between atoms: C8_10  and  C9_11
REMARK    8  A    between atoms: C9_11  and  N3_12
REMARK    9  A    between atoms: C10_13  and  C11_15
REMARK                            x       y       z     vdW  Elec       q    Type
REMARK                         _______ _______ _______ _____ _____    ______ ____
ROOT
ATOM      1  C8  UNL     1      20.995   2.285  26.303  0.00  0.00    +0.035 C 
ATOM      2  C13 UNL     1      22.509   2.673  26.357  0.00  0.00    +0.024 C 
ATOM      3  C14 UNL     1      22.826   3.983  25.608  0.00  0.00    +0.002 C 
ATOM      4  C15 UNL     1      21.767   5.083  25.821  0.00  0.00    +0.000 C 
ATOM      5  C16 UNL     1      20.853   4.797  27.017  0.00  0.00    +0.002 C 
ATOM      6  C17 UNL     1      20.101   3.465  26.839  0.00  0.00    +0.024 C 
ENDROOT
BRANCH   1   7
ATOM      7  N2  UNL     1      20.735   1.039  27.077  0.00  0.00    -0.301 NA
ATOM      8  H11 UNL     1      19.906   1.204  27.697  0.00  0.00    +0.123 HD
BRANCH   7   9
ATOM      9  C7  UNL     1      21.845   0.563  27.920  0.00  0.00    +0.178 C 
BRANCH   9  13
ATOM     10  C4  UNL     1      20.932   0.982  31.322  0.00  0.00    +0.128 A 
ATOM     11  C5  UNL     1      21.643   2.145  31.111  0.00  0.00    +0.156 A 
ATOM     12  N1  UNL     1      22.090   2.158  29.841  0.00  0.00    -0.220 NA
ATOM     13  C6  UNL     1      21.631   0.993  29.337  0.00  0.00    +0.210 A 
ATOM     14  O3  UNL     1      20.941   0.293  30.209  0.00  0.00    -0.443 OA
BRANCH  10  16
ATOM     15  C1  UNL     1      18.910  -0.140  32.257  0.00  0.00    +0.015 C 
ATOM     16  C2  UNL     1      20.237   0.550  32.583  0.00  0.00    +0.051 C 
ATOM     17  C3  UNL     1      20.023   1.742  33.522  0.00  0.00    +0.015 C 
ENDBRANCH  10  16
ENDBRANCH   9  13
ENDBRANCH   7   9
ENDBRANCH   1   7
BRANCH   1  18
ATOM     18  C9  UNL     1      20.638   1.985  24.811  0.00  0.00    +0.126 C 
BRANCH  18  19
ATOM     19  N3  UNL     1      19.852   0.757  24.661  0.00  0.00    -0.308 N 
ATOM     20  C10 UNL     1      18.504   0.751  24.166  0.00  0.00    +0.267 C 
ATOM     21  O1  UNL     1      17.922   1.838  23.899  0.00  0.00    -0.268 OA
ATOM     22  H14 UNL     1      20.299  -0.150  24.926  0.00  0.00    +0.149 HD
BRANCH  20  23
ATOM     23  C11 UNL     1      17.795  -0.518  23.953  0.00  0.00    +0.188 A 
ATOM     24  C12 UNL     1      17.717  -1.580  24.822  0.00  0.00    +0.192 A 
ATOM     25  N4  UNL     1      16.965  -2.522  24.227  0.00  0.00    -0.057 NA
ATOM     26  O2  UNL     1      16.623  -2.028  23.070  0.00  0.00    -0.242 OA
ATOM     27  N5  UNL     1      17.091  -0.832  22.851  0.00  0.00    -0.044 NA
ENDBRANCH  20  23
ENDBRANCH  18  19
ENDBRANCH   1  18
TORSDOF 7
ENDMDL
MODEL 5
REMARK VINA RESULT:    -5.417      6.041      8.471
REMARK INTER + INTRA:          -8.942
REMARK INTER:                  -7.872
REMARK INTRA:                  -1.070
REMARK UNBOUND:                -1.309
REMARK  Name = /home/qwerty/github/datacon2025hack/step_04_hit_selection/docking/ligands/lig_789.pdb
REMARK  9 active torsions:
REMARK  status: ('A' for Active; 'I' for Inactive)
REMARK    1  A    between atoms: C1_1  and  C2_2
REMARK    2  A    between atoms: C2_2  and  C3_3
REMARK    3  A    between atoms: C2_2  and  C4_4
REMARK    4  A    between atoms: C6_7  and  C7_8
REMARK    5  A    between atoms: C7_8  and  N2_9
REMARK    6  A    between atoms: N2_9  and  C8_10
REMARK    7  A    between atoms: C8_10  and  C9_11
REMARK    8  A    between atoms: C9_11  and  N3_12
REMARK    9  A    between atoms: C10_13  and  C11_15
REMARK                            x       y       z     vdW  Elec       q    Type
REMARK                         _______ _______ _______ _____ _____    ______ ____
ROOT
ATOM      1  C8  UNL     1      19.947   2.587  31.393  0.00  0.00    +0.035 C 
ATOM      2  C13 UNL     1      18.569   3.269  31.679  0.00  0.00    +0.024 C 
ATOM      3  C14 UNL     1      17.445   2.260  31.987  0.00  0.00    +0.002 C 
ATOM      4  C15 UNL     1      17.899   1.091  32.886  0.00  0.00    +0.000 C 
ATOM      5  C16 UNL     1      19.226   1.376  33.596  0.00  0.00    +0.002 C 
ATOM      6  C17 UNL     1      20.355   1.642  32.584  0.00  0.00    +0.024 C 
ENDROOT
BRANCH   1   7
ATOM      7  N2  UNL     1      21.006   3.604  31.146  0.00  0.00    -0.301 NA
ATOM      8  H11 UNL     1      21.392   3.450  30.184  0.00  0.00    +0.123 HD
BRANCH   7   9
ATOM      9  C7  UNL     1      22.133   3.601  32.094  0.00  0.00    +0.178 C 
BRANCH   9  13
ATOM     10  C4  UNL     1      22.881   6.586  33.860  0.00  0.00    +0.128 A 
ATOM     11  C5  UNL     1      22.571   7.103  32.619  0.00  0.00    +0.156 A 
ATOM     12  N1  UNL     1      22.263   6.088  31.790  0.00  0.00    -0.220 NA
ATOM     13  C6  UNL     1      22.405   4.995  32.568  0.00  0.00    +0.210 A 
ATOM     14  O3  UNL     1      22.768   5.283  33.797  0.00  0.00    -0.443 OA
BRANCH  10  16
ATOM     15  C1  UNL     1      23.368   6.404  36.299  0.00  0.00    +0.015 C 
ATOM     16  C2  UNL     1      23.267   7.347  35.098  0.00  0.00    +0.051 C 
ATOM     17  C3  UNL     1      22.274   8.481  35.371  0.00  0.00    +0.015 C 
ENDBRANCH  10  16
ENDBRANCH   9  13
ENDBRANCH   7   9
ENDBRANCH   1   7
BRANCH   1  18
ATOM     18  C9  UNL     1      19.794   1.751  30.081  0.00  0.00    +0.126 C 
BRANCH  18  19
ATOM     19  N3  UNL     1      20.890   0.795  29.898  0.00  0.00    -0.308 N 
ATOM     20  C10 UNL     1      22.077   1.104  29.150  0.00  0.00    +0.267 C 
ATOM     21  O1  UNL     1      22.184   2.215  28.563  0.00  0.00    -0.268 OA
ATOM     22  H14 UNL     1      20.798  -0.150  30.334  0.00  0.00    +0.149 HD
BRANCH  20  23
ATOM     23  C11 UNL     1      23.181   0.139  29.075  0.00  0.00    +0.188 A 
ATOM     24  C12 UNL     1      23.085  -1.216  28.858  0.00  0.00    +0.192 A 
ATOM     25  N4  UNL     1      24.337  -1.704  28.856  0.00  0.00    -0.057 NA
ATOM     26  O2  UNL     1      25.119  -0.682  29.060  0.00  0.00    -0.242 OA
ATOM     27  N5  UNL     1      24.484   0.446  29.197  0.00  0.00    -0.044 NA
ENDBRANCH  20  23
ENDBRANCH  18  19
ENDBRANCH   1  18
TORSDOF 7
ENDMDL
MODEL 6
REMARK VINA RESULT:    -5.401      8.601     11.840
REMARK INTER + INTRA:          -8.920
REMARK INTER:                  -7.706
REMARK INTRA:                  -1.214
REMARK UNBOUND:                -1.309
REMARK  Name = /home/qwerty/github/datacon2025hack/step_04_hit_selection/docking/ligands/lig_789.pdb
REMARK  9 active torsions:
REMARK  status: ('A' for Active; 'I' for Inactive)
REMARK    1  A    between atoms: C1_1  and  C2_2
REMARK    2  A    between atoms: C2_2  and  C3_3
REMARK    3  A    between atoms: C2_2  and  C4_4
REMARK    4  A    between atoms: C6_7  and  C7_8
REMARK    5  A    between atoms: C7_8  and  N2_9
REMARK    6  A    between atoms: N2_9  and  C8_10
REMARK    7  A    between atoms: C8_10  and  C9_11
REMARK    8  A    between atoms: C9_11  and  N3_12
REMARK    9  A    between atoms: C10_13  and  C11_15
REMARK                            x       y       z     vdW  Elec       q    Type
REMARK                         _______ _______ _______ _____ _____    ______ ____
ROOT
ATOM      1  C8  UNL     1      22.474  13.041  19.790  0.00  0.00    +0.035 C 
ATOM      2  C13 UNL     1      21.682  14.267  19.227  0.00  0.00    +0.024 C 
ATOM      3  C14 UNL     1      20.256  13.906  18.765  0.00  0.00    +0.002 C 
ATOM      4  C15 UNL     1      19.535  12.923  19.709  0.00  0.00    +0.000 C 
ATOM      5  C16 UNL     1      20.210  12.820  21.080  0.00  0.00    +0.002 C 
ATOM      6  C17 UNL     1      21.669  12.346  20.950  0.00  0.00    +0.024 C 
ENDROOT
BRANCH   1   7
ATOM      7  N2  UNL     1      23.826  13.451  20.263  0.00  0.00    -0.301 NA
ATOM      8  H11 UNL     1      24.035  12.932  21.149  0.00  0.00    +0.123 HD
BRANCH   7   9
ATOM      9  C7  UNL     1      24.006  14.889  20.524  0.00  0.00    +0.178 C 
BRANCH   9  13
ATOM     10  C4  UNL     1      23.998  14.908  24.072  0.00  0.00    +0.128 A 
ATOM     11  C5  UNL     1      24.850  15.963  23.820  0.00  0.00    +0.156 A 
ATOM     12  N1  UNL     1      24.987  16.104  22.488  0.00  0.00    -0.220 NA
ATOM     13  C6  UNL     1      24.210  15.119  21.989  0.00  0.00    +0.210 A 
ATOM     14  O3  UNL     1      23.619  14.409  22.923  0.00  0.00    -0.443 OA
BRANCH  10  16
ATOM     15  C1  UNL     1      22.408  13.386  25.244  0.00  0.00    +0.015 C 
ATOM     16  C2  UNL     1      23.543  14.399  25.411  0.00  0.00    +0.051 C 
ATOM     17  C3  UNL     1      23.118  15.558  26.318  0.00  0.00    +0.015 C 
ENDBRANCH  10  16
ENDBRANCH   9  13
ENDBRANCH   7   9
ENDBRANCH   1   7
BRANCH   1  18
ATOM     18  C9  UNL     1      22.682  12.035  18.612  0.00  0.00    +0.126 C 
BRANCH  18  19
ATOM     19  N3  UNL     1      22.829  10.653  19.078  0.00  0.00    -0.308 N 
ATOM     20  C10 UNL     1      24.106  10.057  19.355  0.00  0.00    +0.267 C 
ATOM     21  O1  UNL     1      25.168  10.703  19.139  0.00  0.00    -0.268 OA
ATOM     22  H14 UNL     1      21.964  10.084  19.214  0.00  0.00    +0.149 HD
BRANCH  20  23
ATOM     23  C11 UNL     1      24.189   8.697  19.905  0.00  0.00    +0.188 A 
ATOM     24  C12 UNL     1      23.347   8.124  20.828  0.00  0.00    +0.192 A 
ATOM     25  N4  UNL     1      23.785   6.870  21.036  0.00  0.00    -0.057 NA
ATOM     26  O2  UNL     1      24.828   6.725  20.269  0.00  0.00    -0.242 OA
ATOM     27  N5  UNL     1      25.117   7.784  19.569  0.00  0.00    -0.044 NA
ENDBRANCH  20  23
ENDBRANCH  18  19
ENDBRANCH   1  18
TORSDOF 7
ENDMDL
MODEL 7
REMARK VINA RESULT:    -5.383      7.459     11.048
REMARK INTER + INTRA:          -8.895
REMARK INTER:                  -8.041
REMARK INTRA:                  -0.854
REMARK UNBOUND:                -1.309
REMARK  Name = /home/qwerty/github/datacon2025hack/step_04_hit_selection/docking/ligands/lig_789.pdb
REMARK  9 active torsions:
REMARK  status: ('A' for Active; 'I' for Inactive)
REMARK    1  A    between atoms: C1_1  and  C2_2
REMARK    2  A    between atoms: C2_2  and  C3_3
REMARK    3  A    between atoms: C2_2  and  C4_4
REMARK    4  A    between atoms: C6_7  and  C7_8
REMARK    5  A    between atoms: C7_8  and  N2_9
REMARK    6  A    between atoms: N2_9  and  C8_10
REMARK    7  A    between atoms: C8_10  and  C9_11
REMARK    8  A    between atoms: C9_11  and  N3_12
REMARK    9  A    between atoms: C10_13  and  C11_15
REMARK                            x       y       z     vdW  Elec       q    Type
REMARK                         _______ _______ _______ _____ _____    ______ ____
ROOT
ATOM      1  C8  UNL     1      21.883   5.891  33.265  0.00  0.00    +0.035 C 
ATOM      2  C13 UNL     1      22.971   6.039  32.151  0.00  0.00    +0.024 C 
ATOM      3  C14 UNL     1      23.886   7.262  32.356  0.00  0.00    +0.002 C 
ATOM      4  C15 UNL     1      24.291   7.486  33.827  0.00  0.00    +0.000 C 
ATOM      5  C16 UNL     1      24.038   6.254  34.701  0.00  0.00    +0.002 C 
ATOM      6  C17 UNL     1      22.551   5.857  34.690  0.00  0.00    +0.024 C 
ENDROOT
BRANCH   1   7
ATOM      7  N2  UNL     1      21.056   4.672  33.045  0.00  0.00    -0.301 NA
ATOM      8  H11 UNL     1      20.179   4.764  33.612  0.00  0.00    +0.123 HD
BRANCH   7   9
ATOM      9  C7  UNL     1      21.693   3.392  33.396  0.00  0.00    +0.178 C 
BRANCH   9  13
ATOM     10  C4  UNL     1      22.101   1.593  30.366  0.00  0.00    +0.128 A 
ATOM     11  C5  UNL     1      21.021   0.926  30.907  0.00  0.00    +0.156 A 
ATOM     12  N1  UNL     1      20.721   1.478  32.098  0.00  0.00    -0.220 NA
ATOM     13  C6  UNL     1      21.640   2.458  32.228  0.00  0.00    +0.210 A 
ATOM     14  O3  UNL     1      22.459   2.533  31.203  0.00  0.00    -0.443 OA
BRANCH  10  16
ATOM     15  C1  UNL     1      21.912   0.399  28.185  0.00  0.00    +0.015 C 
ATOM     16  C2  UNL     1      22.769   1.332  29.044  0.00  0.00    +0.051 C 
ATOM     17  C3  UNL     1      24.174   0.758  29.248  0.00  0.00    +0.015 C 
ENDBRANCH  10  16
ENDBRANCH   9  13
ENDBRANCH   7   9
ENDBRANCH   1   7
BRANCH   1  18
ATOM     18  C9  UNL     1      20.928   7.124  33.155  0.00  0.00    +0.126 C 
BRANCH  18  19
ATOM     19  N3  UNL     1      20.284   7.445  34.432  0.00  0.00    -0.308 N 
ATOM     20  C10 UNL     1      20.444   8.713  35.087  0.00  0.00    +0.267 C 
ATOM     21  O1  UNL     1      21.214   9.586  34.601  0.00  0.00    -0.268 OA
ATOM     22  H14 UNL     1      19.681   6.717  34.878  0.00  0.00    +0.149 HD
BRANCH  20  23
ATOM     23  C11 UNL     1      19.703   9.013  36.320  0.00  0.00    +0.188 A 
ATOM     24  C12 UNL     1      19.157  10.220  36.686  0.00  0.00    +0.192 A 
ATOM     25  N4  UNL     1      18.565  10.039  37.880  0.00  0.00    -0.057 NA
ATOM     26  O2  UNL     1      18.759   8.788  38.188  0.00  0.00    -0.242 OA
ATOM     27  N5  UNL     1      19.433   8.125  37.293  0.00  0.00    -0.044 NA
ENDBRANCH  20  23
ENDBRANCH  18  19
ENDBRANCH   1  18
TORSDOF 7
ENDMDL
MODEL 8
REMARK VINA RESULT:    -5.375      8.792     11.934
REMARK INTER + INTRA:          -8.884
REMARK INTER:                  -7.741
REMARK INTRA:                  -1.143
REMARK UNBOUND:                -1.309
REMARK  Name = /home/qwerty/github/datacon2025hack/step_04_hit_selection/docking/ligands/lig_789.pdb
REMARK  9 active torsions:
REMARK  status: ('A' for Active; 'I' for Inactive)
REMARK    1  A    between atoms: C1_1  and  C2_2
REMARK    2  A    between atoms: C2_2  and  C3_3
REMARK    3  A    between atoms: C2_2  and  C4_4
REMARK    4  A    between atoms: C6_7  and  C7_8
REMARK    5  A    between atoms: C7_8  and  N2_9
REMARK    6  A    between atoms: N2_9  and  C8_10
REMARK    7  A    between atoms: C8_10  and  C9_11
REMARK    8  A    between atoms: C9_11  and  N3_12
REMARK    9  A    between atoms: C10_13  and  C11_15
REMARK                            x       y       z     vdW  Elec       q    Type
REMARK                         _______ _______ _______ _____ _____    ______ ____
ROOT
ATOM      1  C8  UNL     1       9.645   4.282  22.050  0.00  0.00    +0.035 C 
ATOM      2  C13 UNL     1       9.759   3.124  23.095  0.00  0.00    +0.024 C 
ATOM      3  C14 UNL     1       9.133   3.475  24.459  0.00  0.00    +0.002 C 
ATOM      4  C15 UNL     1       7.802   4.245  24.343  0.00  0.00    +0.000 C 
ATOM      5  C16 UNL     1       7.190   4.156  22.942  0.00  0.00    +0.002 C 
ATOM      6  C17 UNL     1       8.144   4.727  21.878  0.00  0.00    +0.024 C 
ENDROOT
BRANCH   1   7
ATOM      7  N2  UNL     1      10.224   3.878  20.738  0.00  0.00    -0.301 NA
ATOM      8  H11 UNL     1       9.447   3.517  20.134  0.00  0.00    +0.123 HD
BRANCH   7   9
ATOM      9  C7  UNL     1      11.275   2.847  20.791  0.00  0.00    +0.178 C 
BRANCH   9  13
ATOM     10  C4  UNL     1      14.615   3.563  19.835  0.00  0.00    +0.128 A 
ATOM     11  C5  UNL     1      13.992   4.731  19.449  0.00  0.00    +0.156 A 
ATOM     12  N1  UNL     1      12.679   4.637  19.732  0.00  0.00    -0.220 NA
ATOM     13  C6  UNL     1      12.564   3.407  20.275  0.00  0.00    +0.210 A 
ATOM     14  O3  UNL     1      13.709   2.766  20.342  0.00  0.00    -0.443 OA
BRANCH  10  16
ATOM     15  C1  UNL     1      16.341   1.805  20.228  0.00  0.00    +0.015 C 
ATOM     16  C2  UNL     1      16.077   3.228  19.727  0.00  0.00    +0.051 C 
ATOM     17  C3  UNL     1      16.926   4.248  20.493  0.00  0.00    +0.015 C 
ENDBRANCH  10  16
ENDBRANCH   9  13
ENDBRANCH   7   9
ENDBRANCH   1   7
BRANCH   1  18
ATOM     18  C9  UNL     1      10.496   5.481  22.581  0.00  0.00    +0.126 C 
BRANCH  18  19
ATOM     19  N3  UNL     1      10.639   6.548  21.586  0.00  0.00    -0.308 N 
ATOM     20  C10 UNL     1      10.019   7.835  21.730  0.00  0.00    +0.267 C 
ATOM     21  O1  UNL     1       9.262   8.068  22.712  0.00  0.00    -0.268 OA
ATOM     22  H14 UNL     1      11.221   6.358  20.739  0.00  0.00    +0.149 HD
BRANCH  20  23
ATOM     23  C11 UNL     1      10.269   8.896  20.746  0.00  0.00    +0.188 A 
ATOM     24  C12 UNL     1       9.589  10.084  20.616  0.00  0.00    +0.192 A 
ATOM     25  N4  UNL     1      10.156  10.753  19.598  0.00  0.00    -0.057 NA
ATOM     26  O2  UNL     1      11.118   9.991  19.161  0.00  0.00    -0.242 OA
ATOM     27  N5  UNL     1      11.234   8.868  19.810  0.00  0.00    -0.044 NA
ENDBRANCH  20  23
ENDBRANCH  18  19
ENDBRANCH   1  18
TORSDOF 7
ENDMDL
MODEL 9
REMARK VINA RESULT:    -5.227      4.496      9.260
REMARK INTER + INTRA:          -8.674
REMARK INTER:                  -7.708
REMARK INTRA:                  -0.966
REMARK UNBOUND:                -1.309
REMARK  Name = /home/qwerty/github/datacon2025hack/step_04_hit_selection/docking/ligands/lig_789.pdb
REMARK  9 active torsions:
REMARK  status: ('A' for Active; 'I' for Inactive)
REMARK    1  A    between atoms: C1_1  and  C2_2
REMARK    2  A    between atoms: C2_2  and  C3_3
REMARK    3  A    between atoms: C2_2  and  C4_4
REMARK    4  A    between atoms: C6_7  and  C7_8
REMARK    5  A    between atoms: C7_8  and  N2_9
REMARK    6  A    between atoms: N2_9  and  C8_10
REMARK    7  A    between atoms: C8_10  and  C9_11
REMARK    8  A    between atoms: C9_11  and  N3_12
REMARK    9  A    between atoms: C10_13  and  C11_15
REMARK                            x       y       z     vdW  Elec       q    Type
REMARK                         _______ _______ _______ _____ _____    ______ ____
ROOT
ATOM      1  C8  UNL     1      21.047   1.981  31.578  0.00  0.00    +0.035 C 
ATOM      2  C13 UNL     1      20.654   0.478  31.763  0.00  0.00    +0.024 C 
ATOM      3  C14 UNL     1      19.397   0.284  32.634  0.00  0.00    +0.002 C 
ATOM      4  C15 UNL     1      18.286   1.315  32.346  0.00  0.00    +0.000 C 
ATOM      5  C16 UNL     1      18.494   2.049  31.019  0.00  0.00    +0.002 C 
ATOM      6  C17 UNL     1      19.836   2.803  31.001  0.00  0.00    +0.024 C 
ENDROOT
BRANCH   1   7
ATOM      7  N2  UNL     1      22.239   2.116  30.695  0.00  0.00    -0.301 NA
ATOM      8  H11 UNL     1      22.192   3.049  30.219  0.00  0.00    +0.123 HD
BRANCH   7   9
ATOM      9  C7  UNL     1      22.388   1.083  29.655  0.00  0.00    +0.178 C 
BRANCH   9  13
ATOM     10  C4  UNL     1      21.601   3.021  26.790  0.00  0.00    +0.128 A 
ATOM     11  C5  UNL     1      21.161   1.780  26.378  0.00  0.00    +0.156 A 
ATOM     12  N1  UNL     1      21.394   0.888  27.360  0.00  0.00    -0.220 NA
ATOM     13  C6  UNL     1      21.972   1.632  28.327  0.00  0.00    +0.210 A 
ATOM     14  O3  UNL     1      22.095   2.898  27.996  0.00  0.00    -0.443 OA
BRANCH  10  16
ATOM     15  C1  UNL     1      20.536   4.203  24.869  0.00  0.00    +0.015 C 
ATOM     16  C2  UNL     1      21.529   4.316  26.029  0.00  0.00    +0.051 C 
ATOM     17  C3  UNL     1      22.916   4.730  25.528  0.00  0.00    +0.015 C 
ENDBRANCH  10  16
ENDBRANCH   9  13
ENDBRANCH   7   9
ENDBRANCH   1   7
BRANCH   1  18
ATOM     18  C9  UNL     1      21.447   2.539  32.982  0.00  0.00    +0.126 C 
BRANCH  18  19
ATOM     19  N3  UNL     1      22.564   3.486  32.909  0.00  0.00    -0.308 N 
ATOM     20  C10 UNL     1      22.389   4.906  33.024  0.00  0.00    +0.267 C 
ATOM     21  O1  UNL     1      21.231   5.396  33.131  0.00  0.00    -0.268 OA
ATOM     22  H14 UNL     1      23.526   3.103  32.769  0.00  0.00    +0.149 HD
BRANCH  20  23
ATOM     23  C11 UNL     1      23.554   5.801  33.033  0.00  0.00    +0.188 A 
ATOM     24  C12 UNL     1      23.547   7.172  32.931  0.00  0.00    +0.192 A 
ATOM     25  N4  UNL     1      24.826   7.578  32.994  0.00  0.00    -0.057 NA
ATOM     26  O2  UNL     1      25.539   6.496  33.127  0.00  0.00    -0.242 OA
ATOM     27  N5  UNL     1      24.832   5.402  33.158  0.00  0.00    -0.044 NA
ENDBRANCH  20  23
ENDBRANCH  18  19
ENDBRANCH   1  18
TORSDOF 7
ENDMDL
