REMARK  Name = /home/qwerty/github/datacon2025hack/step_04_hit_selection/docking/ligands/lig_378.pdb
REMARK  10 active torsions:
REMARK  status: ('A' for Active; 'I' for Inactive)
REMARK    1  A    between atoms: C1_1  and  C2_2
REMARK    2  A    between atoms: C2_2  and  C3_3
REMARK    3  A    between atoms: C3_3  and  C4_4
REMARK    4  A    between atoms: C3_3  and  N2_15
REMARK    5  A    between atoms: C4_4  and  N1_5
REMARK    6  A    between atoms: C5_6  and  C6_8
REMARK    7  A    between atoms: C8_10  and  C9_11
REMARK    8  A    between atoms: C10_12  and  C11_13
REMARK    9  A    between atoms: C12_16  and  C13_18
REMARK   10  A    between atoms: C13_18  and  C14_19
REMARK                            x       y       z     vdW  Elec       q    Type
REMARK                         _______ _______ _______ _____ _____    ______ ____
ROOT
ATOM      1  C3  UNL     1      -1.196  -2.237   1.427  0.00  0.00    +0.090 C 
ENDROOT
BRANCH   1   2
ATOM      2  N2  UNL     1      -1.731  -0.876   1.542  0.00  0.00    -0.310 N 
ATOM      3  C12 UNL     1      -2.393  -0.201   0.463  0.00  0.00    +0.225 C 
ATOM      4  O2  UNL     1      -2.811  -0.844  -0.537  0.00  0.00    -0.275 OA
ATOM      5  H17 UNL     1      -1.505  -0.328   2.403  0.00  0.00    +0.149 HD
BRANCH   3   6
ATOM      6  C13 UNL     1      -2.620   1.280   0.539  0.00  0.00    +0.107 C 
ATOM      7  C15 UNL     1      -1.346   2.112   0.632  0.00  0.00    +0.023 C 
ATOM      8  C16 UNL     1      -2.154   2.097  -0.661  0.00  0.00    +0.023 C 
BRANCH   6   9
ATOM      9  C14 UNL     1      -3.838   1.784   1.329  0.00  0.00    +0.356 C 
ATOM     10  F1  UNL     1      -3.930   3.167   1.327  0.00  0.00    -0.208 F 
ATOM     11  F2  UNL     1      -4.994   1.259   0.781  0.00  0.00    -0.208 F 
ENDBRANCH   6   9
ENDBRANCH   3   6
ENDBRANCH   1   2
BRANCH   1  13
ATOM     12  C1  UNL     1      -1.441  -4.571   2.451  0.00  0.00    +0.006 C 
ATOM     13  C2  UNL     1      -1.705  -3.074   2.617  0.00  0.00    +0.020 C 
ENDBRANCH   1  13
BRANCH   1  14
ATOM     14  C4  UNL     1       0.344  -2.172   1.386  0.00  0.00    +0.126 C 
BRANCH  14  15
ATOM     15  N1  UNL     1       0.810  -1.365   0.256  0.00  0.00    -0.309 N 
ATOM     16  C5  UNL     1       2.191  -1.005   0.112  0.00  0.00    +0.251 C 
ATOM     17  O1  UNL     1       3.054  -1.518   0.876  0.00  0.00    -0.270 OA
ATOM     18  H9  UNL     1       0.125  -1.058  -0.470  0.00  0.00    +0.149 HD
BRANCH  16  19
ATOM     19  C6  UNL     1       2.626  -0.041  -0.917  0.00  0.00    +0.074 A 
ATOM     20  C7  UNL     1       1.809   0.727  -1.744  0.00  0.00    +0.024 A 
ATOM     21  C8  UNL     1       2.526   1.568  -2.609  0.00  0.00    -0.040 A 
ATOM     22  C9  UNL     1       1.860   2.513  -3.564  0.00  0.00    +0.044 C 
ATOM     23  C10 UNL     1       3.908   1.476  -2.446  0.00  0.00    -0.010 A 
ATOM     24  C11 UNL     1       4.944   2.235  -3.209  0.00  0.00    +0.052 C 
ATOM     25  S1  UNL     1       4.232   0.341  -1.250  0.00  0.00    -0.089 S 
ENDBRANCH  16  19
ENDBRANCH  14  15
ENDBRANCH   1  14
TORSDOF 7
