REMARK  Name = /home/qwerty/github/datacon2025hack/step_04_hit_selection/docking/ligands/lig_194.pdb
REMARK  4 active torsions:
REMARK  status: ('A' for Active; 'I' for Inactive)
REMARK    1  A    between atoms: C1_2  and  C20_27
REMARK    2  A    between atoms: N1_3  and  C2_4
REMARK    3  A    between atoms: C10_12  and  C11_13
REMARK    4  A    between atoms: N2_15  and  C12_16
REMARK                            x       y       z     vdW  Elec       q    Type
REMARK                         _______ _______ _______ _____ _____    ______ ____
ROOT
ATOM      1  C2  UNL     1      -3.341   0.415   0.620  0.00  0.00    +0.034 A 
ATOM      2  C3  UNL     1      -3.133   1.801   0.748  0.00  0.00    +0.027 A 
ATOM      3  C4  UNL     1      -1.935   2.290   1.275  0.00  0.00    +0.048 A 
ATOM      4  C5  UNL     1      -0.938   1.406   1.696  0.00  0.00    +0.125 A 
ATOM      5  C6  UNL     1      -1.151   0.017   1.615  0.00  0.00    -0.004 A 
ATOM      6  C7  UNL     1      -2.348  -0.469   1.069  0.00  0.00    +0.030 A 
ATOM      7  C8  UNL     1      -0.072  -0.942   2.050  0.00  0.00    +0.043 C 
ATOM      8  C9  UNL     1       0.899  -0.289   3.045  0.00  0.00    +0.059 C 
ATOM      9  C10 UNL     1       1.379   1.082   2.536  0.00  0.00    +0.259 C 
ATOM     10  O5  UNL     1       0.258   1.914   2.219  0.00  0.00    -0.479 OA
ENDROOT
BRANCH   1  13
ATOM     11  O1  UNL     1      -4.809   1.416  -1.661  0.00  0.00    -0.270 OA
ATOM     12  C1  UNL     1      -5.349   0.547  -0.923  0.00  0.00    +0.248 C 
ATOM     13  N1  UNL     1      -4.569  -0.112   0.090  0.00  0.00    -0.281 N 
ATOM     14  H1  UNL     1      -4.842  -1.082   0.365  0.00  0.00    +0.155 HD
BRANCH  12  15
ATOM     15  C20 UNL     1      -6.770   0.184  -1.146  0.00  0.00    +0.037 A 
ATOM     16  C21 UNL     1      -7.401   0.509  -2.362  0.00  0.00    +0.014 A 
ATOM     17  C22 UNL     1      -8.739   0.170  -2.579  0.00  0.00    +0.021 A 
ATOM     18  C23 UNL     1      -9.467  -0.488  -1.585  0.00  0.00    +0.041 A 
ATOM     19 CL1  UNL     1     -11.146  -0.912  -1.860  0.00  0.00    -0.084 Cl
ATOM     20  C24 UNL     1      -8.856  -0.805  -0.369  0.00  0.00    +0.021 A 
ATOM     21  C25 UNL     1      -7.516  -0.470  -0.147  0.00  0.00    +0.014 A 
ENDBRANCH  12  15
ENDBRANCH   1  13
BRANCH   9  22
ATOM     22  C11 UNL     1       2.283   0.931   1.341  0.00  0.00    +0.258 C 
ATOM     23  O2  UNL     1       1.845   1.186   0.185  0.00  0.00    -0.271 OA
ATOM     24  N2  UNL     1       3.639   0.495   1.525  0.00  0.00    -0.282 N 
ATOM     25  H10 UNL     1       4.051   0.573   2.483  0.00  0.00    +0.155 HD
BRANCH  24  26
ATOM     26  C12 UNL     1       4.487   0.036   0.459  0.00  0.00    +0.037 A 
ATOM     27  C13 UNL     1       3.969  -0.693  -0.629  0.00  0.00    +0.027 A 
ATOM     28  C14 UNL     1       4.817  -1.146  -1.646  0.00  0.00    +0.051 A 
ATOM     29  C15 UNL     1       6.187  -0.885  -1.577  0.00  0.00    +0.162 A 
ATOM     30  C16 UNL     1       6.717  -0.204  -0.474  0.00  0.00    +0.164 A 
ATOM     31  C17 UNL     1       5.871   0.261   0.537  0.00  0.00    +0.072 A 
ATOM     32  O3  UNL     1       8.099   0.000  -0.400  0.00  0.00    -0.485 OA
ATOM     33  C18 UNL     1       8.995  -0.698  -1.270  0.00  0.00    +0.270 C 
ATOM     34  C19 UNL     1       8.390  -0.813  -2.675  0.00  0.00    +0.270 C 
ATOM     35  O4  UNL     1       7.048  -1.301  -2.598  0.00  0.00    -0.485 OA
ENDBRANCH  24  26
ENDBRANCH   9  22
TORSDOF 4
