MODEL 1
REMARK VINA RESULT:    -7.612      0.000      0.000
REMARK INTER + INTRA:          -9.596
REMARK INTER:                  -8.947
REMARK INTRA:                  -0.649
REMARK UNBOUND:                -0.649
REMARK  Name = /home/qwerty/github/datacon2025hack/step_04_hit_selection/docking/ligands/lig_366.pdb
REMARK  5 active torsions:
REMARK  status: ('A' for Active; 'I' for Inactive)
REMARK    1  A    between atoms: C1_1  and  C2_2
REMARK    2  A    between atoms: C2_2  and  C3_3
REMARK    3  A    between atoms: C2_2  and  C4_4
REMARK    4  A    between atoms: C7_8  and  C8_9
REMARK    5  A    between atoms: C13_17  and  C14_19
REMARK                            x       y       z     vdW  Elec       q    Type
REMARK                         _______ _______ _______ _____ _____    ______ ____
ROOT
ATOM      1  C8  UNL     1      20.464   1.597  30.821  0.00  0.00    +0.248 C 
ATOM      2  O1  UNL     1      19.955   0.499  31.171  0.00  0.00    -0.270 OA
ATOM      3  N2  UNL     1      20.544   2.677  31.772  0.00  0.00    -0.297 N 
ATOM      4  C9  UNL     1      19.608   2.699  32.905  0.00  0.00    +0.108 C 
ATOM      5  C10 UNL     1      19.710   4.010  33.692  0.00  0.00    +0.024 C 
ATOM      6  C11 UNL     1      21.168   4.280  34.112  0.00  0.00    +0.014 C 
ATOM      7  C12 UNL     1      21.363   5.707  34.636  0.00  0.00    +0.112 C 
ATOM      8  N3  UNL     1      22.467   6.275  33.881  0.00  0.00    -0.296 N 
ATOM      9  C13 UNL     1      23.100   7.507  34.268  0.00  0.00    +0.263 C 
ATOM     10  O2  UNL     1      23.051   7.881  35.470  0.00  0.00    -0.268 OA
ATOM     11  C18 UNL     1      23.033   5.362  32.902  0.00  0.00    +0.113 C 
ATOM     12  C19 UNL     1      22.189   4.083  32.964  0.00  0.00    +0.028 C 
ATOM     13  C20 UNL     1      21.525   3.762  31.610  0.00  0.00    +0.113 C 
ENDROOT
BRANCH   9  14
ATOM     14  C14 UNL     1      23.815   8.353  33.294  0.00  0.00    +0.105 A 
ATOM     15  C15 UNL     1      23.233   9.147  32.321  0.00  0.00    +0.070 A 
ATOM     16  C16 UNL     1      24.277   9.801  31.703  0.00  0.00    +0.141 A 
ATOM     17  F1  UNL     1      24.173  10.705  30.699  0.00  0.00    -0.204 F 
ATOM     18  C17 UNL     1      25.442   9.403  32.320  0.00  0.00    +0.121 A 
ATOM     19  N4  UNL     1      25.153   8.524  33.298  0.00  0.00    -0.355 N 
ATOM     20  H20 UNL     1      25.841   8.068  33.938  0.00  0.00    +0.166 HD
ENDBRANCH   9  14
BRANCH   1  25
ATOM     21  C4  UNL     1      21.972   1.156  28.760  0.00  0.00    +0.031 A 
ATOM     22  N1  UNL     1      22.004   1.592  27.484  0.00  0.00    -0.364 N 
ATOM     23  C5  UNL     1      21.000   2.472  27.329  0.00  0.00    +0.083 A 
ATOM     24  C6  UNL     1      20.304   2.611  28.511  0.00  0.00    +0.032 A 
ATOM     25  C7  UNL     1      20.911   1.770  29.426  0.00  0.00    +0.058 A 
ATOM     26  H8  UNL     1      22.688   1.311  26.747  0.00  0.00    +0.165 HD
BRANCH  21  28
ATOM     27  C1  UNL     1      24.420   0.744  29.177  0.00  0.00    +0.013 C 
ATOM     28  C2  UNL     1      23.000   0.184  29.301  0.00  0.00    +0.030 C 
ATOM     29  C3  UNL     1      22.878  -1.212  28.677  0.00  0.00    +0.013 C 
ENDBRANCH  21  28
ENDBRANCH   1  25
TORSDOF 3
ENDMDL
MODEL 2
REMARK VINA RESULT:    -7.010      5.883     10.731
REMARK INTER + INTRA:          -8.888
REMARK INTER:                  -8.231
REMARK INTRA:                  -0.657
REMARK UNBOUND:                -0.649
REMARK  Name = /home/qwerty/github/datacon2025hack/step_04_hit_selection/docking/ligands/lig_366.pdb
REMARK  5 active torsions:
REMARK  status: ('A' for Active; 'I' for Inactive)
REMARK    1  A    between atoms: C1_1  and  C2_2
REMARK    2  A    between atoms: C2_2  and  C3_3
REMARK    3  A    between atoms: C2_2  and  C4_4
REMARK    4  A    between atoms: C7_8  and  C8_9
REMARK    5  A    between atoms: C13_17  and  C14_19
REMARK                            x       y       z     vdW  Elec       q    Type
REMARK                         _______ _______ _______ _____ _____    ______ ____
ROOT
ATOM      1  C8  UNL     1      21.702   2.682  27.141  0.00  0.00    +0.248 C 
ATOM      2  O1  UNL     1      22.745   3.291  26.784  0.00  0.00    -0.270 OA
ATOM      3  N2  UNL     1      20.647   2.459  26.183  0.00  0.00    -0.297 N 
ATOM      4  C9  UNL     1      20.543   3.350  25.018  0.00  0.00    +0.108 C 
ATOM      5  C10 UNL     1      19.260   3.086  24.224  0.00  0.00    +0.024 C 
ATOM      6  C11 UNL     1      19.148   1.594  23.851  0.00  0.00    +0.014 C 
ATOM      7  C12 UNL     1      17.756   1.235  23.320  0.00  0.00    +0.112 C 
ATOM      8  N3  UNL     1      17.296   0.103  24.107  0.00  0.00    -0.296 N 
ATOM      9  C13 UNL     1      16.141  -0.667  23.731  0.00  0.00    +0.263 C 
ATOM     10  O2  UNL     1      15.780  -0.696  22.524  0.00  0.00    -0.268 OA
ATOM     11  C18 UNL     1      18.250  -0.332  25.114  0.00  0.00    +0.113 C 
ATOM     12  C19 UNL     1      19.435   0.638  25.035  0.00  0.00    +0.028 C 
ATOM     13  C20 UNL     1      19.668   1.377  26.369  0.00  0.00    +0.113 C 
ENDROOT
BRANCH   9  14
ATOM     14  C14 UNL     1      15.361  -1.433  24.721  0.00  0.00    +0.105 A 
ATOM     15  C15 UNL     1      14.755  -0.921  25.855  0.00  0.00    +0.070 A 
ATOM     16  C16 UNL     1      14.089  -1.982  26.429  0.00  0.00    +0.141 A 
ATOM     17  F1  UNL     1      13.333  -1.938  27.554  0.00  0.00    -0.204 F 
ATOM     18  C17 UNL     1      14.294  -3.085  25.631  0.00  0.00    +0.121 A 
ATOM     19  N4  UNL     1      15.065  -2.741  24.584  0.00  0.00    -0.355 N 
ATOM     20  H20 UNL     1      15.370  -3.375  23.811  0.00  0.00    +0.166 HD
ENDBRANCH   9  14
BRANCH   1  25
ATOM     21  C4  UNL     1      22.219   1.248  29.237  0.00  0.00    +0.031 A 
ATOM     22  N1  UNL     1      21.795   1.233  30.517  0.00  0.00    -0.364 N 
ATOM     23  C5  UNL     1      20.876   2.205  30.654  0.00  0.00    +0.083 A 
ATOM     24  C6  UNL     1      20.700   2.863  29.455  0.00  0.00    +0.032 A 
ATOM     25  C7  UNL     1      21.558   2.266  28.549  0.00  0.00    +0.058 A 
ATOM     26  H8  UNL     1      22.109   0.581  31.270  0.00  0.00    +0.165 HD
BRANCH  21  28
ATOM     27  C1  UNL     1      22.748  -1.193  28.927  0.00  0.00    +0.013 C 
ATOM     28  C2  UNL     1      23.227   0.245  28.714  0.00  0.00    +0.030 C 
ATOM     29  C3  UNL     1      24.634   0.471  29.283  0.00  0.00    +0.013 C 
ENDBRANCH  21  28
ENDBRANCH   1  25
TORSDOF 3
ENDMDL
MODEL 3
REMARK VINA RESULT:    -6.948      4.973      7.558
REMARK INTER + INTRA:          -8.816
REMARK INTER:                  -8.150
REMARK INTRA:                  -0.666
REMARK UNBOUND:                -0.649
REMARK  Name = /home/qwerty/github/datacon2025hack/step_04_hit_selection/docking/ligands/lig_366.pdb
REMARK  5 active torsions:
REMARK  status: ('A' for Active; 'I' for Inactive)
REMARK    1  A    between atoms: C1_1  and  C2_2
REMARK    2  A    between atoms: C2_2  and  C3_3
REMARK    3  A    between atoms: C2_2  and  C4_4
REMARK    4  A    between atoms: C7_8  and  C8_9
REMARK    5  A    between atoms: C13_17  and  C14_19
REMARK                            x       y       z     vdW  Elec       q    Type
REMARK                         _______ _______ _______ _____ _____    ______ ____
ROOT
ATOM      1  C8  UNL     1      23.740   7.774  33.586  0.00  0.00    +0.248 C 
ATOM      2  O1  UNL     1      24.748   7.054  33.816  0.00  0.00    -0.270 OA
ATOM      3  N2  UNL     1      22.640   7.773  34.519  0.00  0.00    -0.297 N 
ATOM      4  C9  UNL     1      22.453   6.609  35.398  0.00  0.00    +0.108 C 
ATOM      5  C10 UNL     1      21.135   6.700  36.174  0.00  0.00    +0.024 C 
ATOM      6  C11 UNL     1      21.037   8.042  36.926  0.00  0.00    +0.014 C 
ATOM      7  C12 UNL     1      19.626   8.299  37.468  0.00  0.00    +0.112 C 
ATOM      8  N3  UNL     1      19.237   9.615  36.991  0.00  0.00    -0.296 N 
ATOM      9  C13 UNL     1      18.081  10.299  37.506  0.00  0.00    +0.263 C 
ATOM     10  O2  UNL     1      17.655  10.021  38.659  0.00  0.00    -0.268 OA
ATOM     11  C18 UNL     1      20.254  10.266  36.183  0.00  0.00    +0.113 C 
ATOM     12  C19 UNL     1      21.410   9.267  36.055  0.00  0.00    +0.028 C 
ATOM     13  C20 UNL     1      21.698   8.901  34.584  0.00  0.00    +0.113 C 
ENDROOT
BRANCH   9  14
ATOM     14  C14 UNL     1      17.374  11.329  36.722  0.00  0.00    +0.105 A 
ATOM     15  C15 UNL     1      16.281  11.119  35.897  0.00  0.00    +0.070 A 
ATOM     16  C16 UNL     1      15.922  12.368  35.436  0.00  0.00    +0.141 A 
ATOM     17  F1  UNL     1      14.882  12.647  34.613  0.00  0.00    -0.204 F 
ATOM     18  C17 UNL     1      16.782  13.284  35.997  0.00  0.00    +0.121 A 
ATOM     19  N4  UNL     1      17.662  12.645  36.789  0.00  0.00    -0.355 N 
ATOM     20  H20 UNL     1      18.422  13.091  37.351  0.00  0.00    +0.166 HD
ENDBRANCH   9  14
BRANCH   1  25
ATOM     21  C4  UNL     1      22.758   8.477  31.293  0.00  0.00    +0.031 A 
ATOM     22  N1  UNL     1      23.074   9.394  30.356  0.00  0.00    -0.364 N 
ATOM     23  C5  UNL     1      24.177  10.040  30.772  0.00  0.00    +0.083 A 
ATOM     24  C6  UNL     1      24.585   9.544  31.992  0.00  0.00    +0.032 A 
ATOM     25  C7  UNL     1      23.682   8.554  32.336  0.00  0.00    +0.058 A 
ATOM     26  H8  UNL     1      22.566   9.570  29.461  0.00  0.00    +0.165 HD
BRANCH  21  28
ATOM     27  C1  UNL     1      22.016   6.230  30.438  0.00  0.00    +0.013 C 
ATOM     28  C2  UNL     1      21.589   7.529  31.126  0.00  0.00    +0.030 C 
ATOM     29  C3  UNL     1      20.394   8.184  30.422  0.00  0.00    +0.013 C 
ENDBRANCH  21  28
ENDBRANCH   1  25
TORSDOF 3
ENDMDL
MODEL 4
REMARK VINA RESULT:    -6.792     10.622     14.327
REMARK INTER + INTRA:          -8.632
REMARK INTER:                  -7.895
REMARK INTRA:                  -0.737
REMARK UNBOUND:                -0.649
REMARK  Name = /home/qwerty/github/datacon2025hack/step_04_hit_selection/docking/ligands/lig_366.pdb
REMARK  5 active torsions:
REMARK  status: ('A' for Active; 'I' for Inactive)
REMARK    1  A    between atoms: C1_1  and  C2_2
REMARK    2  A    between atoms: C2_2  and  C3_3
REMARK    3  A    between atoms: C2_2  and  C4_4
REMARK    4  A    between atoms: C7_8  and  C8_9
REMARK    5  A    between atoms: C13_17  and  C14_19
REMARK                            x       y       z     vdW  Elec       q    Type
REMARK                         _______ _______ _______ _____ _____    ______ ____
ROOT
ATOM      1  C8  UNL     1      15.108  -0.967  23.962  0.00  0.00    +0.248 C 
ATOM      2  O1  UNL     1      16.041  -1.655  23.470  0.00  0.00    -0.270 OA
ATOM      3  N2  UNL     1      14.544   0.116  23.195  0.00  0.00    -0.297 N 
ATOM      4  C9  UNL     1      15.354   0.736  22.136  0.00  0.00    +0.108 C 
ATOM      5  C10 UNL     1      14.672   1.984  21.567  0.00  0.00    +0.024 C 
ATOM      6  C11 UNL     1      13.235   1.659  21.112  0.00  0.00    +0.014 C 
ATOM      7  C12 UNL     1      12.424   2.925  20.814  0.00  0.00    +0.112 C 
ATOM      8  N3  UNL     1      11.197   2.817  21.585  0.00  0.00    -0.296 N 
ATOM      9  C13 UNL     1      10.080   3.696  21.366  0.00  0.00    +0.263 C 
ATOM     10  O2  UNL     1       9.938   4.253  20.245  0.00  0.00    -0.268 OA
ATOM     11  C18 UNL     1      11.108   1.597  22.370  0.00  0.00    +0.113 C 
ATOM     12  C19 UNL     1      12.427   0.845  22.152  0.00  0.00    +0.028 C 
ATOM     13  C20 UNL     1      13.190   0.619  23.473  0.00  0.00    +0.113 C 
ENDROOT
BRANCH   9  14
ATOM     14  C14 UNL     1       9.085   3.967  22.420  0.00  0.00    +0.105 A 
ATOM     15  C15 UNL     1       9.290   4.725  23.561  0.00  0.00    +0.070 A 
ATOM     16  C16 UNL     1       8.073   4.758  24.206  0.00  0.00    +0.141 A 
ATOM     17  F1  UNL     1       7.798   5.411  25.362  0.00  0.00    -0.204 F 
ATOM     18  C17 UNL     1       7.176   4.044  23.444  0.00  0.00    +0.121 A 
ATOM     19  N4  UNL     1       7.798   3.570  22.349  0.00  0.00    -0.355 N 
ATOM     20  H20 UNL     1       7.358   3.004  21.588  0.00  0.00    +0.166 HD
ENDBRANCH   9  14
BRANCH   1  25
ATOM     21  C4  UNL     1      14.828  -0.480  26.492  0.00  0.00    +0.031 A 
ATOM     22  N1  UNL     1      14.232  -1.106  27.528  0.00  0.00    -0.364 N 
ATOM     23  C5  UNL     1      13.700  -2.249  27.064  0.00  0.00    +0.083 A 
ATOM     24  C6  UNL     1      13.947  -2.372  25.714  0.00  0.00    +0.032 A 
ATOM     25  C7  UNL     1      14.657  -1.246  25.339  0.00  0.00    +0.058 A 
ATOM     26  H8  UNL     1      14.196  -0.774  28.518  0.00  0.00    +0.165 HD
BRANCH  21  28
ATOM     27  C1  UNL     1      16.963   0.597  27.275  0.00  0.00    +0.013 C 
ATOM     28  C2  UNL     1      15.577   0.825  26.667  0.00  0.00    +0.030 C 
ATOM     29  C3  UNL     1      14.771   1.868  27.451  0.00  0.00    +0.013 C 
ENDBRANCH  21  28
ENDBRANCH   1  25
TORSDOF 3
ENDMDL
MODEL 5
REMARK VINA RESULT:    -6.590     13.443     15.078
REMARK INTER + INTRA:          -8.395
REMARK INTER:                  -7.793
REMARK INTRA:                  -0.602
REMARK UNBOUND:                -0.649
REMARK  Name = /home/qwerty/github/datacon2025hack/step_04_hit_selection/docking/ligands/lig_366.pdb
REMARK  5 active torsions:
REMARK  status: ('A' for Active; 'I' for Inactive)
REMARK    1  A    between atoms: C1_1  and  C2_2
REMARK    2  A    between atoms: C2_2  and  C3_3
REMARK    3  A    between atoms: C2_2  and  C4_4
REMARK    4  A    between atoms: C7_8  and  C8_9
REMARK    5  A    between atoms: C13_17  and  C14_19
REMARK                            x       y       z     vdW  Elec       q    Type
REMARK                         _______ _______ _______ _____ _____    ______ ____
ROOT
ATOM      1  C8  UNL     1      10.813  13.521  28.507  0.00  0.00    +0.248 C 
ATOM      2  O1  UNL     1      10.883  14.382  27.590  0.00  0.00    -0.270 OA
ATOM      3  N2  UNL     1      11.577  13.708  29.715  0.00  0.00    -0.297 N 
ATOM      4  C9  UNL     1      12.779  14.555  29.674  0.00  0.00    +0.108 C 
ATOM      5  C10 UNL     1      13.563  14.480  30.988  0.00  0.00    +0.024 C 
ATOM      6  C11 UNL     1      12.646  14.795  32.188  0.00  0.00    +0.014 C 
ATOM      7  C12 UNL     1      13.307  14.446  33.526  0.00  0.00    +0.112 C 
ATOM      8  N3  UNL     1      12.368  13.596  34.238  0.00  0.00    -0.296 N 
ATOM      9  C13 UNL     1      12.534  13.278  35.631  0.00  0.00    +0.263 C 
ATOM     10  O2  UNL     1      13.189  14.057  36.373  0.00  0.00    -0.268 OA
ATOM     11  C18 UNL     1      11.139  13.344  33.504  0.00  0.00    +0.113 C 
ATOM     12  C19 UNL     1      11.294  14.041  32.147  0.00  0.00    +0.028 C 
ATOM     13  C20 UNL     1      11.188  13.049  30.971  0.00  0.00    +0.113 C 
ENDROOT
BRANCH   9  14
ATOM     14  C14 UNL     1      11.952  12.060  36.225  0.00  0.00    +0.105 A 
ATOM     15  C15 UNL     1      12.080  10.771  35.734  0.00  0.00    +0.070 A 
ATOM     16  C16 UNL     1      11.437   9.963  36.646  0.00  0.00    +0.141 A 
ATOM     17  F1  UNL     1      11.332   8.613  36.583  0.00  0.00    -0.204 F 
ATOM     18  C17 UNL     1      10.960  10.769  37.655  0.00  0.00    +0.121 A 
ATOM     19  N4  UNL     1      11.285  12.049  37.397  0.00  0.00    -0.355 N 
ATOM     20  H20 UNL     1      11.061  12.873  37.998  0.00  0.00    +0.166 HD
ENDBRANCH   9  14
BRANCH   1  25
ATOM     21  C4  UNL     1       8.610  12.177  28.272  0.00  0.00    +0.031 A 
ATOM     22  N1  UNL     1       8.295  10.889  28.025  0.00  0.00    -0.364 N 
ATOM     23  C5  UNL     1       9.444  10.203  27.904  0.00  0.00    +0.083 A 
ATOM     24  C6  UNL     1      10.520  11.048  28.071  0.00  0.00    +0.032 A 
ATOM     25  C7  UNL     1       9.999  12.309  28.297  0.00  0.00    +0.058 A 
ATOM     26  H8  UNL     1       7.333  10.487  27.950  0.00  0.00    +0.165 HD
BRANCH  21  28
ATOM     27  C1  UNL     1       7.535  14.278  27.397  0.00  0.00    +0.013 C 
ATOM     28  C2  UNL     1       7.549  13.231  28.514  0.00  0.00    +0.030 C 
ATOM     29  C3  UNL     1       7.660  13.874  29.902  0.00  0.00    +0.013 C 
ENDBRANCH  21  28
ENDBRANCH   1  25
TORSDOF 3
ENDMDL
MODEL 6
REMARK VINA RESULT:    -6.542      2.909      7.699
REMARK INTER + INTRA:          -8.338
REMARK INTER:                  -7.510
REMARK INTRA:                  -0.828
REMARK UNBOUND:                -0.649
REMARK  Name = /home/qwerty/github/datacon2025hack/step_04_hit_selection/docking/ligands/lig_366.pdb
REMARK  5 active torsions:
REMARK  status: ('A' for Active; 'I' for Inactive)
REMARK    1  A    between atoms: C1_1  and  C2_2
REMARK    2  A    between atoms: C2_2  and  C3_3
REMARK    3  A    between atoms: C2_2  and  C4_4
REMARK    4  A    between atoms: C7_8  and  C8_9
REMARK    5  A    between atoms: C13_17  and  C14_19
REMARK                            x       y       z     vdW  Elec       q    Type
REMARK                         _______ _______ _______ _____ _____    ______ ____
ROOT
ATOM      1  C8  UNL     1      22.111   8.805  33.246  0.00  0.00    +0.248 C 
ATOM      2  O1  UNL     1      21.722   9.608  34.135  0.00  0.00    -0.270 OA
ATOM      3  N2  UNL     1      22.003   7.386  33.476  0.00  0.00    -0.297 N 
ATOM      4  C9  UNL     1      21.955   6.889  34.859  0.00  0.00    +0.108 C 
ATOM      5  C10 UNL     1      22.038   5.360  34.909  0.00  0.00    +0.024 C 
ATOM      6  C11 UNL     1      20.960   4.727  34.005  0.00  0.00    +0.014 C 
ATOM      7  C12 UNL     1      21.192   3.227  33.796  0.00  0.00    +0.112 C 
ATOM      8  N3  UNL     1      21.183   3.007  32.359  0.00  0.00    -0.296 N 
ATOM      9  C13 UNL     1      21.118   1.688  31.791  0.00  0.00    +0.263 C 
ATOM     10  O2  UNL     1      20.613   0.747  32.461  0.00  0.00    -0.268 OA
ATOM     11  C18 UNL     1      20.964   4.219  31.586  0.00  0.00    +0.113 C 
ATOM     12  C19 UNL     1      20.879   5.368  32.598  0.00  0.00    +0.028 C 
ATOM     13  C20 UNL     1      21.966   6.435  32.353  0.00  0.00    +0.113 C 
ENDROOT
BRANCH   9  14
ATOM     14  C14 UNL     1      21.623   1.398  30.437  0.00  0.00    +0.105 A 
ATOM     15  C15 UNL     1      20.858   1.040  29.339  0.00  0.00    +0.070 A 
ATOM     16  C16 UNL     1      21.743   0.942  28.288  0.00  0.00    +0.141 A 
ATOM     17  F1  UNL     1      21.430   0.636  27.005  0.00  0.00    -0.204 F 
ATOM     18  C17 UNL     1      22.996   1.253  28.766  0.00  0.00    +0.121 A 
ATOM     19  N4  UNL     1      22.915   1.540  30.078  0.00  0.00    -0.355 N 
ATOM     20  H20 UNL     1      23.710   1.822  30.696  0.00  0.00    +0.166 HD
ENDBRANCH   9  14
BRANCH   1  25
ATOM     21  C4  UNL     1      22.108   9.858  30.878  0.00  0.00    +0.031 A 
ATOM     22  N1  UNL     1      23.056  10.250  30.002  0.00  0.00    -0.364 N 
ATOM     23  C5  UNL     1      24.253   9.981  30.549  0.00  0.00    +0.083 A 
ATOM     24  C6  UNL     1      24.089   9.411  31.793  0.00  0.00    +0.032 A 
ATOM     25  C7  UNL     1      22.726   9.337  32.015  0.00  0.00    +0.058 A 
ATOM     26  H8  UNL     1      22.896  10.676  29.062  0.00  0.00    +0.165 HD
BRANCH  21  28
ATOM     27  C1  UNL     1      20.045   8.618  30.143  0.00  0.00    +0.013 C 
ATOM     28  C2  UNL     1      20.630   9.969  30.564  0.00  0.00    +0.030 C 
ATOM     29  C3  UNL     1      20.325  11.071  29.541  0.00  0.00    +0.013 C 
ENDBRANCH  21  28
ENDBRANCH   1  25
TORSDOF 3
ENDMDL
MODEL 7
REMARK VINA RESULT:    -6.486      5.676      8.932
REMARK INTER + INTRA:          -8.273
REMARK INTER:                  -7.567
REMARK INTRA:                  -0.707
REMARK UNBOUND:                -0.649
REMARK  Name = /home/qwerty/github/datacon2025hack/step_04_hit_selection/docking/ligands/lig_366.pdb
REMARK  5 active torsions:
REMARK  status: ('A' for Active; 'I' for Inactive)
REMARK    1  A    between atoms: C1_1  and  C2_2
REMARK    2  A    between atoms: C2_2  and  C3_3
REMARK    3  A    between atoms: C2_2  and  C4_4
REMARK    4  A    between atoms: C7_8  and  C8_9
REMARK    5  A    between atoms: C13_17  and  C14_19
REMARK                            x       y       z     vdW  Elec       q    Type
REMARK                         _______ _______ _______ _____ _____    ______ ____
ROOT
ATOM      1  C8  UNL     1      15.467  -0.227  25.083  0.00  0.00    +0.248 C 
ATOM      2  O1  UNL     1      15.122  -0.040  23.885  0.00  0.00    -0.270 OA
ATOM      3  N2  UNL     1      16.848  -0.055  25.458  0.00  0.00    -0.297 N 
ATOM      4  C9  UNL     1      17.888  -0.190  24.428  0.00  0.00    +0.108 C 
ATOM      5  C10 UNL     1      19.292  -0.171  25.042  0.00  0.00    +0.024 C 
ATOM      6  C11 UNL     1      19.481   1.078  25.927  0.00  0.00    +0.014 C 
ATOM      7  C12 UNL     1      20.747   0.989  26.787  0.00  0.00    +0.112 C 
ATOM      8  N3  UNL     1      20.331   1.240  28.156  0.00  0.00    -0.296 N 
ATOM      9  C13 UNL     1      21.281   1.488  29.207  0.00  0.00    +0.263 C 
ATOM     10  O2  UNL     1      22.420   1.946  28.921  0.00  0.00    -0.268 OA
ATOM     11  C18 UNL     1      18.906   1.491  28.296  0.00  0.00    +0.113 C 
ATOM     12  C19 UNL     1      18.300   1.334  26.896  0.00  0.00    +0.028 C 
ATOM     13  C20 UNL     1      17.228   0.226  26.852  0.00  0.00    +0.113 C 
ENDROOT
BRANCH   9  14
ATOM     14  C14 UNL     1      20.962   1.224  30.623  0.00  0.00    +0.105 A 
ATOM     15  C15 UNL     1      21.065   2.130  31.665  0.00  0.00    +0.070 A 
ATOM     16  C16 UNL     1      20.598   1.466  32.779  0.00  0.00    +0.141 A 
ATOM     17  F1  UNL     1      20.492   1.979  34.029  0.00  0.00    -0.204 F 
ATOM     18  C17 UNL     1      20.217   0.204  32.384  0.00  0.00    +0.121 A 
ATOM     19  N4  UNL     1      20.434   0.064  31.063  0.00  0.00    -0.355 N 
ATOM     20  H20 UNL     1      20.225  -0.786  30.492  0.00  0.00    +0.166 HD
ENDBRANCH   9  14
BRANCH   1  25
ATOM     21  C4  UNL     1      13.521   0.079  26.767  0.00  0.00    +0.031 A 
ATOM     22  N1  UNL     1      12.781  -0.746  27.536  0.00  0.00    -0.364 N 
ATOM     23  C5  UNL     1      13.231  -1.997  27.344  0.00  0.00    +0.083 A 
ATOM     24  C6  UNL     1      14.271  -1.993  26.440  0.00  0.00    +0.032 A 
ATOM     25  C7  UNL     1      14.457  -0.676  26.060  0.00  0.00    +0.058 A 
ATOM     26  H8  UNL     1      12.004  -0.469  28.178  0.00  0.00    +0.165 HD
BRANCH  21  28
ATOM     27  C1  UNL     1      13.610   2.178  28.153  0.00  0.00    +0.013 C 
ATOM     28  C2  UNL     1      13.318   1.580  26.774  0.00  0.00    +0.030 C 
ATOM     29  C3  UNL     1      11.936   1.991  26.252  0.00  0.00    +0.013 C 
ENDBRANCH  21  28
ENDBRANCH   1  25
TORSDOF 3
ENDMDL
MODEL 8
REMARK VINA RESULT:    -6.422      1.509      2.486
REMARK INTER + INTRA:          -8.198
REMARK INTER:                  -7.589
REMARK INTRA:                  -0.608
REMARK UNBOUND:                -0.649
REMARK  Name = /home/qwerty/github/datacon2025hack/step_04_hit_selection/docking/ligands/lig_366.pdb
REMARK  5 active torsions:
REMARK  status: ('A' for Active; 'I' for Inactive)
REMARK    1  A    between atoms: C1_1  and  C2_2
REMARK    2  A    between atoms: C2_2  and  C3_3
REMARK    3  A    between atoms: C2_2  and  C4_4
REMARK    4  A    between atoms: C7_8  and  C8_9
REMARK    5  A    between atoms: C13_17  and  C14_19
REMARK                            x       y       z     vdW  Elec       q    Type
REMARK                         _______ _______ _______ _____ _____    ______ ____
ROOT
ATOM      1  C8  UNL     1      21.478   1.031  29.789  0.00  0.00    +0.248 C 
ATOM      2  O1  UNL     1      21.429  -0.223  29.903  0.00  0.00    -0.270 OA
ATOM      3  N2  UNL     1      21.340   1.857  30.962  0.00  0.00    -0.297 N 
ATOM      4  C9  UNL     1      20.642   1.314  32.137  0.00  0.00    +0.108 C 
ATOM      5  C10 UNL     1      20.421   2.390  33.205  0.00  0.00    +0.024 C 
ATOM      6  C11 UNL     1      21.751   3.082  33.563  0.00  0.00    +0.014 C 
ATOM      7  C12 UNL     1      21.537   4.349  34.399  0.00  0.00    +0.112 C 
ATOM      8  N3  UNL     1      22.253   5.415  33.719  0.00  0.00    -0.296 N 
ATOM      9  C13 UNL     1      22.488   6.690  34.340  0.00  0.00    +0.263 C 
ATOM     10  O2  UNL     1      22.507   6.776  35.597  0.00  0.00    -0.268 OA
ATOM     11  C18 UNL     1      22.930   4.981  32.507  0.00  0.00    +0.113 C 
ATOM     12  C19 UNL     1      22.584   3.498  32.326  0.00  0.00    +0.028 C 
ATOM     13  C20 UNL     1      21.862   3.232  30.990  0.00  0.00    +0.113 C 
ENDROOT
BRANCH   9  14
ATOM     14  C14 UNL     1      22.715   7.912  33.546  0.00  0.00    +0.105 A 
ATOM     15  C15 UNL     1      23.946   8.453  33.215  0.00  0.00    +0.070 A 
ATOM     16  C16 UNL     1      23.669   9.540  32.414  0.00  0.00    +0.141 A 
ATOM     17  F1  UNL     1      24.580  10.361  31.836  0.00  0.00    -0.204 F 
ATOM     18  C17 UNL     1      22.302   9.616  32.271  0.00  0.00    +0.121 A 
ATOM     19  N4  UNL     1      21.724   8.613  32.958  0.00  0.00    -0.355 N 
ATOM     20  H20 UNL     1      20.699   8.418  33.016  0.00  0.00    +0.166 HD
ENDBRANCH   9  14
BRANCH   1  25
ATOM     21  C4  UNL     1      20.638   1.831  27.471  0.00  0.00    +0.031 A 
ATOM     22  N1  UNL     1      21.202   2.427  26.401  0.00  0.00    -0.364 N 
ATOM     23  C5  UNL     1      22.509   2.593  26.667  0.00  0.00    +0.083 A 
ATOM     24  C6  UNL     1      22.802   2.105  27.922  0.00  0.00    +0.032 A 
ATOM     25  C7  UNL     1      21.615   1.626  28.446  0.00  0.00    +0.058 A 
ATOM     26  H8  UNL     1      20.721   2.703  25.516  0.00  0.00    +0.165 HD
BRANCH  21  28
ATOM     27  C1  UNL     1      18.595   1.356  26.081  0.00  0.00    +0.013 C 
ATOM     28  C2  UNL     1      19.173   1.446  27.496  0.00  0.00    +0.030 C 
ATOM     29  C3  UNL     1      18.337   2.361  28.400  0.00  0.00    +0.013 C 
ENDBRANCH  21  28
ENDBRANCH   1  25
TORSDOF 3
ENDMDL
MODEL 9
REMARK VINA RESULT:    -6.215     14.133     16.657
REMARK INTER + INTRA:          -7.955
REMARK INTER:                  -7.392
REMARK INTRA:                  -0.562
REMARK UNBOUND:                -0.649
REMARK  Name = /home/qwerty/github/datacon2025hack/step_04_hit_selection/docking/ligands/lig_366.pdb
REMARK  5 active torsions:
REMARK  status: ('A' for Active; 'I' for Inactive)
REMARK    1  A    between atoms: C1_1  and  C2_2
REMARK    2  A    between atoms: C2_2  and  C3_3
REMARK    3  A    between atoms: C2_2  and  C4_4
REMARK    4  A    between atoms: C7_8  and  C8_9
REMARK    5  A    between atoms: C13_17  and  C14_19
REMARK                            x       y       z     vdW  Elec       q    Type
REMARK                         _______ _______ _______ _____ _____    ______ ____
ROOT
ATOM      1  C8  UNL     1       8.009  10.544  28.513  0.00  0.00    +0.248 C 
ATOM      2  O1  UNL     1       7.247  10.227  29.464  0.00  0.00    -0.270 OA
ATOM      3  N2  UNL     1       8.376   9.549  27.536  0.00  0.00    -0.297 N 
ATOM      4  C9  UNL     1       8.320   8.129  27.911  0.00  0.00    +0.108 C 
ATOM      5  C10 UNL     1       8.927   7.237  26.822  0.00  0.00    +0.024 C 
ATOM      6  C11 UNL     1       8.272   7.525  25.456  0.00  0.00    +0.014 C 
ATOM      7  C12 UNL     1       9.042   6.877  24.299  0.00  0.00    +0.112 C 
ATOM      8  N3  UNL     1       9.303   7.935  23.338  0.00  0.00    -0.296 N 
ATOM      9  C13 UNL     1       9.782   7.655  22.011  0.00  0.00    +0.263 C 
ATOM     10  O2  UNL     1       9.555   6.530  21.492  0.00  0.00    -0.268 OA
ATOM     11  C18 UNL     1       8.779   9.230  23.739  0.00  0.00    +0.113 C 
ATOM     12  C19 UNL     1       8.161   9.034  25.129  0.00  0.00    +0.028 C 
ATOM     13  C20 UNL     1       8.826   9.936  26.189  0.00  0.00    +0.113 C 
ENDROOT
BRANCH   9  14
ATOM     14  C14 UNL     1      10.534   8.654  21.229  0.00  0.00    +0.105 A 
ATOM     15  C15 UNL     1      11.629   9.380  21.670  0.00  0.00    +0.070 A 
ATOM     16  C16 UNL     1      12.037  10.127  20.587  0.00  0.00    +0.141 A 
ATOM     17  F1  UNL     1      13.096  10.973  20.552  0.00  0.00    -0.204 F 
ATOM     18  C17 UNL     1      11.204   9.827  19.533  0.00  0.00    +0.121 A 
ATOM     19  N4  UNL     1      10.292   8.919  19.929  0.00  0.00    -0.355 N 
ATOM     20  H20 UNL     1       9.542   8.500  19.334  0.00  0.00    +0.166 HD
ENDBRANCH   9  14
BRANCH   1  25
ATOM     21  C4  UNL     1       9.634  12.458  29.155  0.00  0.00    +0.031 A 
ATOM     22  N1  UNL     1       9.801  13.742  28.775  0.00  0.00    -0.364 N 
ATOM     23  C5  UNL     1       8.854  14.025  27.865  0.00  0.00    +0.083 A 
ATOM     24  C6  UNL     1       8.062  12.918  27.645  0.00  0.00    +0.032 A 
ATOM     25  C7  UNL     1       8.558  11.913  28.455  0.00  0.00    +0.058 A 
ATOM     26  H8  UNL     1      10.526  14.406  29.128  0.00  0.00    +0.165 HD
BRANCH  21  28
ATOM     27  C1  UNL     1      11.129  12.865  31.138  0.00  0.00    +0.013 C 
ATOM     28  C2  UNL     1      10.506  11.815  30.214  0.00  0.00    +0.030 C 
ATOM     29  C3  UNL     1      11.562  10.875  29.620  0.00  0.00    +0.013 C 
ENDBRANCH  21  28
ENDBRANCH   1  25
TORSDOF 3
ENDMDL
