MODEL 1
REMARK VINA RESULT:    -8.798      0.000      0.000
REMARK INTER + INTRA:         -13.310
REMARK INTER:                 -11.884
REMARK INTRA:                  -1.425
REMARK UNBOUND:                -1.425
REMARK  Name = /home/qwerty/github/datacon2025hack/step_04_hit_selection/docking/ligands/lig_13.pdb
REMARK  8 active torsions:
REMARK  status: ('A' for Active; 'I' for Inactive)
REMARK    1  A    between atoms: C1_1  and  N1_2
REMARK    2  A    between atoms: N1_2  and  C2_3
REMARK    3  A    between atoms: N1_2  and  C3_4
REMARK    4  A    between atoms: C6_7  and  C7_8
REMARK    5  A    between atoms: N2_10  and  C8_11
REMARK    6  A    between atoms: C11_14  and  C12_15
REMARK    7  A    between atoms: C16_21  and  C17_22
REMARK    8  A    between atoms: C19_25  and  C20_26
REMARK                            x       y       z     vdW  Elec       q    Type
REMARK                         _______ _______ _______ _____ _____    ______ ____
ROOT
ATOM      1  C12 UNL     1      19.936  15.309  26.627  0.00  0.00    +0.072 A 
ATOM      2  C13 UNL     1      20.880  15.796  27.580  0.00  0.00    +0.030 A 
ATOM      3  C14 UNL     1      22.256  15.787  27.279  0.00  0.00    +0.031 A 
ATOM      4  C15 UNL     1      22.630  15.286  26.040  0.00  0.00    +0.085 A 
ATOM      5  N3  UNL     1      23.853  15.171  25.497  0.00  0.00    -0.275 N 
ATOM      6  N4  UNL     1      23.726  14.642  24.282  0.00  0.00    -0.168 NA
ATOM      7  C16 UNL     1      22.407  14.416  24.054  0.00  0.00    +0.153 A 
ATOM      8  C28 UNL     1      21.708  14.822  25.164  0.00  0.00    +0.120 A 
ATOM      9  N9  UNL     1      20.380  14.821  25.427  0.00  0.00    -0.243 NA
ATOM     10  H14 UNL     1      24.762  15.448  25.932  0.00  0.00    +0.189 HD
ENDROOT
BRANCH   7  11
ATOM     11  C17 UNL     1      21.854  13.844  22.820  0.00  0.00    +0.162 A 
ATOM     12  N5  UNL     1      22.468  12.848  22.130  0.00  0.00    -0.225 NA
ATOM     13  C18 UNL     1      21.631  12.634  21.098  0.00  0.00    +0.100 A 
ATOM     14  C19 UNL     1      21.746  11.689  20.072  0.00  0.00    +0.028 A 
ATOM     15  C25 UNL     1      20.680  11.643  19.141  0.00  0.00    +0.121 A 
ATOM     16  N7  UNL     1      19.613  12.497  19.258  0.00  0.00    -0.260 NA
ATOM     17  C26 UNL     1      19.525  13.415  20.264  0.00  0.00    +0.138 A 
ATOM     18  C27 UNL     1      20.559  13.466  21.187  0.00  0.00    +0.085 A 
ATOM     19  N8  UNL     1      20.682  14.245  22.268  0.00  0.00    -0.335 N 
ATOM     20  H21 UNL     1      20.017  14.972  22.615  0.00  0.00    +0.167 HD
BRANCH  14  21
ATOM     21  C20 UNL     1      22.915  10.782  19.959  0.00  0.00    -0.011 A 
ATOM     22  C21 UNL     1      24.047  11.168  19.223  0.00  0.00    +0.028 A 
ATOM     23  C22 UNL     1      25.141  10.303  19.132  0.00  0.00    +0.111 A 
ATOM     24  N6  UNL     1      25.111   9.097  19.758  0.00  0.00    -0.263 NA
ATOM     25  C23 UNL     1      24.033   8.697  20.482  0.00  0.00    +0.111 A 
ATOM     26  C24 UNL     1      22.916   9.528  20.594  0.00  0.00    +0.028 A 
ENDBRANCH  14  21
ENDBRANCH   7  11
BRANCH   1  30
ATOM     27  C8  UNL     1      15.690  15.252  27.376  0.00  0.00    +0.034 A 
ATOM     28  C9  UNL     1      16.328  16.453  27.026  0.00  0.00    +0.024 A 
ATOM     29  C10 UNL     1      17.706  16.480  26.784  0.00  0.00    +0.012 A 
ATOM     30  C11 UNL     1      18.476  15.308  26.904  0.00  0.00    +0.000 A 
ATOM     31  C29 UNL     1      17.834  14.110  27.266  0.00  0.00    +0.012 A 
ATOM     32  C30 UNL     1      16.457  14.085  27.508  0.00  0.00    +0.024 A 
BRANCH  27  35
ATOM     33  C7  UNL     1      13.728  14.884  28.936  0.00  0.00    +0.248 C 
ATOM     34  O1  UNL     1      14.430  15.048  29.971  0.00  0.00    -0.270 OA
ATOM     35  N2  UNL     1      14.279  15.201  27.647  0.00  0.00    -0.282 N 
ATOM     36  H9  UNL     1      13.627  15.523  26.897  0.00  0.00    +0.155 HD
BRANCH  33  40
ATOM     37  C3  UNL     1       9.642  13.527  29.318  0.00  0.00    +0.029 A 
ATOM     38  C4  UNL     1      10.162  13.934  28.072  0.00  0.00    +0.024 A 
ATOM     39  C5  UNL     1      11.481  14.376  27.954  0.00  0.00    +0.015 A 
ATOM     40  C6  UNL     1      12.327  14.415  29.073  0.00  0.00    +0.037 A 
ATOM     41  C31 UNL     1      11.813  14.020  30.320  0.00  0.00    +0.015 A 
ATOM     42  C32 UNL     1      10.491  13.583  30.441  0.00  0.00    +0.024 A 
BRANCH  37  44
ATOM     43  C1  UNL     1       7.183  14.021  29.712  0.00  0.00    +0.129 C 
ATOM     44  N1  UNL     1       8.268  13.069  29.442  0.00  0.00    -0.336 N 
ATOM     45  C2  UNL     1       7.938  11.645  29.296  0.00  0.00    +0.129 C 
ENDBRANCH  37  44
ENDBRANCH  33  40
ENDBRANCH  27  35
ENDBRANCH   1  30
TORSDOF 6
ENDMDL
MODEL 2
REMARK VINA RESULT:    -8.497      6.170     11.033
REMARK INTER + INTRA:         -12.903
REMARK INTER:                 -11.525
REMARK INTRA:                  -1.377
REMARK UNBOUND:                -1.425
REMARK  Name = /home/qwerty/github/datacon2025hack/step_04_hit_selection/docking/ligands/lig_13.pdb
REMARK  8 active torsions:
REMARK  status: ('A' for Active; 'I' for Inactive)
REMARK    1  A    between atoms: C1_1  and  N1_2
REMARK    2  A    between atoms: N1_2  and  C2_3
REMARK    3  A    between atoms: N1_2  and  C3_4
REMARK    4  A    between atoms: C6_7  and  C7_8
REMARK    5  A    between atoms: N2_10  and  C8_11
REMARK    6  A    between atoms: C11_14  and  C12_15
REMARK    7  A    between atoms: C16_21  and  C17_22
REMARK    8  A    between atoms: C19_25  and  C20_26
REMARK                            x       y       z     vdW  Elec       q    Type
REMARK                         _______ _______ _______ _____ _____    ______ ____
ROOT
ATOM      1  C12 UNL     1      20.196   9.552  20.998  0.00  0.00    +0.072 A 
ATOM      2  C13 UNL     1      19.198   9.382  19.992  0.00  0.00    +0.030 A 
ATOM      3  C14 UNL     1      18.789  10.480  19.210  0.00  0.00    +0.031 A 
ATOM      4  C15 UNL     1      19.390  11.703  19.473  0.00  0.00    +0.085 A 
ATOM      5  N3  UNL     1      19.200  12.894  18.881  0.00  0.00    -0.275 N 
ATOM      6  N4  UNL     1      20.005  13.783  19.459  0.00  0.00    -0.168 NA
ATOM      7  C16 UNL     1      20.711  13.149  20.429  0.00  0.00    +0.153 A 
ATOM      8  C28 UNL     1      20.325  11.830  20.443  0.00  0.00    +0.120 A 
ATOM      9  N9  UNL     1      20.739  10.792  21.206  0.00  0.00    -0.243 NA
ATOM     10  H14 UNL     1      18.543  13.109  18.098  0.00  0.00    +0.189 HD
ENDROOT
BRANCH   7  11
ATOM     11  C17 UNL     1      21.714  13.785  21.292  0.00  0.00    +0.162 A 
ATOM     12  N5  UNL     1      21.518  13.992  22.620  0.00  0.00    -0.225 NA
ATOM     13  C18 UNL     1      22.665  14.580  23.008  0.00  0.00    +0.100 A 
ATOM     14  C19 UNL     1      23.034  14.992  24.294  0.00  0.00    +0.028 A 
ATOM     15  C25 UNL     1      24.336  15.533  24.427  0.00  0.00    +0.121 A 
ATOM     16  N7  UNL     1      25.162  15.643  23.338  0.00  0.00    -0.260 NA
ATOM     17  C26 UNL     1      24.778  15.241  22.092  0.00  0.00    +0.138 A 
ATOM     18  C27 UNL     1      23.507  14.702  21.948  0.00  0.00    +0.085 A 
ATOM     19  N8  UNL     1      22.924  14.209  20.849  0.00  0.00    -0.335 N 
ATOM     20  H21 UNL     1      23.319  14.146  19.885  0.00  0.00    +0.167 HD
BRANCH  14  21
ATOM     21  C20 UNL     1      22.120  14.873  25.457  0.00  0.00    -0.011 A 
ATOM     22  C21 UNL     1      21.186  15.884  25.734  0.00  0.00    +0.028 A 
ATOM     23  C22 UNL     1      20.330  15.753  26.831  0.00  0.00    +0.111 A 
ATOM     24  N6  UNL     1      20.396  14.647  27.619  0.00  0.00    -0.263 NA
ATOM     25  C23 UNL     1      21.285  13.649  27.373  0.00  0.00    +0.111 A 
ATOM     26  C24 UNL     1      22.163  13.743  26.291  0.00  0.00    +0.028 A 
ENDBRANCH  14  21
ENDBRANCH   7  11
BRANCH   1  30
ATOM     27  C8  UNL     1      21.544   6.308  23.497  0.00  0.00    +0.034 A 
ATOM     28  C9  UNL     1      22.260   6.649  22.337  0.00  0.00    +0.024 A 
ATOM     29  C10 UNL     1      21.827   7.698  21.520  0.00  0.00    +0.012 A 
ATOM     30  C11 UNL     1      20.659   8.417  21.838  0.00  0.00    +0.000 A 
ATOM     31  C29 UNL     1      19.940   8.063  22.994  0.00  0.00    +0.012 A 
ATOM     32  C30 UNL     1      20.374   7.013  23.809  0.00  0.00    +0.024 A 
BRANCH  27  35
ATOM     33  C7  UNL     1      21.327   3.929  24.346  0.00  0.00    +0.248 C 
ATOM     34  O1  UNL     1      20.674   3.554  23.334  0.00  0.00    -0.270 OA
ATOM     35  N2  UNL     1      21.959   5.221  24.343  0.00  0.00    -0.282 N 
ATOM     36  H9  UNL     1      22.834   5.344  24.900  0.00  0.00    +0.155 HD
BRANCH  33  40
ATOM     37  C3  UNL     1      21.778   1.256  27.711  0.00  0.00    +0.029 A 
ATOM     38  C4  UNL     1      22.620   2.375  27.552  0.00  0.00    +0.024 A 
ATOM     39  C5  UNL     1      22.474   3.234  26.460  0.00  0.00    +0.015 A 
ATOM     40  C6  UNL     1      21.475   3.010  25.500  0.00  0.00    +0.037 A 
ATOM     41  C31 UNL     1      20.638   1.890  25.647  0.00  0.00    +0.015 A 
ATOM     42  C32 UNL     1      20.788   1.027  26.736  0.00  0.00    +0.024 A 
BRANCH  37  44
ATOM     43  C1  UNL     1      21.270   0.654  30.124  0.00  0.00    +0.129 C 
ATOM     44  N1  UNL     1      21.931   0.360  28.846  0.00  0.00    -0.336 N 
ATOM     45  C2  UNL     1      22.746  -0.857  28.736  0.00  0.00    +0.129 C 
ENDBRANCH  37  44
ENDBRANCH  33  40
ENDBRANCH  27  35
ENDBRANCH   1  30
TORSDOF 6
ENDMDL
MODEL 3
REMARK VINA RESULT:    -8.451      7.499     14.326
REMARK INTER + INTRA:         -12.841
REMARK INTER:                 -11.619
REMARK INTRA:                  -1.221
REMARK UNBOUND:                -1.425
REMARK  Name = /home/qwerty/github/datacon2025hack/step_04_hit_selection/docking/ligands/lig_13.pdb
REMARK  8 active torsions:
REMARK  status: ('A' for Active; 'I' for Inactive)
REMARK    1  A    between atoms: C1_1  and  N1_2
REMARK    2  A    between atoms: N1_2  and  C2_3
REMARK    3  A    between atoms: N1_2  and  C3_4
REMARK    4  A    between atoms: C6_7  and  C7_8
REMARK    5  A    between atoms: N2_10  and  C8_11
REMARK    6  A    between atoms: C11_14  and  C12_15
REMARK    7  A    between atoms: C16_21  and  C17_22
REMARK    8  A    between atoms: C19_25  and  C20_26
REMARK                            x       y       z     vdW  Elec       q    Type
REMARK                         _______ _______ _______ _____ _____    ______ ____
ROOT
ATOM      1  C12 UNL     1      20.534  10.089  34.296  0.00  0.00    +0.072 A 
ATOM      2  C13 UNL     1      21.370   9.103  34.900  0.00  0.00    +0.030 A 
ATOM      3  C14 UNL     1      21.090   8.639  36.201  0.00  0.00    +0.031 A 
ATOM      4  C15 UNL     1      19.990   9.187  36.845  0.00  0.00    +0.085 A 
ATOM      5  N3  UNL     1      19.495   8.926  38.066  0.00  0.00    -0.275 N 
ATOM      6  N4  UNL     1      18.419   9.687  38.255  0.00  0.00    -0.168 NA
ATOM      7  C16 UNL     1      18.232  10.441  37.143  0.00  0.00    +0.153 A 
ATOM      8  C28 UNL     1      19.224  10.130  36.245  0.00  0.00    +0.120 A 
ATOM      9  N9  UNL     1      19.469  10.590  34.996  0.00  0.00    -0.243 NA
ATOM     10  H14 UNL     1      19.869   8.243  38.762  0.00  0.00    +0.189 HD
ENDROOT
BRANCH   7  11
ATOM     11  C17 UNL     1      17.143  11.407  36.956  0.00  0.00    +0.162 A 
ATOM     12  N5  UNL     1      15.839  11.038  36.859  0.00  0.00    -0.225 NA
ATOM     13  C18 UNL     1      15.201  12.213  36.705  0.00  0.00    +0.100 A 
ATOM     14  C19 UNL     1      13.825  12.442  36.585  0.00  0.00    +0.028 A 
ATOM     15  C25 UNL     1      13.423  13.796  36.494  0.00  0.00    +0.121 A 
ATOM     16  N7  UNL     1      14.351  14.805  36.515  0.00  0.00    -0.260 NA
ATOM     17  C26 UNL     1      15.689  14.558  36.627  0.00  0.00    +0.138 A 
ATOM     18  C27 UNL     1      16.097  13.235  36.724  0.00  0.00    +0.085 A 
ATOM     19  N8  UNL     1      17.334  12.747  36.877  0.00  0.00    -0.335 N 
ATOM     20  H21 UNL     1      18.231  13.279  36.944  0.00  0.00    +0.167 HD
BRANCH  14  21
ATOM     21  C20 UNL     1      12.838  11.334  36.554  0.00  0.00    -0.011 A 
ATOM     22  C21 UNL     1      12.913  10.341  35.563  0.00  0.00    +0.028 A 
ATOM     23  C22 UNL     1      11.978   9.303  35.552  0.00  0.00    +0.111 A 
ATOM     24  N6  UNL     1      11.006   9.251  36.501  0.00  0.00    -0.263 NA
ATOM     25  C23 UNL     1      10.911  10.192  37.476  0.00  0.00    +0.111 A 
ATOM     26  C24 UNL     1      11.821  11.251  37.520  0.00  0.00    +0.028 A 
ENDBRANCH  14  21
ENDBRANCH   7  11
BRANCH   1  30
ATOM     27  C8  UNL     1      21.208  11.548  30.296  0.00  0.00    +0.034 A 
ATOM     28  C9  UNL     1      22.000  10.508  30.810  0.00  0.00    +0.024 A 
ATOM     29  C10 UNL     1      21.789  10.031  32.108  0.00  0.00    +0.012 A 
ATOM     30  C11 UNL     1      20.792  10.597  32.924  0.00  0.00    +0.000 A 
ATOM     31  C29 UNL     1      20.010  11.646  32.408  0.00  0.00    +0.012 A 
ATOM     32  C30 UNL     1      20.223  12.122  31.111  0.00  0.00    +0.024 A 
BRANCH  27  35
ATOM     33  C7  UNL     1      22.165  13.265  28.696  0.00  0.00    +0.248 C 
ATOM     34  O1  UNL     1      23.014  13.675  29.534  0.00  0.00    -0.270 OA
ATOM     35  N2  UNL     1      21.418  12.068  28.971  0.00  0.00    -0.282 N 
ATOM     36  H9  UNL     1      21.106  11.483  28.164  0.00  0.00    +0.155 HD
BRANCH  33  40
ATOM     37  C3  UNL     1      21.674  15.407  24.975  0.00  0.00    +0.029 A 
ATOM     38  C4  UNL     1      22.896  15.439  25.678  0.00  0.00    +0.024 A 
ATOM     39  C5  UNL     1      23.049  14.748  26.883  0.00  0.00    +0.015 A 
ATOM     40  C6  UNL     1      21.992  13.996  27.417  0.00  0.00    +0.037 A 
ATOM     41  C31 UNL     1      20.768  13.968  26.726  0.00  0.00    +0.015 A 
ATOM     42  C32 UNL     1      20.612  14.663  25.524  0.00  0.00    +0.024 A 
BRANCH  37  44
ATOM     43  C1  UNL     1      20.231  16.754  23.379  0.00  0.00    +0.129 C 
ATOM     44  N1  UNL     1      21.514  16.127  23.722  0.00  0.00    -0.336 N 
ATOM     45  C2  UNL     1      22.633  16.244  22.777  0.00  0.00    +0.129 C 
ENDBRANCH  37  44
ENDBRANCH  33  40
ENDBRANCH  27  35
ENDBRANCH   1  30
TORSDOF 6
ENDMDL
MODEL 4
REMARK VINA RESULT:    -8.429      8.374     13.848
REMARK INTER + INTRA:         -12.811
REMARK INTER:                 -11.807
REMARK INTRA:                  -1.004
REMARK UNBOUND:                -1.425
REMARK  Name = /home/qwerty/github/datacon2025hack/step_04_hit_selection/docking/ligands/lig_13.pdb
REMARK  8 active torsions:
REMARK  status: ('A' for Active; 'I' for Inactive)
REMARK    1  A    between atoms: C1_1  and  N1_2
REMARK    2  A    between atoms: N1_2  and  C2_3
REMARK    3  A    between atoms: N1_2  and  C3_4
REMARK    4  A    between atoms: C6_7  and  C7_8
REMARK    5  A    between atoms: N2_10  and  C8_11
REMARK    6  A    between atoms: C11_14  and  C12_15
REMARK    7  A    between atoms: C16_21  and  C17_22
REMARK    8  A    between atoms: C19_25  and  C20_26
REMARK                            x       y       z     vdW  Elec       q    Type
REMARK                         _______ _______ _______ _____ _____    ______ ____
ROOT
ATOM      1  C12 UNL     1      16.067   4.836  19.989  0.00  0.00    +0.072 A 
ATOM      2  C13 UNL     1      16.846   3.640  19.986  0.00  0.00    +0.030 A 
ATOM      3  C14 UNL     1      16.222   2.390  20.176  0.00  0.00    +0.031 A 
ATOM      4  C15 UNL     1      14.847   2.392  20.368  0.00  0.00    +0.085 A 
ATOM      5  N3  UNL     1      14.009   1.360  20.560  0.00  0.00    -0.275 N 
ATOM      6  N4  UNL     1      12.774   1.840  20.688  0.00  0.00    -0.168 NA
ATOM      7  C16 UNL     1      12.831   3.191  20.578  0.00  0.00    +0.153 A 
ATOM      8  C28 UNL     1      14.142   3.547  20.376  0.00  0.00    +0.120 A 
ATOM      9  N9  UNL     1      14.715   4.760  20.193  0.00  0.00    -0.243 NA
ATOM     10  H14 UNL     1      14.260   0.346  20.601  0.00  0.00    +0.189 HD
ENDROOT
BRANCH   7  11
ATOM     11  C17 UNL     1      11.673   4.090  20.657  0.00  0.00    +0.162 A 
ATOM     12  N5  UNL     1      11.793   5.442  20.716  0.00  0.00    -0.225 NA
ATOM     13  C18 UNL     1      10.514   5.858  20.769  0.00  0.00    +0.100 A 
ATOM     14  C19 UNL     1      10.032   7.172  20.813  0.00  0.00    +0.028 A 
ATOM     15  C25 UNL     1       8.624   7.322  20.804  0.00  0.00    +0.121 A 
ATOM     16  N7  UNL     1       7.804   6.223  20.764  0.00  0.00    -0.260 NA
ATOM     17  C26 UNL     1       8.296   4.951  20.729  0.00  0.00    +0.138 A 
ATOM     18  C27 UNL     1       9.675   4.789  20.730  0.00  0.00    +0.085 A 
ATOM     19  N8  UNL     1      10.388   3.659  20.663  0.00  0.00    -0.335 N 
ATOM     20  H21 UNL     1      10.033   2.678  20.606  0.00  0.00    +0.167 HD
BRANCH  14  21
ATOM     21  C20 UNL     1      10.938   8.346  20.865  0.00  0.00    -0.011 A 
ATOM     22  C21 UNL     1      10.919   9.306  19.840  0.00  0.00    +0.028 A 
ATOM     23  C22 UNL     1      11.776  10.407  19.908  0.00  0.00    +0.111 A 
ATOM     24  N6  UNL     1      12.617  10.553  20.966  0.00  0.00    -0.263 NA
ATOM     25  C23 UNL     1      12.654   9.646  21.976  0.00  0.00    +0.111 A 
ATOM     26  C24 UNL     1      11.819   8.526  21.945  0.00  0.00    +0.028 A 
ENDBRANCH  14  21
ENDBRANCH   7  11
BRANCH   1  30
ATOM     27  C8  UNL     1      17.934   8.675  19.389  0.00  0.00    +0.034 A 
ATOM     28  C9  UNL     1      17.185   8.430  20.551  0.00  0.00    +0.024 A 
ATOM     29  C10 UNL     1      16.574   7.187  20.751  0.00  0.00    +0.012 A 
ATOM     30  C11 UNL     1      16.686   6.171  19.784  0.00  0.00    +0.000 A 
ATOM     31  C29 UNL     1      17.428   6.426  18.617  0.00  0.00    +0.012 A 
ATOM     32  C30 UNL     1      18.037   7.669  18.418  0.00  0.00    +0.024 A 
BRANCH  27  35
ATOM     33  C7  UNL     1      19.975  10.170  19.235  0.00  0.00    +0.248 C 
ATOM     34  O1  UNL     1      20.765   9.196  19.104  0.00  0.00    -0.270 OA
ATOM     35  N2  UNL     1      18.556   9.950  19.151  0.00  0.00    -0.282 N 
ATOM     36  H9  UNL     1      17.957  10.725  18.789  0.00  0.00    +0.155 HD
BRANCH  33  40
ATOM     37  C3  UNL     1      21.594  14.138  19.794  0.00  0.00    +0.029 A 
ATOM     38  C4  UNL     1      22.363  12.991  20.076  0.00  0.00    +0.024 A 
ATOM     39  C5  UNL     1      21.834  11.710  19.898  0.00  0.00    +0.015 A 
ATOM     40  C6  UNL     1      20.525  11.535  19.423  0.00  0.00    +0.037 A 
ATOM     41  C31 UNL     1      19.750  12.674  19.149  0.00  0.00    +0.015 A 
ATOM     42  C32 UNL     1      20.275  13.956  19.332  0.00  0.00    +0.024 A 
BRANCH  37  44
ATOM     43  C1  UNL     1      22.228  16.064  21.321  0.00  0.00    +0.129 C 
ATOM     44  N1  UNL     1      22.143  15.471  19.981  0.00  0.00    -0.336 N 
ATOM     45  C2  UNL     1      22.626  16.249  18.832  0.00  0.00    +0.129 C 
ENDBRANCH  37  44
ENDBRANCH  33  40
ENDBRANCH  27  35
ENDBRANCH   1  30
TORSDOF 6
ENDMDL
MODEL 5
REMARK VINA RESULT:    -8.348      8.340     12.954
REMARK INTER + INTRA:         -12.702
REMARK INTER:                 -11.364
REMARK INTRA:                  -1.338
REMARK UNBOUND:                -1.425
REMARK  Name = /home/qwerty/github/datacon2025hack/step_04_hit_selection/docking/ligands/lig_13.pdb
REMARK  8 active torsions:
REMARK  status: ('A' for Active; 'I' for Inactive)
REMARK    1  A    between atoms: C1_1  and  N1_2
REMARK    2  A    between atoms: N1_2  and  C2_3
REMARK    3  A    between atoms: N1_2  and  C3_4
REMARK    4  A    between atoms: C6_7  and  C7_8
REMARK    5  A    between atoms: N2_10  and  C8_11
REMARK    6  A    between atoms: C11_14  and  C12_15
REMARK    7  A    between atoms: C16_21  and  C17_22
REMARK    8  A    between atoms: C19_25  and  C20_26
REMARK                            x       y       z     vdW  Elec       q    Type
REMARK                         _______ _______ _______ _____ _____    ______ ____
ROOT
ATOM      1  C12 UNL     1      18.506  12.634  34.165  0.00  0.00    +0.072 A 
ATOM      2  C13 UNL     1      17.321  13.272  34.639  0.00  0.00    +0.030 A 
ATOM      3  C14 UNL     1      16.706  12.826  35.826  0.00  0.00    +0.031 A 
ATOM      4  C15 UNL     1      17.297  11.757  36.483  0.00  0.00    +0.085 A 
ATOM      5  N3  UNL     1      16.934  11.145  37.622  0.00  0.00    -0.275 N 
ATOM      6  N4  UNL     1      17.807  10.172  37.875  0.00  0.00    -0.168 NA
ATOM      7  C16 UNL     1      18.734  10.166  36.883  0.00  0.00    +0.153 A 
ATOM      8  C28 UNL     1      18.416  11.168  35.997  0.00  0.00    +0.120 A 
ATOM      9  N9  UNL     1      19.029  11.577  34.863  0.00  0.00    -0.243 NA
ATOM     10  H14 UNL     1      16.113  11.378  38.226  0.00  0.00    +0.189 HD
ENDROOT
BRANCH   7  11
ATOM     11  C17 UNL     1      19.872   9.244  36.802  0.00  0.00    +0.162 A 
ATOM     12  N5  UNL     1      20.550   9.010  35.647  0.00  0.00    -0.225 NA
ATOM     13  C18 UNL     1      21.494   8.127  36.023  0.00  0.00    +0.100 A 
ATOM     14  C19 UNL     1      22.504   7.555  35.242  0.00  0.00    +0.028 A 
ATOM     15  C25 UNL     1      23.405   6.695  35.916  0.00  0.00    +0.121 A 
ATOM     16  N7  UNL     1      23.264   6.448  37.258  0.00  0.00    -0.260 NA
ATOM     17  C26 UNL     1      22.268   7.013  37.999  0.00  0.00    +0.138 A 
ATOM     18  C27 UNL     1      21.382   7.863  37.353  0.00  0.00    +0.085 A 
ATOM     19  N8  UNL     1      20.358   8.556  37.865  0.00  0.00    -0.335 N 
ATOM     20  H21 UNL     1      20.029   8.578  38.856  0.00  0.00    +0.167 HD
BRANCH  14  21
ATOM     21  C20 UNL     1      22.632   7.828  33.789  0.00  0.00    -0.011 A 
ATOM     22  C21 UNL     1      23.299   8.979  33.337  0.00  0.00    +0.028 A 
ATOM     23  C22 UNL     1      23.413   9.217  31.965  0.00  0.00    +0.111 A 
ATOM     24  N6  UNL     1      22.889   8.336  31.073  0.00  0.00    -0.263 NA
ATOM     25  C23 UNL     1      22.244   7.211  31.479  0.00  0.00    +0.111 A 
ATOM     26  C24 UNL     1      22.101   6.937  32.841  0.00  0.00    +0.028 A 
ENDBRANCH  14  21
ENDBRANCH   7  11
BRANCH   1  30
ATOM     27  C8  UNL     1      20.418  13.951  30.532  0.00  0.00    +0.034 A 
ATOM     28  C9  UNL     1      20.506  12.607  30.927  0.00  0.00    +0.024 A 
ATOM     29  C10 UNL     1      19.891  12.172  32.106  0.00  0.00    +0.012 A 
ATOM     30  C11 UNL     1      19.188  13.079  32.922  0.00  0.00    +0.000 A 
ATOM     31  C29 UNL     1      19.113  14.426  32.527  0.00  0.00    +0.012 A 
ATOM     32  C30 UNL     1      19.730  14.859  31.349  0.00  0.00    +0.024 A 
BRANCH  27  35
ATOM     33  C7  UNL     1      20.635  14.060  28.009  0.00  0.00    +0.248 C 
ATOM     34  O1  UNL     1      19.454  13.659  27.821  0.00  0.00    -0.270 OA
ATOM     35  N2  UNL     1      21.057  14.426  29.334  0.00  0.00    -0.282 N 
ATOM     36  H9  UNL     1      21.792  15.162  29.433  0.00  0.00    +0.155 HD
BRANCH  33  40
ATOM     37  C3  UNL     1      23.310  14.475  24.641  0.00  0.00    +0.029 A 
ATOM     38  C4  UNL     1      23.423  15.313  25.769  0.00  0.00    +0.024 A 
ATOM     39  C5  UNL     1      22.554  15.178  26.854  0.00  0.00    +0.015 A 
ATOM     40  C6  UNL     1      21.552  14.196  26.851  0.00  0.00    +0.037 A 
ATOM     41  C31 UNL     1      21.427  13.363  25.726  0.00  0.00    +0.015 A 
ATOM     42  C32 UNL     1      22.293  13.501  24.638  0.00  0.00    +0.024 A 
BRANCH  37  44
ATOM     43  C1  UNL     1      24.392  13.516  22.554  0.00  0.00    +0.129 C 
ATOM     44  N1  UNL     1      24.214  14.616  23.511  0.00  0.00    -0.336 N 
ATOM     45  C2  UNL     1      24.964  15.861  23.302  0.00  0.00    +0.129 C 
ENDBRANCH  37  44
ENDBRANCH  33  40
ENDBRANCH  27  35
ENDBRANCH   1  30
TORSDOF 6
ENDMDL
MODEL 6
REMARK VINA RESULT:    -8.148     13.305     16.140
REMARK INTER + INTRA:         -12.431
REMARK INTER:                 -11.322
REMARK INTRA:                  -1.109
REMARK UNBOUND:                -1.425
REMARK  Name = /home/qwerty/github/datacon2025hack/step_04_hit_selection/docking/ligands/lig_13.pdb
REMARK  8 active torsions:
REMARK  status: ('A' for Active; 'I' for Inactive)
REMARK    1  A    between atoms: C1_1  and  N1_2
REMARK    2  A    between atoms: N1_2  and  C2_3
REMARK    3  A    between atoms: N1_2  and  C3_4
REMARK    4  A    between atoms: C6_7  and  C7_8
REMARK    5  A    between atoms: N2_10  and  C8_11
REMARK    6  A    between atoms: C11_14  and  C12_15
REMARK    7  A    between atoms: C16_21  and  C17_22
REMARK    8  A    between atoms: C19_25  and  C20_26
REMARK                            x       y       z     vdW  Elec       q    Type
REMARK                         _______ _______ _______ _____ _____    ______ ____
ROOT
ATOM      1  C12 UNL     1      17.002   6.713  37.520  0.00  0.00    +0.072 A 
ATOM      2  C13 UNL     1      18.289   6.125  37.703  0.00  0.00    +0.030 A 
ATOM      3  C14 UNL     1      19.441   6.937  37.724  0.00  0.00    +0.031 A 
ATOM      4  C15 UNL     1      19.256   8.302  37.554  0.00  0.00    +0.085 A 
ATOM      5  N3  UNL     1      20.163   9.293  37.542  0.00  0.00    -0.275 N 
ATOM      6  N4  UNL     1      19.523  10.445  37.357  0.00  0.00    -0.168 NA
ATOM      7  C16 UNL     1      18.196  10.181  37.248  0.00  0.00    +0.153 A 
ATOM      8  C28 UNL     1      18.021   8.824  37.372  0.00  0.00    +0.120 A 
ATOM      9  N9  UNL     1      16.898   8.069  37.350  0.00  0.00    -0.243 NA
ATOM     10  H14 UNL     1      21.197   9.200  37.661  0.00  0.00    +0.189 HD
ENDROOT
BRANCH   7  11
ATOM     11  C17 UNL     1      17.152  11.193  37.043  0.00  0.00    +0.162 A 
ATOM     12  N5  UNL     1      15.832  10.881  36.955  0.00  0.00    -0.225 NA
ATOM     13  C18 UNL     1      15.249  12.081  36.779  0.00  0.00    +0.100 A 
ATOM     14  C19 UNL     1      13.884  12.370  36.655  0.00  0.00    +0.028 A 
ATOM     15  C25 UNL     1      13.544  13.739  36.538  0.00  0.00    +0.121 A 
ATOM     16  N7  UNL     1      14.518  14.705  36.539  0.00  0.00    -0.260 NA
ATOM     17  C26 UNL     1      15.843  14.399  36.655  0.00  0.00    +0.138 A 
ATOM     18  C27 UNL     1      16.191  13.061  36.778  0.00  0.00    +0.085 A 
ATOM     19  N8  UNL     1      17.404  12.521  36.939  0.00  0.00    -0.335 N 
ATOM     20  H21 UNL     1      18.324  13.012  36.995  0.00  0.00    +0.167 HD
BRANCH  14  21
ATOM     21  C20 UNL     1      12.848  11.308  36.645  0.00  0.00    -0.011 A 
ATOM     22  C21 UNL     1      11.783  11.346  37.560  0.00  0.00    +0.028 A 
ATOM     23  C22 UNL     1      10.813  10.340  37.534  0.00  0.00    +0.111 A 
ATOM     24  N6  UNL     1      10.896   9.336  36.622  0.00  0.00    -0.263 NA
ATOM     25  C23 UNL     1      11.911   9.275  35.721  0.00  0.00    +0.111 A 
ATOM     26  C24 UNL     1      12.905  10.256  35.716  0.00  0.00    +0.028 A 
ENDBRANCH  14  21
ENDBRANCH   7  11
BRANCH   1  30
ATOM     27  C8  UNL     1      13.369   4.393  37.436  0.00  0.00    +0.034 A 
ATOM     28  C9  UNL     1      14.116   4.492  38.622  0.00  0.00    +0.024 A 
ATOM     29  C10 UNL     1      15.297   5.240  38.656  0.00  0.00    +0.012 A 
ATOM     30  C11 UNL     1      15.764   5.892  37.499  0.00  0.00    +0.000 A 
ATOM     31  C29 UNL     1      15.018   5.781  36.312  0.00  0.00    +0.012 A 
ATOM     32  C30 UNL     1      13.839   5.031  36.280  0.00  0.00    +0.024 A 
BRANCH  27  35
ATOM     33  C7  UNL     1      12.124   2.238  36.959  0.00  0.00    +0.248 C 
ATOM     34  O1  UNL     1      13.168   1.535  37.043  0.00  0.00    -0.270 OA
ATOM     35  N2  UNL     1      12.161   3.615  37.371  0.00  0.00    -0.282 N 
ATOM     36  H9  UNL     1      11.286   4.041  37.750  0.00  0.00    +0.155 HD
BRANCH  33  40
ATOM     37  C3  UNL     1       8.460   0.414  35.570  0.00  0.00    +0.029 A 
ATOM     38  C4  UNL     1       9.678  -0.297  35.561  0.00  0.00    +0.024 A 
ATOM     39  C5  UNL     1      10.860   0.298  36.006  0.00  0.00    +0.015 A 
ATOM     40  C6  UNL     1      10.863   1.617  36.486  0.00  0.00    +0.037 A 
ATOM     41  C31 UNL     1       9.655   2.335  36.490  0.00  0.00    +0.015 A 
ATOM     42  C32 UNL     1       8.472   1.743  36.039  0.00  0.00    +0.024 A 
BRANCH  37  44
ATOM     43  C1  UNL     1       6.875  -0.183  33.681  0.00  0.00    +0.129 C 
ATOM     44  N1  UNL     1       7.229  -0.204  35.105  0.00  0.00    -0.336 N 
ATOM     45  C2  UNL     1       6.319  -0.863  36.050  0.00  0.00    +0.129 C 
ENDBRANCH  37  44
ENDBRANCH  33  40
ENDBRANCH  27  35
ENDBRANCH   1  30
TORSDOF 6
ENDMDL
MODEL 7
REMARK VINA RESULT:    -8.077      8.974     15.109
REMARK INTER + INTRA:         -12.335
REMARK INTER:                 -11.094
REMARK INTRA:                  -1.241
REMARK UNBOUND:                -1.425
REMARK  Name = /home/qwerty/github/datacon2025hack/step_04_hit_selection/docking/ligands/lig_13.pdb
REMARK  8 active torsions:
REMARK  status: ('A' for Active; 'I' for Inactive)
REMARK    1  A    between atoms: C1_1  and  N1_2
REMARK    2  A    between atoms: N1_2  and  C2_3
REMARK    3  A    between atoms: N1_2  and  C3_4
REMARK    4  A    between atoms: C6_7  and  C7_8
REMARK    5  A    between atoms: N2_10  and  C8_11
REMARK    6  A    between atoms: C11_14  and  C12_15
REMARK    7  A    between atoms: C16_21  and  C17_22
REMARK    8  A    between atoms: C19_25  and  C20_26
REMARK                            x       y       z     vdW  Elec       q    Type
REMARK                         _______ _______ _______ _____ _____    ______ ____
ROOT
ATOM      1  C12 UNL     1      15.626   3.565  20.854  0.00  0.00    +0.072 A 
ATOM      2  C13 UNL     1      16.434   2.403  21.038  0.00  0.00    +0.030 A 
ATOM      3  C14 UNL     1      15.848   1.194  21.461  0.00  0.00    +0.031 A 
ATOM      4  C15 UNL     1      14.479   1.200  21.690  0.00  0.00    +0.085 A 
ATOM      5  N3  UNL     1      13.672   0.201  22.084  0.00  0.00    -0.275 N 
ATOM      6  N4  UNL     1      12.429   0.670  22.162  0.00  0.00    -0.168 NA
ATOM      7  C16 UNL     1      12.448   1.982  21.816  0.00  0.00    +0.153 A 
ATOM      8  C28 UNL     1      13.745   2.325  21.517  0.00  0.00    +0.120 A 
ATOM      9  N9  UNL     1      14.282   3.498  21.108  0.00  0.00    -0.243 NA
ATOM     10  H14 UNL     1      13.950  -0.784  22.293  0.00  0.00    +0.189 HD
ENDROOT
BRANCH   7  11
ATOM     11  C17 UNL     1      11.270   2.857  21.770  0.00  0.00    +0.162 A 
ATOM     12  N5  UNL     1      10.474   3.077  22.849  0.00  0.00    -0.225 NA
ATOM     13  C18 UNL     1       9.543   3.924  22.371  0.00  0.00    +0.100 A 
ATOM     14  C19 UNL     1       8.476   4.514  23.058  0.00  0.00    +0.028 A 
ATOM     15  C25 UNL     1       7.680   5.420  22.317  0.00  0.00    +0.121 A 
ATOM     16  N7  UNL     1       7.958   5.678  20.998  0.00  0.00    -0.260 NA
ATOM     17  C26 UNL     1       9.000   5.086  20.347  0.00  0.00    +0.138 A 
ATOM     18  C27 UNL     1       9.793   4.201  21.064  0.00  0.00    +0.085 A 
ATOM     19  N8  UNL     1      10.880   3.532  20.661  0.00  0.00    -0.335 N 
ATOM     20  H21 UNL     1      11.331   3.547  19.719  0.00  0.00    +0.167 HD
BRANCH  14  21
ATOM     21  C20 UNL     1       8.188   4.214  24.482  0.00  0.00    -0.011 A 
ATOM     22  C21 UNL     1       7.847   2.910  24.880  0.00  0.00    +0.028 A 
ATOM     23  C22 UNL     1       7.583   2.645  26.226  0.00  0.00    +0.111 A 
ATOM     24  N6  UNL     1       7.666   3.641  27.147  0.00  0.00    -0.263 NA
ATOM     25  C23 UNL     1       8.000   4.910  26.795  0.00  0.00    +0.111 A 
ATOM     26  C24 UNL     1       8.265   5.221  25.460  0.00  0.00    +0.028 A 
ENDBRANCH  14  21
ENDBRANCH   7  11
BRANCH   1  30
ATOM     27  C8  UNL     1      17.238   7.342  19.543  0.00  0.00    +0.034 A 
ATOM     28  C9  UNL     1      17.430   6.187  18.768  0.00  0.00    +0.024 A 
ATOM     29  C10 UNL     1      16.913   4.957  19.189  0.00  0.00    +0.012 A 
ATOM     30  C11 UNL     1      16.206   4.855  20.402  0.00  0.00    +0.000 A 
ATOM     31  C29 UNL     1      16.026   6.014  21.179  0.00  0.00    +0.012 A 
ATOM     32  C30 UNL     1      16.545   7.242  20.758  0.00  0.00    +0.024 A 
BRANCH  27  35
ATOM     33  C7  UNL     1      19.145   8.999  19.345  0.00  0.00    +0.248 C 
ATOM     34  O1  UNL     1      20.026   8.108  19.493  0.00  0.00    -0.270 OA
ATOM     35  N2  UNL     1      17.775   8.615  19.141  0.00  0.00    -0.282 N 
ATOM     36  H9  UNL     1      17.165   9.243  18.572  0.00  0.00    +0.155 HD
BRANCH  33  40
ATOM     37  C3  UNL     1      20.338  13.153  19.306  0.00  0.00    +0.029 A 
ATOM     38  C4  UNL     1      21.160  12.153  18.748  0.00  0.00    +0.024 A 
ATOM     39  C5  UNL     1      20.773  10.811  18.766  0.00  0.00    +0.015 A 
ATOM     40  C6  UNL     1      19.548  10.426  19.332  0.00  0.00    +0.037 A 
ATOM     41  C31 UNL     1      18.727  11.417  19.899  0.00  0.00    +0.015 A 
ATOM     42  C32 UNL     1      19.116  12.759  19.886  0.00  0.00    +0.024 A 
BRANCH  37  44
ATOM     43  C1  UNL     1      21.826  15.003  18.409  0.00  0.00    +0.129 C 
ATOM     44  N1  UNL     1      20.741  14.550  19.288  0.00  0.00    -0.336 N 
ATOM     45  C2  UNL     1      20.068  15.534  20.146  0.00  0.00    +0.129 C 
ENDBRANCH  37  44
ENDBRANCH  33  40
ENDBRANCH  27  35
ENDBRANCH   1  30
TORSDOF 6
ENDMDL
MODEL 8
REMARK VINA RESULT:    -8.047     14.259     16.084
REMARK INTER + INTRA:         -12.294
REMARK INTER:                 -11.040
REMARK INTRA:                  -1.254
REMARK UNBOUND:                -1.425
REMARK  Name = /home/qwerty/github/datacon2025hack/step_04_hit_selection/docking/ligands/lig_13.pdb
REMARK  8 active torsions:
REMARK  status: ('A' for Active; 'I' for Inactive)
REMARK    1  A    between atoms: C1_1  and  N1_2
REMARK    2  A    between atoms: N1_2  and  C2_3
REMARK    3  A    between atoms: N1_2  and  C3_4
REMARK    4  A    between atoms: C6_7  and  C7_8
REMARK    5  A    between atoms: N2_10  and  C8_11
REMARK    6  A    between atoms: C11_14  and  C12_15
REMARK    7  A    between atoms: C16_21  and  C17_22
REMARK    8  A    between atoms: C19_25  and  C20_26
REMARK                            x       y       z     vdW  Elec       q    Type
REMARK                         _______ _______ _______ _____ _____    ______ ____
ROOT
ATOM      1  C12 UNL     1       9.710   2.096  24.034  0.00  0.00    +0.072 A 
ATOM      2  C13 UNL     1       8.830   3.051  23.443  0.00  0.00    +0.030 A 
ATOM      3  C14 UNL     1       9.162   3.653  22.213  0.00  0.00    +0.031 A 
ATOM      4  C15 UNL     1      10.365   3.278  21.630  0.00  0.00    +0.085 A 
ATOM      5  N3  UNL     1      10.916   3.679  20.472  0.00  0.00    -0.275 N 
ATOM      6  N4  UNL     1      12.075   3.043  20.316  0.00  0.00    -0.168 NA
ATOM      7  C16 UNL     1      12.261   2.232  21.388  0.00  0.00    +0.153 A 
ATOM      8  C28 UNL     1      11.181   2.377  22.225  0.00  0.00    +0.120 A 
ATOM      9  N9  UNL     1      10.885   1.782  23.404  0.00  0.00    -0.243 NA
ATOM     10  H14 UNL     1      10.519   4.367  19.793  0.00  0.00    +0.189 HD
ENDROOT
BRANCH   7  11
ATOM     11  C17 UNL     1      13.422   1.356  21.587  0.00  0.00    +0.162 A 
ATOM     12  N5  UNL     1      13.643   0.677  22.743  0.00  0.00    -0.225 NA
ATOM     13  C18 UNL     1      14.785   0.011  22.491  0.00  0.00    +0.100 A 
ATOM     14  C19 UNL     1      15.471  -0.878  23.327  0.00  0.00    +0.028 A 
ATOM     15  C25 UNL     1      16.626  -1.486  22.778  0.00  0.00    +0.121 A 
ATOM     16  N7  UNL     1      17.031  -1.193  21.501  0.00  0.00    -0.260 NA
ATOM     17  C26 UNL     1      16.349  -0.318  20.706  0.00  0.00    +0.138 A 
ATOM     18  C27 UNL     1      15.211   0.280  21.228  0.00  0.00    +0.085 A 
ATOM     19  N8  UNL     1      14.365   1.133  20.639  0.00  0.00    -0.335 N 
ATOM     20  H21 UNL     1      14.412   1.517  19.669  0.00  0.00    +0.167 HD
BRANCH  14  21
ATOM     21  C20 UNL     1      15.021  -1.172  24.709  0.00  0.00    -0.011 A 
ATOM     22  C21 UNL     1      15.078  -0.181  25.703  0.00  0.00    +0.028 A 
ATOM     23  C22 UNL     1      14.645  -0.475  26.999  0.00  0.00    +0.111 A 
ATOM     24  N6  UNL     1      14.164  -1.712  27.293  0.00  0.00    -0.263 NA
ATOM     25  C23 UNL     1      14.090  -2.690  26.353  0.00  0.00    +0.111 A 
ATOM     26  C24 UNL     1      14.518  -2.441  25.047  0.00  0.00    +0.028 A 
ENDBRANCH  14  21
ENDBRANCH   7  11
BRANCH   1  30
ATOM     27  C8  UNL     1       8.849   0.132  27.774  0.00  0.00    +0.034 A 
ATOM     28  C9  UNL     1       7.887   0.153  26.751  0.00  0.00    +0.024 A 
ATOM     29  C10 UNL     1       8.158   0.791  25.536  0.00  0.00    +0.012 A 
ATOM     30  C11 UNL     1       9.392   1.435  25.326  0.00  0.00    +0.000 A 
ATOM     31  C29 UNL     1      10.346   1.421  26.358  0.00  0.00    +0.012 A 
ATOM     32  C30 UNL     1      10.073   0.784  27.573  0.00  0.00    +0.024 A 
BRANCH  27  35
ATOM     33  C7  UNL     1       8.286   0.224  30.243  0.00  0.00    +0.248 C 
ATOM     34  O1  UNL     1       7.827   1.396  30.166  0.00  0.00    -0.270 OA
ATOM     35  N2  UNL     1       8.587  -0.501  29.038  0.00  0.00    -0.282 N 
ATOM     36  H9  UNL     1       8.500  -1.542  29.053  0.00  0.00    +0.155 HD
BRANCH  33  40
ATOM     37  C3  UNL     1       8.793  -1.590  34.133  0.00  0.00    +0.029 A 
ATOM     38  C4  UNL     1       8.398  -0.243  34.003  0.00  0.00    +0.024 A 
ATOM     39  C5  UNL     1       8.239   0.341  32.744  0.00  0.00    +0.015 A 
ATOM     40  C6  UNL     1       8.459  -0.405  31.576  0.00  0.00    +0.037 A 
ATOM     41  C31 UNL     1       8.863  -1.746  31.698  0.00  0.00    +0.015 A 
ATOM     42  C32 UNL     1       9.027  -2.329  32.957  0.00  0.00    +0.024 A 
BRANCH  37  44
ATOM     43  C1  UNL     1      10.167  -1.941  36.239  0.00  0.00    +0.129 C 
ATOM     44  N1  UNL     1       8.959  -2.198  35.444  0.00  0.00    -0.336 N 
ATOM     45  C2  UNL     1       7.922  -3.076  35.999  0.00  0.00    +0.129 C 
ENDBRANCH  37  44
ENDBRANCH  33  40
ENDBRANCH  27  35
ENDBRANCH   1  30
TORSDOF 6
ENDMDL
MODEL 9
REMARK VINA RESULT:    -7.925     10.610     13.727
REMARK INTER + INTRA:         -12.130
REMARK INTER:                 -10.697
REMARK INTRA:                  -1.433
REMARK UNBOUND:                -1.425
REMARK  Name = /home/qwerty/github/datacon2025hack/step_04_hit_selection/docking/ligands/lig_13.pdb
REMARK  8 active torsions:
REMARK  status: ('A' for Active; 'I' for Inactive)
REMARK    1  A    between atoms: C1_1  and  N1_2
REMARK    2  A    between atoms: N1_2  and  C2_3
REMARK    3  A    between atoms: N1_2  and  C3_4
REMARK    4  A    between atoms: C6_7  and  C7_8
REMARK    5  A    between atoms: N2_10  and  C8_11
REMARK    6  A    between atoms: C11_14  and  C12_15
REMARK    7  A    between atoms: C16_21  and  C17_22
REMARK    8  A    between atoms: C19_25  and  C20_26
REMARK                            x       y       z     vdW  Elec       q    Type
REMARK                         _______ _______ _______ _____ _____    ______ ____
ROOT
ATOM      1  C12 UNL     1      17.738  -0.173  25.067  0.00  0.00    +0.072 A 
ATOM      2  C13 UNL     1      17.476  -1.575  25.028  0.00  0.00    +0.030 A 
ATOM      3  C14 UNL     1      16.878  -2.151  23.889  0.00  0.00    +0.031 A 
ATOM      4  C15 UNL     1      16.562  -1.298  22.841  0.00  0.00    +0.085 A 
ATOM      5  N3  UNL     1      16.004  -1.575  21.651  0.00  0.00    -0.275 N 
ATOM      6  N4  UNL     1      15.899  -0.441  20.962  0.00  0.00    -0.168 NA
ATOM      7  C16 UNL     1      16.393   0.566  21.725  0.00  0.00    +0.153 A 
ATOM      8  C28 UNL     1      16.815   0.030  22.917  0.00  0.00    +0.120 A 
ATOM      9  N9  UNL     1      17.390   0.608  23.997  0.00  0.00    -0.243 NA
ATOM     10  H14 UNL     1      15.702  -2.513  21.302  0.00  0.00    +0.189 HD
ENDROOT
BRANCH   7  11
ATOM     11  C17 UNL     1      16.461   1.975  21.316  0.00  0.00    +0.162 A 
ATOM     12  N5  UNL     1      17.440   2.817  21.738  0.00  0.00    -0.225 NA
ATOM     13  C18 UNL     1      17.126   3.976  21.130  0.00  0.00    +0.100 A 
ATOM     14  C19 UNL     1      17.812   5.195  21.181  0.00  0.00    +0.028 A 
ATOM     15  C25 UNL     1      17.285   6.243  20.388  0.00  0.00    +0.121 A 
ATOM     16  N7  UNL     1      16.158   6.049  19.631  0.00  0.00    -0.260 NA
ATOM     17  C26 UNL     1      15.501   4.853  19.602  0.00  0.00    +0.138 A 
ATOM     18  C27 UNL     1      16.011   3.815  20.368  0.00  0.00    +0.085 A 
ATOM     19  N8  UNL     1      15.570   2.555  20.475  0.00  0.00    -0.335 N 
ATOM     20  H21 UNL     1      14.747   2.120  20.002  0.00  0.00    +0.167 HD
BRANCH  14  21
ATOM     21  C20 UNL     1      19.025   5.386  22.014  0.00  0.00    -0.011 A 
ATOM     22  C21 UNL     1      20.292   5.044  21.516  0.00  0.00    +0.028 A 
ATOM     23  C22 UNL     1      21.424   5.235  22.313  0.00  0.00    +0.111 A 
ATOM     24  N6  UNL     1      21.298   5.757  23.562  0.00  0.00    -0.263 NA
ATOM     25  C23 UNL     1      20.086   6.103  24.070  0.00  0.00    +0.111 A 
ATOM     26  C24 UNL     1      18.929   5.923  23.309  0.00  0.00    +0.028 A 
ENDBRANCH  14  21
ENDBRANCH   7  11
BRANCH   1  30
ATOM     27  C8  UNL     1      19.531   1.754  28.482  0.00  0.00    +0.034 A 
ATOM     28  C9  UNL     1      20.321   1.401  27.376  0.00  0.00    +0.024 A 
ATOM     29  C10 UNL     1      19.747   0.774  26.266  0.00  0.00    +0.012 A 
ATOM     30  C11 UNL     1      18.372   0.471  26.246  0.00  0.00    +0.000 A 
ATOM     31  C29 UNL     1      17.588   0.816  27.362  0.00  0.00    +0.012 A 
ATOM     32  C30 UNL     1      18.164   1.443  28.471  0.00  0.00    +0.024 A 
BRANCH  27  35
ATOM     33  C7  UNL     1      20.344   3.798  29.741  0.00  0.00    +0.248 C 
ATOM     34  O1  UNL     1      19.696   4.594  29.007  0.00  0.00    -0.270 OA
ATOM     35  N2  UNL     1      20.101   2.384  29.642  0.00  0.00    -0.282 N 
ATOM     36  H9  UNL     1      20.239   1.799  30.496  0.00  0.00    +0.155 HD
BRANCH  33  40
ATOM     37  C3  UNL     1      23.152   5.359  32.632  0.00  0.00    +0.029 A 
ATOM     38  C4  UNL     1      22.825   3.988  32.600  0.00  0.00    +0.024 A 
ATOM     39  C5  UNL     1      21.914   3.488  31.667  0.00  0.00    +0.015 A 
ATOM     40  C6  UNL     1      21.309   4.339  30.729  0.00  0.00    +0.037 A 
ATOM     41  C31 UNL     1      21.623   5.709  30.761  0.00  0.00    +0.015 A 
ATOM     42  C32 UNL     1      22.530   6.211  31.698  0.00  0.00    +0.024 A 
BRANCH  37  44
ATOM     43  C1  UNL     1      23.635   6.400  34.896  0.00  0.00    +0.129 C 
ATOM     44  N1  UNL     1      24.099   5.880  33.604  0.00  0.00    -0.336 N 
ATOM     45  C2  UNL     1      25.539   5.894  33.313  0.00  0.00    +0.129 C 
ENDBRANCH  37  44
ENDBRANCH  33  40
ENDBRANCH  27  35
ENDBRANCH   1  30
TORSDOF 6
ENDMDL
