MODEL 1
REMARK VINA RESULT:    -6.772      0.000      0.000
REMARK INTER + INTRA:          -7.888
REMARK INTER:                  -7.564
REMARK INTRA:                  -0.324
REMARK UNBOUND:                -0.324
REMARK  Name = /home/qwerty/github/datacon2025hack/step_04_hit_selection/docking/ligands/lig_374.pdb
REMARK  2 active torsions:
REMARK  status: ('A' for Active; 'I' for Inactive)
REMARK    1  A    between atoms: C1_2  and  C11_16
REMARK    2  A    between atoms: C3_6  and  C4_7
REMARK                            x       y       z     vdW  Elec       q    Type
REMARK                         _______ _______ _______ _____ _____    ______ ____
ROOT
ATOM      1  O1  UNL     1      15.098   1.778  19.680  0.00  0.00    -0.270 OA
ATOM      2  C1  UNL     1      14.560   1.355  20.739  0.00  0.00    +0.250 C 
ATOM      3  N1  UNL     1      13.294   1.889  21.164  0.00  0.00    -0.261 N 
ATOM      4  C2  UNL     1      12.762   3.147  20.723  0.00  0.00    +0.165 A 
ATOM      5  N2  UNL     1      11.501   3.537  21.005  0.00  0.00    -0.225 NA
ATOM      6  C3  UNL     1      11.225   4.783  20.526  0.00  0.00    +0.080 A 
ATOM      7  C10 UNL     1      12.295   5.397  19.864  0.00  0.00    +0.076 A 
ATOM      8  S1  UNL     1      13.603   4.341  19.889  0.00  0.00    -0.060 S 
ATOM      9  H1  UNL     1      12.694   1.315  21.797  0.00  0.00    +0.157 HD
ENDROOT
BRANCH   2  10
ATOM     10  C11 UNL     1      15.227   0.278  21.510  0.00  0.00    +0.041 A 
ATOM     11  C12 UNL     1      16.479  -0.237  21.074  0.00  0.00    +0.017 A 
ATOM     12  C13 UNL     1      17.129  -1.255  21.797  0.00  0.00    +0.050 A 
ATOM     13  C14 UNL     1      16.512  -1.729  22.948  0.00  0.00    +0.166 A 
ATOM     14  C15 UNL     1      15.322  -1.241  23.378  0.00  0.00    +0.167 A 
ATOM     15  C16 UNL     1      14.644  -0.235  22.694  0.00  0.00    +0.062 A 
ATOM     16  O2  UNL     1      14.953  -1.886  24.542  0.00  0.00    -0.453 OA
ATOM     17  C17 UNL     1      15.973  -2.843  24.860  0.00  0.00    +0.466 C 
ATOM     18  O3  UNL     1      16.949  -2.709  23.817  0.00  0.00    -0.453 OA
ENDBRANCH   2  10
BRANCH   6  19
ATOM     19  C4  UNL     1       9.892   5.410  20.726  0.00  0.00    +0.004 A 
ATOM     20  C5  UNL     1       8.748   4.597  20.853  0.00  0.00    +0.010 A 
ATOM     21  C6  UNL     1       7.486   5.170  21.041  0.00  0.00    +0.003 A 
ATOM     22  C7  UNL     1       7.347   6.556  21.100  0.00  0.00    +0.038 A 
ATOM     23  C8  UNL     1       8.470   7.376  20.970  0.00  0.00    +0.124 A 
ATOM     24  F1  UNL     1       8.331   8.724  21.020  0.00  0.00    -0.205 F 
ATOM     25  C9  UNL     1       9.735   6.811  20.783  0.00  0.00    +0.048 A 
ENDBRANCH   6  19
TORSDOF 2
ENDMDL
MODEL 2
REMARK VINA RESULT:    -6.655      3.912      9.229
REMARK INTER + INTRA:          -7.758
REMARK INTER:                  -7.434
REMARK INTRA:                  -0.323
REMARK UNBOUND:                -0.324
REMARK  Name = /home/qwerty/github/datacon2025hack/step_04_hit_selection/docking/ligands/lig_374.pdb
REMARK  2 active torsions:
REMARK  status: ('A' for Active; 'I' for Inactive)
REMARK    1  A    between atoms: C1_2  and  C11_16
REMARK    2  A    between atoms: C3_6  and  C4_7
REMARK                            x       y       z     vdW  Elec       q    Type
REMARK                         _______ _______ _______ _____ _____    ______ ____
ROOT
ATOM      1  O1  UNL     1      13.874   4.377  19.980  0.00  0.00    -0.270 OA
ATOM      2  C1  UNL     1      12.913   4.044  20.726  0.00  0.00    +0.250 C 
ATOM      3  N1  UNL     1      13.066   2.950  21.647  0.00  0.00    -0.261 N 
ATOM      4  C2  UNL     1      14.069   1.931  21.528  0.00  0.00    +0.165 A 
ATOM      5  N2  UNL     1      14.294   1.021  22.499  0.00  0.00    -0.225 NA
ATOM      6  C3  UNL     1      15.260   0.123  22.154  0.00  0.00    +0.080 A 
ATOM      7  C10 UNL     1      15.800   0.318  20.878  0.00  0.00    +0.076 A 
ATOM      8  S1  UNL     1      15.040   1.649  20.184  0.00  0.00    -0.060 S 
ATOM      9  H1  UNL     1      12.443   2.909  22.484  0.00  0.00    +0.157 HD
ENDROOT
BRANCH   2  10
ATOM     10  C11 UNL     1      11.649   4.817  20.667  0.00  0.00    +0.041 A 
ATOM     11  C12 UNL     1      11.686   6.226  20.475  0.00  0.00    +0.017 A 
ATOM     12  C13 UNL     1      10.496   6.974  20.411  0.00  0.00    +0.050 A 
ATOM     13  C14 UNL     1       9.292   6.291  20.533  0.00  0.00    +0.166 A 
ATOM     14  C15 UNL     1       9.244   4.948  20.709  0.00  0.00    +0.167 A 
ATOM     15  C16 UNL     1      10.395   4.169  20.779  0.00  0.00    +0.062 A 
ATOM     16  O2  UNL     1       7.925   4.541  20.790  0.00  0.00    -0.453 OA
ATOM     17  C17 UNL     1       7.095   5.704  20.662  0.00  0.00    +0.466 C 
ATOM     18  O3  UNL     1       8.008   6.798  20.499  0.00  0.00    -0.453 OA
ENDBRANCH   2  10
BRANCH   6  19
ATOM     19  C4  UNL     1      15.664  -0.970  23.078  0.00  0.00    +0.004 A 
ATOM     20  C5  UNL     1      16.924  -1.583  22.927  0.00  0.00    +0.010 A 
ATOM     21  C6  UNL     1      17.320  -2.613  23.786  0.00  0.00    +0.003 A 
ATOM     22  C7  UNL     1      16.467  -3.047  24.801  0.00  0.00    +0.038 A 
ATOM     23  C8  UNL     1      15.213  -2.454  24.959  0.00  0.00    +0.124 A 
ATOM     24  F1  UNL     1      14.382  -2.883  25.941  0.00  0.00    -0.205 F 
ATOM     25  C9  UNL     1      14.810  -1.423  24.104  0.00  0.00    +0.048 A 
ENDBRANCH   6  19
TORSDOF 2
ENDMDL
MODEL 3
REMARK VINA RESULT:    -6.643     17.971     19.819
REMARK INTER + INTRA:          -7.744
REMARK INTER:                  -7.430
REMARK INTRA:                  -0.314
REMARK UNBOUND:                -0.324
REMARK  Name = /home/qwerty/github/datacon2025hack/step_04_hit_selection/docking/ligands/lig_374.pdb
REMARK  2 active torsions:
REMARK  status: ('A' for Active; 'I' for Inactive)
REMARK    1  A    between atoms: C1_2  and  C11_16
REMARK    2  A    between atoms: C3_6  and  C4_7
REMARK                            x       y       z     vdW  Elec       q    Type
REMARK                         _______ _______ _______ _____ _____    ______ ____
ROOT
ATOM      1  O1  UNL     1      16.725  13.454  36.147  0.00  0.00    -0.270 OA
ATOM      2  C1  UNL     1      16.117  12.370  36.358  0.00  0.00    +0.250 C 
ATOM      3  N1  UNL     1      16.862  11.159  36.572  0.00  0.00    -0.261 N 
ATOM      4  C2  UNL     1      18.227  10.972  36.171  0.00  0.00    +0.165 A 
ATOM      5  N2  UNL     1      18.946   9.891  36.539  0.00  0.00    -0.225 NA
ATOM      6  C3  UNL     1      20.203   9.900  36.009  0.00  0.00    +0.080 A 
ATOM      7  C10 UNL     1      20.477  11.004  35.193  0.00  0.00    +0.076 A 
ATOM      8  S1  UNL     1      19.106  11.978  35.149  0.00  0.00    -0.060 S 
ATOM      9  H1  UNL     1      16.407  10.375  37.090  0.00  0.00    +0.157 HD
ENDROOT
BRANCH   2  10
ATOM     10  C11 UNL     1      14.635  12.373  36.423  0.00  0.00    +0.041 A 
ATOM     11  C12 UNL     1      13.947  11.268  36.996  0.00  0.00    +0.017 A 
ATOM     12  C13 UNL     1      12.542  11.257  37.073  0.00  0.00    +0.050 A 
ATOM     13  C14 UNL     1      11.856  12.361  36.579  0.00  0.00    +0.166 A 
ATOM     14  C15 UNL     1      12.501  13.423  36.038  0.00  0.00    +0.167 A 
ATOM     15  C16 UNL     1      13.889  13.476  35.941  0.00  0.00    +0.062 A 
ATOM     16  O2  UNL     1      11.577  14.370  35.640  0.00  0.00    -0.453 OA
ATOM     17  C17 UNL     1      10.269  13.868  35.947  0.00  0.00    +0.466 C 
ATOM     18  O3  UNL     1      10.493  12.583  36.545  0.00  0.00    -0.453 OA
ENDBRANCH   2  10
BRANCH   6  19
ATOM     19  C4  UNL     1      21.165   8.801  36.284  0.00  0.00    +0.004 A 
ATOM     20  C5  UNL     1      21.036   8.035  37.459  0.00  0.00    +0.010 A 
ATOM     21  C6  UNL     1      21.932   6.998  37.734  0.00  0.00    +0.003 A 
ATOM     22  C7  UNL     1      22.971   6.714  36.847  0.00  0.00    +0.038 A 
ATOM     23  C8  UNL     1      23.116   7.468  35.680  0.00  0.00    +0.124 A 
ATOM     24  F1  UNL     1      24.131   7.196  34.823  0.00  0.00    -0.205 F 
ATOM     25  C9  UNL     1      22.222   8.506  35.398  0.00  0.00    +0.048 A 
ENDBRANCH   6  19
TORSDOF 2
ENDMDL
MODEL 4
REMARK VINA RESULT:    -6.639      4.492      9.671
REMARK INTER + INTRA:          -7.739
REMARK INTER:                  -7.430
REMARK INTRA:                  -0.309
REMARK UNBOUND:                -0.324
REMARK  Name = /home/qwerty/github/datacon2025hack/step_04_hit_selection/docking/ligands/lig_374.pdb
REMARK  2 active torsions:
REMARK  status: ('A' for Active; 'I' for Inactive)
REMARK    1  A    between atoms: C1_2  and  C11_16
REMARK    2  A    between atoms: C3_6  and  C4_7
REMARK                            x       y       z     vdW  Elec       q    Type
REMARK                         _______ _______ _______ _____ _____    ______ ____
ROOT
ATOM      1  O1  UNL     1       9.359   4.164  20.903  0.00  0.00    -0.270 OA
ATOM      2  C1  UNL     1      10.375   4.909  20.869  0.00  0.00    +0.250 C 
ATOM      3  N1  UNL     1      11.691   4.328  20.877  0.00  0.00    -0.261 N 
ATOM      4  C2  UNL     1      11.981   2.997  21.326  0.00  0.00    +0.165 A 
ATOM      5  N2  UNL     1      13.192   2.426  21.160  0.00  0.00    -0.225 NA
ATOM      6  C3  UNL     1      13.254   1.176  21.701  0.00  0.00    +0.080 A 
ATOM      7  C10 UNL     1      12.072   0.756  22.322  0.00  0.00    +0.076 A 
ATOM      8  S1  UNL     1      10.937   1.989  22.177  0.00  0.00    -0.060 S 
ATOM      9  H1  UNL     1      12.486   4.884  20.491  0.00  0.00    +0.157 HD
ENDROOT
BRANCH   2  10
ATOM     10  C11 UNL     1      10.193   6.378  20.779  0.00  0.00    +0.041 A 
ATOM     11  C12 UNL     1      11.203   7.185  20.186  0.00  0.00    +0.017 A 
ATOM     12  C13 UNL     1      11.043   8.580  20.087  0.00  0.00    +0.050 A 
ATOM     13  C14 UNL     1       9.868   9.135  20.578  0.00  0.00    +0.166 A 
ATOM     14  C15 UNL     1       8.895   8.376  21.138  0.00  0.00    +0.167 A 
ATOM     15  C16 UNL     1       9.011   6.994  21.258  0.00  0.00    +0.062 A 
ATOM     16  O2  UNL     1       7.845   9.186  21.529  0.00  0.00    -0.453 OA
ATOM     17  C17 UNL     1       8.184  10.540  21.196  0.00  0.00    +0.466 C 
ATOM     18  O3  UNL     1       9.483  10.461  20.591  0.00  0.00    -0.453 OA
ENDBRANCH   2  10
BRANCH   6  19
ATOM     19  C4  UNL     1      14.499   0.366  21.633  0.00  0.00    +0.004 A 
ATOM     20  C5  UNL     1      14.910  -0.382  22.755  0.00  0.00    +0.010 A 
ATOM     21  C6  UNL     1      16.078  -1.148  22.709  0.00  0.00    +0.003 A 
ATOM     22  C7  UNL     1      16.854  -1.176  21.550  0.00  0.00    +0.038 A 
ATOM     23  C8  UNL     1      16.464  -0.436  20.432  0.00  0.00    +0.124 A 
ATOM     24  F1  UNL     1      17.224  -0.457  19.309  0.00  0.00    -0.205 F 
ATOM     25  C9  UNL     1      15.296   0.333  20.470  0.00  0.00    +0.048 A 
ENDBRANCH   6  19
TORSDOF 2
ENDMDL
MODEL 5
REMARK VINA RESULT:    -6.632     10.159     13.277
REMARK INTER + INTRA:          -7.731
REMARK INTER:                  -7.425
REMARK INTRA:                  -0.306
REMARK UNBOUND:                -0.324
REMARK  Name = /home/qwerty/github/datacon2025hack/step_04_hit_selection/docking/ligands/lig_374.pdb
REMARK  2 active torsions:
REMARK  status: ('A' for Active; 'I' for Inactive)
REMARK    1  A    between atoms: C1_2  and  C11_16
REMARK    2  A    between atoms: C3_6  and  C4_7
REMARK                            x       y       z     vdW  Elec       q    Type
REMARK                         _______ _______ _______ _____ _____    ______ ____
ROOT
ATOM      1  O1  UNL     1      20.735   4.986  21.807  0.00  0.00    -0.270 OA
ATOM      2  C1  UNL     1      21.662   5.600  22.402  0.00  0.00    +0.250 C 
ATOM      3  N1  UNL     1      22.182   5.087  23.641  0.00  0.00    -0.261 N 
ATOM      4  C2  UNL     1      21.482   4.163  24.486  0.00  0.00    +0.165 A 
ATOM      5  N2  UNL     1      22.066   3.572  25.550  0.00  0.00    -0.225 NA
ATOM      6  C3  UNL     1      21.203   2.768  26.234  0.00  0.00    +0.080 A 
ATOM      7  C10 UNL     1      19.906   2.734  25.710  0.00  0.00    +0.076 A 
ATOM      8  S1  UNL     1      19.860   3.738  24.360  0.00  0.00    -0.060 S 
ATOM      9  H1  UNL     1      23.146   5.362  23.932  0.00  0.00    +0.157 HD
ENDROOT
BRANCH   2  10
ATOM     10  C11 UNL     1      22.232   6.823  21.786  0.00  0.00    +0.041 A 
ATOM     11  C12 UNL     1      21.370   7.863  21.341  0.00  0.00    +0.017 A 
ATOM     12  C13 UNL     1      21.895   9.033  20.761  0.00  0.00    +0.050 A 
ATOM     13  C14 UNL     1      23.276   9.138  20.648  0.00  0.00    +0.166 A 
ATOM     14  C15 UNL     1      24.108   8.157  21.075  0.00  0.00    +0.167 A 
ATOM     15  C16 UNL     1      23.633   6.983  21.654  0.00  0.00    +0.062 A 
ATOM     16  O2  UNL     1      25.419   8.531  20.846  0.00  0.00    -0.453 OA
ATOM     17  C17 UNL     1      25.407   9.828  20.231  0.00  0.00    +0.466 C 
ATOM     18  O3  UNL     1      24.020  10.177  20.124  0.00  0.00    -0.453 OA
ENDBRANCH   2  10
BRANCH   6  19
ATOM     19  C4  UNL     1      21.638   2.020  27.444  0.00  0.00    +0.004 A 
ATOM     20  C5  UNL     1      20.675   1.449  28.298  0.00  0.00    +0.010 A 
ATOM     21  C6  UNL     1      21.066   0.743  29.439  0.00  0.00    +0.003 A 
ATOM     22  C7  UNL     1      22.419   0.602  29.748  0.00  0.00    +0.038 A 
ATOM     23  C8  UNL     1      23.387   1.168  28.915  0.00  0.00    +0.124 A 
ATOM     24  F1  UNL     1      24.701   1.037  29.220  0.00  0.00    -0.205 F 
ATOM     25  C9  UNL     1      23.003   1.875  27.770  0.00  0.00    +0.048 A 
ENDBRANCH   6  19
TORSDOF 2
ENDMDL
MODEL 6
REMARK VINA RESULT:    -6.565      2.201      3.144
REMARK INTER + INTRA:          -7.656
REMARK INTER:                  -7.356
REMARK INTRA:                  -0.301
REMARK UNBOUND:                -0.324
REMARK  Name = /home/qwerty/github/datacon2025hack/step_04_hit_selection/docking/ligands/lig_374.pdb
REMARK  2 active torsions:
REMARK  status: ('A' for Active; 'I' for Inactive)
REMARK    1  A    between atoms: C1_2  and  C11_16
REMARK    2  A    between atoms: C3_6  and  C4_7
REMARK                            x       y       z     vdW  Elec       q    Type
REMARK                         _______ _______ _______ _____ _____    ______ ____
ROOT
ATOM      1  O1  UNL     1      11.408   1.953  22.311  0.00  0.00    -0.270 OA
ATOM      2  C1  UNL     1      12.441   2.426  21.766  0.00  0.00    +0.250 C 
ATOM      3  N1  UNL     1      12.484   3.815  21.396  0.00  0.00    -0.261 N 
ATOM      4  C2  UNL     1      11.322   4.637  21.213  0.00  0.00    +0.165 A 
ATOM      5  N2  UNL     1      11.401   5.972  21.036  0.00  0.00    -0.225 NA
ATOM      6  C3  UNL     1      10.179   6.542  20.838  0.00  0.00    +0.080 A 
ATOM      7  C10 UNL     1       9.112   5.636  20.845  0.00  0.00    +0.076 A 
ATOM      8  S1  UNL     1       9.733   4.095  21.107  0.00  0.00    -0.060 S 
ATOM      9  H1  UNL     1      13.415   4.278  21.295  0.00  0.00    +0.157 HD
ENDROOT
BRANCH   2  10
ATOM     10  C11 UNL     1      13.616   1.546  21.554  0.00  0.00    +0.041 A 
ATOM     11  C12 UNL     1      14.292   1.552  20.303  0.00  0.00    +0.017 A 
ATOM     12  C13 UNL     1      15.412   0.728  20.087  0.00  0.00    +0.050 A 
ATOM     13  C14 UNL     1      15.835  -0.080  21.136  0.00  0.00    +0.166 A 
ATOM     14  C15 UNL     1      15.204  -0.089  22.335  0.00  0.00    +0.167 A 
ATOM     15  C16 UNL     1      14.092   0.709  22.592  0.00  0.00    +0.062 A 
ATOM     16  O2  UNL     1      15.840  -0.974  23.185  0.00  0.00    -0.453 OA
ATOM     17  C17 UNL     1      16.938  -1.560  22.471  0.00  0.00    +0.466 C 
ATOM     18  O3  UNL     1      16.898  -0.961  21.168  0.00  0.00    -0.453 OA
ENDBRANCH   2  10
BRANCH   6  19
ATOM     19  C4  UNL     1      10.035   8.006  20.619  0.00  0.00    +0.004 A 
ATOM     20  C5  UNL     1      10.990   8.695  19.846  0.00  0.00    +0.010 A 
ATOM     21  C6  UNL     1      10.871  10.071  19.631  0.00  0.00    +0.003 A 
ATOM     22  C7  UNL     1       9.804  10.779  20.185  0.00  0.00    +0.038 A 
ATOM     23  C8  UNL     1       8.852  10.111  20.959  0.00  0.00    +0.124 A 
ATOM     24  F1  UNL     1       7.820  10.801  21.503  0.00  0.00    -0.205 F 
ATOM     25  C9  UNL     1       8.964   8.734  21.177  0.00  0.00    +0.048 A 
ENDBRANCH   6  19
TORSDOF 2
ENDMDL
MODEL 7
REMARK VINA RESULT:    -6.461      9.697     11.273
REMARK INTER + INTRA:          -7.541
REMARK INTER:                  -7.229
REMARK INTRA:                  -0.311
REMARK UNBOUND:                -0.324
REMARK  Name = /home/qwerty/github/datacon2025hack/step_04_hit_selection/docking/ligands/lig_374.pdb
REMARK  2 active torsions:
REMARK  status: ('A' for Active; 'I' for Inactive)
REMARK    1  A    between atoms: C1_2  and  C11_16
REMARK    2  A    between atoms: C3_6  and  C4_7
REMARK                            x       y       z     vdW  Elec       q    Type
REMARK                         _______ _______ _______ _____ _____    ______ ____
ROOT
ATOM      1  O1  UNL     1      19.689   3.566  24.021  0.00  0.00    -0.270 OA
ATOM      2  C1  UNL     1      20.770   3.642  24.666  0.00  0.00    +0.250 C 
ATOM      3  N1  UNL     1      21.746   4.638  24.315  0.00  0.00    -0.261 N 
ATOM      4  C2  UNL     1      21.800   5.301  23.044  0.00  0.00    +0.165 A 
ATOM      5  N2  UNL     1      22.617   6.349  22.809  0.00  0.00    -0.225 NA
ATOM      6  C3  UNL     1      22.534   6.792  21.522  0.00  0.00    +0.080 A 
ATOM      7  C10 UNL     1      21.643   6.071  20.719  0.00  0.00    +0.076 A 
ATOM      8  S1  UNL     1      20.954   4.858  21.659  0.00  0.00    -0.060 S 
ATOM      9  H1  UNL     1      22.438   4.939  25.037  0.00  0.00    +0.157 HD
ENDROOT
BRANCH   2  10
ATOM     10  C11 UNL     1      20.997   2.724  25.808  0.00  0.00    +0.041 A 
ATOM     11  C12 UNL     1      19.987   1.798  26.188  0.00  0.00    +0.017 A 
ATOM     12  C13 UNL     1      20.189   0.916  27.265  0.00  0.00    +0.050 A 
ATOM     13  C14 UNL     1      21.405   0.976  27.935  0.00  0.00    +0.166 A 
ATOM     14  C15 UNL     1      22.379   1.849  27.578  0.00  0.00    +0.167 A 
ATOM     15  C16 UNL     1      22.222   2.740  26.520  0.00  0.00    +0.062 A 
ATOM     16  O2  UNL     1      23.473   1.684  28.406  0.00  0.00    -0.453 OA
ATOM     17  C17 UNL     1      23.164   0.644  29.345  0.00  0.00    +0.466 C 
ATOM     18  O3  UNL     1      21.835   0.220  29.008  0.00  0.00    -0.453 OA
ENDBRANCH   2  10
BRANCH   6  19
ATOM     19  C4  UNL     1      23.352   7.939  21.045  0.00  0.00    +0.004 A 
ATOM     20  C5  UNL     1      24.754   7.815  20.970  0.00  0.00    +0.010 A 
ATOM     21  C6  UNL     1      25.539   8.883  20.526  0.00  0.00    +0.003 A 
ATOM     22  C7  UNL     1      24.940  10.088  20.156  0.00  0.00    +0.038 A 
ATOM     23  C8  UNL     1      23.553  10.229  20.230  0.00  0.00    +0.124 A 
ATOM     24  F1  UNL     1      22.973  11.403  19.878  0.00  0.00    -0.205 F 
ATOM     25  C9  UNL     1      22.761   9.164  20.673  0.00  0.00    +0.048 A 
ENDBRANCH   6  19
TORSDOF 2
ENDMDL
MODEL 8
REMARK VINA RESULT:    -6.438     17.319     17.838
REMARK INTER + INTRA:          -7.515
REMARK INTER:                  -7.190
REMARK INTRA:                  -0.326
REMARK UNBOUND:                -0.324
REMARK  Name = /home/qwerty/github/datacon2025hack/step_04_hit_selection/docking/ligands/lig_374.pdb
REMARK  2 active torsions:
REMARK  status: ('A' for Active; 'I' for Inactive)
REMARK    1  A    between atoms: C1_2  and  C11_16
REMARK    2  A    between atoms: C3_6  and  C4_7
REMARK                            x       y       z     vdW  Elec       q    Type
REMARK                         _______ _______ _______ _____ _____    ______ ____
ROOT
ATOM      1  O1  UNL     1      20.231   7.648  37.776  0.00  0.00    -0.270 OA
ATOM      2  C1  UNL     1      20.572   8.298  36.751  0.00  0.00    +0.250 C 
ATOM      3  N1  UNL     1      19.830   9.467  36.362  0.00  0.00    -0.261 N 
ATOM      4  C2  UNL     1      18.489   9.748  36.788  0.00  0.00    +0.165 A 
ATOM      5  N2  UNL     1      17.887  10.931  36.546  0.00  0.00    -0.225 NA
ATOM      6  C3  UNL     1      16.602  10.961  37.001  0.00  0.00    +0.080 A 
ATOM      7  C10 UNL     1      16.175   9.772  37.603  0.00  0.00    +0.076 A 
ATOM      8  S1  UNL     1      17.447   8.673  37.556  0.00  0.00    -0.060 S 
ATOM      9  H1  UNL     1      20.301  10.185  35.769  0.00  0.00    +0.157 HD
ENDROOT
BRANCH   2  10
ATOM     10  C11 UNL     1      21.766   7.866  35.985  0.00  0.00    +0.041 A 
ATOM     11  C12 UNL     1      22.502   6.722  36.400  0.00  0.00    +0.017 A 
ATOM     12  C13 UNL     1      23.634   6.294  35.681  0.00  0.00    +0.050 A 
ATOM     13  C14 UNL     1      23.999   7.020  34.553  0.00  0.00    +0.166 A 
ATOM     14  C15 UNL     1      23.300   8.107  34.143  0.00  0.00    +0.167 A 
ATOM     15  C16 UNL     1      22.176   8.566  34.824  0.00  0.00    +0.062 A 
ATOM     16  O2  UNL     1      23.881   8.623  32.999  0.00  0.00    -0.453 OA
ATOM     17  C17 UNL     1      25.017   7.809  32.674  0.00  0.00    +0.466 C 
ATOM     18  O3  UNL     1      25.055   6.799  33.692  0.00  0.00    -0.453 OA
ENDBRANCH   2  10
BRANCH   6  19
ATOM     19  C4  UNL     1      15.752  12.170  36.836  0.00  0.00    +0.004 A 
ATOM     20  C5  UNL     1      16.356  13.430  36.656  0.00  0.00    +0.010 A 
ATOM     21  C6  UNL     1      15.572  14.578  36.500  0.00  0.00    +0.003 A 
ATOM     22  C7  UNL     1      14.180  14.486  36.527  0.00  0.00    +0.038 A 
ATOM     23  C8  UNL     1      13.567  13.245  36.710  0.00  0.00    +0.124 A 
ATOM     24  F1  UNL     1      12.214  13.159  36.744  0.00  0.00    -0.205 F 
ATOM     25  C9  UNL     1      14.344  12.093  36.866  0.00  0.00    +0.048 A 
ENDBRANCH   6  19
TORSDOF 2
ENDMDL
MODEL 9
REMARK VINA RESULT:    -6.332     17.461     19.491
REMARK INTER + INTRA:          -7.396
REMARK INTER:                  -7.073
REMARK INTRA:                  -0.323
REMARK UNBOUND:                -0.324
REMARK  Name = /home/qwerty/github/datacon2025hack/step_04_hit_selection/docking/ligands/lig_374.pdb
REMARK  2 active torsions:
REMARK  status: ('A' for Active; 'I' for Inactive)
REMARK    1  A    between atoms: C1_2  and  C11_16
REMARK    2  A    between atoms: C3_6  and  C4_7
REMARK                            x       y       z     vdW  Elec       q    Type
REMARK                         _______ _______ _______ _____ _____    ______ ____
ROOT
ATOM      1  O1  UNL     1      17.123   8.634  37.397  0.00  0.00    -0.270 OA
ATOM      2  C1  UNL     1      17.321   9.652  36.680  0.00  0.00    +0.250 C 
ATOM      3  N1  UNL     1      18.470   9.710  35.818  0.00  0.00    -0.261 N 
ATOM      4  C2  UNL     1      19.642   8.899  35.983  0.00  0.00    +0.165 A 
ATOM      5  N2  UNL     1      20.627   8.855  35.061  0.00  0.00    -0.225 NA
ATOM      6  C3  UNL     1      21.662   8.055  35.446  0.00  0.00    +0.080 A 
ATOM      7  C10 UNL     1      21.498   7.464  36.704  0.00  0.00    +0.076 A 
ATOM      8  S1  UNL     1      20.021   7.967  37.332  0.00  0.00    -0.060 S 
ATOM      9  H1  UNL     1      18.445  10.346  34.990  0.00  0.00    +0.157 HD
ENDROOT
BRANCH   2  10
ATOM     10  C11 UNL     1      16.335  10.760  36.708  0.00  0.00    +0.041 A 
ATOM     11  C12 UNL     1      14.949  10.475  36.852  0.00  0.00    +0.017 A 
ATOM     12  C13 UNL     1      14.001  11.514  36.887  0.00  0.00    +0.050 A 
ATOM     13  C14 UNL     1      14.465  12.820  36.784  0.00  0.00    +0.166 A 
ATOM     14  C15 UNL     1      15.785  13.105  36.655  0.00  0.00    +0.167 A 
ATOM     15  C16 UNL     1      16.756  12.109  36.615  0.00  0.00    +0.062 A 
ATOM     16  O2  UNL     1      15.956  14.475  36.583  0.00  0.00    -0.453 OA
ATOM     17  C17 UNL     1      14.661  15.087  36.669  0.00  0.00    +0.466 C 
ATOM     18  O3  UNL     1      13.740  13.995  36.797  0.00  0.00    -0.453 OA
ENDBRANCH   2  10
BRANCH   6  19
ATOM     19  C4  UNL     1      22.855   7.865  34.579  0.00  0.00    +0.004 A 
ATOM     20  C5  UNL     1      23.650   6.711  34.726  0.00  0.00    +0.010 A 
ATOM     21  C6  UNL     1      24.776   6.517  33.920  0.00  0.00    +0.003 A 
ATOM     22  C7  UNL     1      25.126   7.469  32.962  0.00  0.00    +0.038 A 
ATOM     23  C8  UNL     1      24.352   8.621  32.808  0.00  0.00    +0.124 A 
ATOM     24  F1  UNL     1      24.698   9.549  31.883  0.00  0.00    -0.205 F 
ATOM     25  C9  UNL     1      23.224   8.821  33.611  0.00  0.00    +0.048 A 
ENDBRANCH   6  19
TORSDOF 2
ENDMDL
