REMARK  Name = /home/qwerty/github/datacon2025hack/step_04_hit_selection/docking/ligands/lig_550.pdb
REMARK  6 active torsions:
REMARK  status: ('A' for Active; 'I' for Inactive)
REMARK    1  A    between atoms: C1_1  and  C2_2
REMARK    2  A    between atoms: C2_2  and  N1_3
REMARK    3  A    between atoms: C2_2  and  C17_22
REMARK    4  A    between atoms: C3_4  and  C4_6
REMARK    5  A    between atoms: C9_13  and  C10_14
REMARK    6  A    between atoms: C10_14  and  C11_16
REMARK                            x       y       z     vdW  Elec       q    Type
REMARK                         _______ _______ _______ _____ _____    ______ ____
ROOT
ATOM      1  N1  UNL     1      -0.104  -0.257   0.376  0.00  0.00    -0.305 N 
ATOM      2  C3  UNL     1      -0.358  -1.491  -0.313  0.00  0.00    +0.245 C 
ATOM      3  O1  UNL     1       0.568  -2.337  -0.451  0.00  0.00    -0.270 OA
ATOM      4  H5  UNL     1      -0.814   0.508   0.312  0.00  0.00    +0.150 HD
ENDROOT
BRANCH   2   5
ATOM      5  C4  UNL     1      -1.686  -1.764  -0.906  0.00  0.00    +0.050 A 
ATOM      6  C5  UNL     1      -1.744  -2.313  -2.199  0.00  0.00    +0.055 A 
ATOM      7  C6  UNL     1      -2.973  -2.528  -2.827  0.00  0.00    +0.159 A 
ATOM      8  F1  UNL     1      -3.010  -3.047  -4.079  0.00  0.00    -0.202 F 
ATOM      9  C7  UNL     1      -4.160  -2.203  -2.169  0.00  0.00    +0.159 A 
ATOM     10  F2  UNL     1      -5.354  -2.413  -2.778  0.00  0.00    -0.202 F 
ATOM     11  C8  UNL     1      -4.122  -1.677  -0.876  0.00  0.00    +0.053 A 
ATOM     12  C9  UNL     1      -2.894  -1.458  -0.228  0.00  0.00    +0.037 A 
BRANCH  12  13
ATOM     13  C10 UNL     1      -2.906  -1.001   1.182  0.00  0.00    +0.194 C 
ATOM     14  O2  UNL     1      -2.247  -1.655   2.035  0.00  0.00    -0.287 OA
BRANCH  13  15
ATOM     15  C11 UNL     1      -3.675   0.194   1.614  0.00  0.00    +0.022 A 
ATOM     16  C12 UNL     1      -4.012   0.364   2.969  0.00  0.00    +0.012 A 
ATOM     17  C13 UNL     1      -4.725   1.493   3.386  0.00  0.00    +0.001 A 
ATOM     18  C14 UNL     1      -5.100   2.467   2.459  0.00  0.00    +0.000 A 
ATOM     19  C15 UNL     1      -4.760   2.316   1.113  0.00  0.00    +0.001 A 
ATOM     20  C16 UNL     1      -4.049   1.189   0.690  0.00  0.00    +0.012 A 
ENDBRANCH  13  15
ENDBRANCH  12  13
ENDBRANCH   2   5
BRANCH   1  22
ATOM     21  C1  UNL     1       0.988   1.156   2.070  0.00  0.00    +0.033 C 
ATOM     22  C2  UNL     1       1.153  -0.007   1.087  0.00  0.00    +0.101 C 
BRANCH  22  23
ATOM     23  C17 UNL     1       2.264   0.287   0.103  0.00  0.00    -0.024 A 
ATOM     24  C18 UNL     1       2.087   1.242  -0.918  0.00  0.00    +0.009 A 
ATOM     25  C19 UNL     1       3.123   1.523  -1.813  0.00  0.00    +0.050 A 
ATOM     26  C20 UNL     1       4.346   0.860  -1.692  0.00  0.00    +0.162 A 
ATOM     27  C21 UNL     1       4.526  -0.105  -0.694  0.00  0.00    +0.162 A 
ATOM     28  C22 UNL     1       3.498  -0.379   0.213  0.00  0.00    +0.055 A 
ATOM     29  O3  UNL     1       5.745  -0.787  -0.619  0.00  0.00    -0.485 OA
ATOM     30  C23 UNL     1       6.693  -0.723  -1.688  0.00  0.00    +0.270 C 
ATOM     31  C24 UNL     1       6.732   0.692  -2.280  0.00  0.00    +0.270 C 
ATOM     32  O4  UNL     1       5.406   1.149  -2.558  0.00  0.00    -0.485 OA
ENDBRANCH  22  23
ENDBRANCH   1  22
TORSDOF 5
