MODEL 1
REMARK VINA RESULT:    -6.210      0.000      0.000
REMARK INTER + INTRA:          -8.267
REMARK INTER:                  -7.662
REMARK INTRA:                  -0.604
REMARK UNBOUND:                -0.604
REMARK  Name = /home/qwerty/github/datacon2025hack/step_04_hit_selection/docking/ligands/lig_706.pdb
REMARK  6 active torsions:
REMARK  status: ('A' for Active; 'I' for Inactive)
REMARK    1  A    between atoms: C1_1  and  C2_2
REMARK    2  A    between atoms: C2_2  and  C3_3
REMARK    3  A    between atoms: C3_3  and  N1_4
REMARK    4  A    between atoms: C3_3  and  C14_18
REMARK    5  A    between atoms: N2_7  and  C5_8
REMARK    6  A    between atoms: N3_16  and  C13_17
REMARK                            x       y       z     vdW  Elec       q    Type
REMARK                         _______ _______ _______ _____ _____    ______ ____
ROOT
ATOM      1  N1  UNL     1      11.806   2.424  20.754  0.00  0.00    -0.296 N 
ATOM      2  C4  UNL     1      11.068   3.589  21.146  0.00  0.00    +0.304 C 
ATOM      3  O1  UNL     1      11.145   4.019  22.330  0.00  0.00    -0.253 OA
ATOM      4  N2  UNL     1      10.263   4.279  20.180  0.00  0.00    -0.269 N 
ATOM      5  H7  UNL     1      11.801   2.170  19.741  0.00  0.00    +0.151 HD
ATOM      6  H8  UNL     1      10.458   4.114  19.167  0.00  0.00    +0.156 HD
ENDROOT
BRANCH   4   7
ATOM      7  C5  UNL     1       9.335   5.315  20.533  0.00  0.00    +0.044 A 
ATOM      8  C6  UNL     1       8.029   4.983  20.944  0.00  0.00    +0.024 A 
ATOM      9  C7  UNL     1       7.110   5.991  21.306  0.00  0.00    +0.004 A 
ATOM     10  C8  UNL     1       7.489   7.343  21.281  0.00  0.00    +0.026 A 
ATOM     11  C9  UNL     1       8.795   7.651  20.894  0.00  0.00    +0.051 A 
ATOM     12  C10 UNL     1       9.691   6.672  20.538  0.00  0.00    +0.021 A 
ATOM     13  C11 UNL     1      10.899   7.300  20.287  0.00  0.00    +0.029 A 
ATOM     14  C12 UNL     1      10.667   8.654  20.490  0.00  0.00    +0.086 A 
ATOM     15  N3  UNL     1       9.380   8.864  20.852  0.00  0.00    -0.350 N 
ATOM     16  C13 UNL     1       8.779  10.148  21.205  0.00  0.00    +0.149 C 
ENDBRANCH   4   7
BRANCH   1  17
ATOM     17  C3  UNL     1      12.589   1.629  21.712  0.00  0.00    +0.079 C 
BRANCH  17  18
ATOM     18  C14 UNL     1      13.836   0.962  21.054  0.00  0.00    +0.035 C 
ATOM     19  C15 UNL     1      14.677   1.907  20.161  0.00  0.00    +0.010 C 
ATOM     20  C16 UNL     1      16.161   1.522  20.159  0.00  0.00    +0.028 C 
ATOM     21  C17 UNL     1      16.323   0.006  20.346  0.00  0.00    +0.160 C 
ATOM     22  O2  UNL     1      15.782  -0.500  21.562  0.00  0.00    -0.379 OA
ATOM     23  C18 UNL     1      14.740   0.292  22.118  0.00  0.00    +0.165 C 
ENDBRANCH  17  18
BRANCH  17  25
ATOM     24  C1  UNL     1      11.536   0.938  23.997  0.00  0.00    +0.006 C 
ATOM     25  C2  UNL     1      11.696   0.635  22.503  0.00  0.00    +0.019 C 
ENDBRANCH  17  25
ENDBRANCH   1  17
TORSDOF 4
ENDMDL
MODEL 2
REMARK VINA RESULT:    -6.141     17.200     18.023
REMARK INTER + INTRA:          -8.181
REMARK INTER:                  -8.034
REMARK INTRA:                  -0.147
REMARK UNBOUND:                -0.604
REMARK  Name = /home/qwerty/github/datacon2025hack/step_04_hit_selection/docking/ligands/lig_706.pdb
REMARK  6 active torsions:
REMARK  status: ('A' for Active; 'I' for Inactive)
REMARK    1  A    between atoms: C1_1  and  C2_2
REMARK    2  A    between atoms: C2_2  and  C3_3
REMARK    3  A    between atoms: C3_3  and  N1_4
REMARK    4  A    between atoms: C3_3  and  C14_18
REMARK    5  A    between atoms: N2_7  and  C5_8
REMARK    6  A    between atoms: N3_16  and  C13_17
REMARK                            x       y       z     vdW  Elec       q    Type
REMARK                         _______ _______ _______ _____ _____    ______ ____
ROOT
ATOM      1  N1  UNL     1      20.303   8.912  37.663  0.00  0.00    -0.296 N 
ATOM      2  C4  UNL     1      19.431   9.733  36.872  0.00  0.00    +0.304 C 
ATOM      3  O1  UNL     1      18.910   9.273  35.819  0.00  0.00    -0.253 OA
ATOM      4  N2  UNL     1      19.132  11.069  37.300  0.00  0.00    -0.269 N 
ATOM      5  H7  UNL     1      20.620   9.294  38.581  0.00  0.00    +0.151 HD
ATOM      6  H8  UNL     1      19.300  11.316  38.301  0.00  0.00    +0.156 HD
ENDROOT
BRANCH   4   7
ATOM      7  C5  UNL     1      18.449  12.020  36.471  0.00  0.00    +0.044 A 
ATOM      8  C6  UNL     1      19.137  12.670  35.427  0.00  0.00    +0.024 A 
ATOM      9  C7  UNL     1      18.475  13.598  34.596  0.00  0.00    +0.004 A 
ATOM     10  C8  UNL     1      17.111  13.876  34.783  0.00  0.00    +0.026 A 
ATOM     11  C9  UNL     1      16.440  13.205  35.808  0.00  0.00    +0.051 A 
ATOM     12  C10 UNL     1      17.083  12.302  36.621  0.00  0.00    +0.021 A 
ATOM     13  C11 UNL     1      16.128  11.768  37.469  0.00  0.00    +0.029 A 
ATOM     14  C12 UNL     1      14.936  12.396  37.133  0.00  0.00    +0.086 A 
ATOM     15  N3  UNL     1      15.132  13.277  36.125  0.00  0.00    -0.350 N 
ATOM     16  C13 UNL     1      14.107  14.081  35.467  0.00  0.00    +0.149 C 
ENDBRANCH   4   7
BRANCH   1  17
ATOM     17  C3  UNL     1      20.708   7.563  37.242  0.00  0.00    +0.079 C 
BRANCH  17  18
ATOM     18  C14 UNL     1      21.845   7.587  36.175  0.00  0.00    +0.035 C 
ATOM     19  C15 UNL     1      23.145   6.862  36.601  0.00  0.00    +0.010 C 
ATOM     20  C16 UNL     1      23.885   6.261  35.399  0.00  0.00    +0.028 C 
ATOM     21  C17 UNL     1      23.646   7.111  34.143  0.00  0.00    +0.160 C 
ATOM     22  O2  UNL     1      22.280   7.219  33.754  0.00  0.00    -0.379 OA
ATOM     23  C18 UNL     1      21.350   7.037  34.815  0.00  0.00    +0.165 C 
ENDBRANCH  17  18
BRANCH  17  25
ATOM     24  C1  UNL     1      18.543   6.303  37.973  0.00  0.00    +0.006 C 
ATOM     25  C2  UNL     1      19.488   6.695  36.831  0.00  0.00    +0.019 C 
ENDBRANCH  17  25
ENDBRANCH   1  17
TORSDOF 4
ENDMDL
MODEL 3
REMARK VINA RESULT:    -6.053     17.041     19.331
REMARK INTER + INTRA:          -8.073
REMARK INTER:                  -7.931
REMARK INTRA:                  -0.142
REMARK UNBOUND:                -0.604
REMARK  Name = /home/qwerty/github/datacon2025hack/step_04_hit_selection/docking/ligands/lig_706.pdb
REMARK  6 active torsions:
REMARK  status: ('A' for Active; 'I' for Inactive)
REMARK    1  A    between atoms: C1_1  and  C2_2
REMARK    2  A    between atoms: C2_2  and  C3_3
REMARK    3  A    between atoms: C3_3  and  N1_4
REMARK    4  A    between atoms: C3_3  and  C14_18
REMARK    5  A    between atoms: N2_7  and  C5_8
REMARK    6  A    between atoms: N3_16  and  C13_17
REMARK                            x       y       z     vdW  Elec       q    Type
REMARK                         _______ _______ _______ _____ _____    ______ ____
ROOT
ATOM      1  N1  UNL     1      15.220  13.637  37.333  0.00  0.00    -0.296 N 
ATOM      2  C4  UNL     1      16.302  13.104  36.556  0.00  0.00    +0.304 C 
ATOM      3  O1  UNL     1      16.173  12.950  35.310  0.00  0.00    -0.253 OA
ATOM      4  N2  UNL     1      17.542  12.774  37.198  0.00  0.00    -0.269 N 
ATOM      5  H7  UNL     1      15.410  13.853  38.336  0.00  0.00    +0.151 HD
ATOM      6  H8  UNL     1      17.741  13.195  38.133  0.00  0.00    +0.156 HD
ENDROOT
BRANCH   4   7
ATOM      7  C5  UNL     1      18.590  12.045  36.544  0.00  0.00    +0.044 A 
ATOM      8  C6  UNL     1      19.413  12.687  35.598  0.00  0.00    +0.024 A 
ATOM      9  C7  UNL     1      20.457  11.986  34.957  0.00  0.00    +0.004 A 
ATOM     10  C8  UNL     1      20.704  10.639  35.265  0.00  0.00    +0.026 A 
ATOM     11  C9  UNL     1      19.892  10.025  36.222  0.00  0.00    +0.051 A 
ATOM     12  C10 UNL     1      18.874  10.705  36.846  0.00  0.00    +0.021 A 
ATOM     13  C11 UNL     1      18.324   9.843  37.779  0.00  0.00    +0.029 A 
ATOM     14  C12 UNL     1      19.038   8.657  37.661  0.00  0.00    +0.086 A 
ATOM     15  N3  UNL     1      19.988   8.770  36.705  0.00  0.00    -0.350 N 
ATOM     16  C13 UNL     1      20.969   7.754  36.335  0.00  0.00    +0.149 C 
ENDBRANCH   4   7
BRANCH   1  17
ATOM     17  C3  UNL     1      13.902  13.926  36.750  0.00  0.00    +0.079 C 
BRANCH  17  18
ATOM     18  C14 UNL     1      13.223  12.656  36.152  0.00  0.00    +0.035 C 
ATOM     19  C15 UNL     1      13.051  11.485  37.151  0.00  0.00    +0.010 C 
ATOM     20  C16 UNL     1      11.815  10.636  36.831  0.00  0.00    +0.028 C 
ATOM     21  C17 UNL     1      11.541  10.636  35.319  0.00  0.00    +0.160 C 
ATOM     22  O2  UNL     1      11.293  11.924  34.764  0.00  0.00    -0.379 OA
ATOM     23  C18 UNL     1      11.862  13.002  35.498  0.00  0.00    +0.165 C 
ENDBRANCH  17  18
BRANCH  17  25
ATOM     24  C1  UNL     1      14.586  16.407  36.319  0.00  0.00    +0.006 C 
ATOM     25  C2  UNL     1      13.956  15.125  35.764  0.00  0.00    +0.019 C 
ENDBRANCH  17  25
ENDBRANCH   1  17
TORSDOF 4
ENDMDL
MODEL 4
REMARK VINA RESULT:    -5.947     17.059     18.117
REMARK INTER + INTRA:          -7.942
REMARK INTER:                  -7.542
REMARK INTRA:                  -0.400
REMARK UNBOUND:                -0.604
REMARK  Name = /home/qwerty/github/datacon2025hack/step_04_hit_selection/docking/ligands/lig_706.pdb
REMARK  6 active torsions:
REMARK  status: ('A' for Active; 'I' for Inactive)
REMARK    1  A    between atoms: C1_1  and  C2_2
REMARK    2  A    between atoms: C2_2  and  C3_3
REMARK    3  A    between atoms: C3_3  and  N1_4
REMARK    4  A    between atoms: C3_3  and  C14_18
REMARK    5  A    between atoms: N2_7  and  C5_8
REMARK    6  A    between atoms: N3_16  and  C13_17
REMARK                            x       y       z     vdW  Elec       q    Type
REMARK                         _______ _______ _______ _____ _____    ______ ____
ROOT
ATOM      1  N1  UNL     1      20.285   8.736  37.561  0.00  0.00    -0.296 N 
ATOM      2  C4  UNL     1      19.482   9.606  36.751  0.00  0.00    +0.304 C 
ATOM      3  O1  UNL     1      19.120   9.242  35.598  0.00  0.00    -0.253 OA
ATOM      4  N2  UNL     1      19.070  10.878  37.268  0.00  0.00    -0.269 N 
ATOM      5  H7  UNL     1      20.466   9.028  38.547  0.00  0.00    +0.151 HD
ATOM      6  H8  UNL     1      19.098  11.023  38.303  0.00  0.00    +0.156 HD
ENDROOT
BRANCH   4   7
ATOM      7  C5  UNL     1      18.453  11.888  36.458  0.00  0.00    +0.044 A 
ATOM      8  C6  UNL     1      19.187  12.518  35.434  0.00  0.00    +0.024 A 
ATOM      9  C7  UNL     1      18.589  13.504  34.620  0.00  0.00    +0.004 A 
ATOM     10  C8  UNL     1      17.244  13.861  34.806  0.00  0.00    +0.026 A 
ATOM     11  C9  UNL     1      16.525  13.209  35.811  0.00  0.00    +0.051 A 
ATOM     12  C10 UNL     1      17.105  12.250  36.606  0.00  0.00    +0.021 A 
ATOM     13  C11 UNL     1      16.113  11.757  37.435  0.00  0.00    +0.029 A 
ATOM     14  C12 UNL     1      14.964  12.465  37.107  0.00  0.00    +0.086 A 
ATOM     15  N3  UNL     1      15.222  13.355  36.121  0.00  0.00    -0.350 N 
ATOM     16  C13 UNL     1      14.253  14.235  35.476  0.00  0.00    +0.149 C 
ENDBRANCH   4   7
BRANCH   1  17
ATOM     17  C3  UNL     1      20.803   7.453  37.063  0.00  0.00    +0.079 C 
BRANCH  17  18
ATOM     18  C14 UNL     1      19.753   6.305  37.170  0.00  0.00    +0.035 C 
ATOM     19  C15 UNL     1      18.491   6.659  37.995  0.00  0.00    +0.010 C 
ATOM     20  C16 UNL     1      17.250   5.910  37.493  0.00  0.00    +0.028 C 
ATOM     21  C17 UNL     1      17.647   4.544  36.912  0.00  0.00    +0.160 C 
ATOM     22  O2  UNL     1      18.544   4.610  35.808  0.00  0.00    -0.379 OA
ATOM     23  C18 UNL     1      19.344   5.786  35.769  0.00  0.00    +0.165 C 
ENDBRANCH  17  18
BRANCH  17  25
ATOM     24  C1  UNL     1      23.262   6.656  36.707  0.00  0.00    +0.006 C 
ATOM     25  C2  UNL     1      22.177   7.100  37.695  0.00  0.00    +0.019 C 
ENDBRANCH  17  25
ENDBRANCH   1  17
TORSDOF 4
ENDMDL
MODEL 5
REMARK VINA RESULT:    -5.809      7.078     10.744
REMARK INTER + INTRA:          -7.771
REMARK INTER:                  -7.122
REMARK INTRA:                  -0.649
REMARK UNBOUND:                -0.604
REMARK  Name = /home/qwerty/github/datacon2025hack/step_04_hit_selection/docking/ligands/lig_706.pdb
REMARK  6 active torsions:
REMARK  status: ('A' for Active; 'I' for Inactive)
REMARK    1  A    between atoms: C1_1  and  C2_2
REMARK    2  A    between atoms: C2_2  and  C3_3
REMARK    3  A    between atoms: C3_3  and  N1_4
REMARK    4  A    between atoms: C3_3  and  C14_18
REMARK    5  A    between atoms: N2_7  and  C5_8
REMARK    6  A    between atoms: N3_16  and  C13_17
REMARK                            x       y       z     vdW  Elec       q    Type
REMARK                         _______ _______ _______ _____ _____    ______ ____
ROOT
ATOM      1  N1  UNL     1      20.931   0.515  26.649  0.00  0.00    -0.296 N 
ATOM      2  C4  UNL     1      19.599   0.326  26.150  0.00  0.00    +0.304 C 
ATOM      3  O1  UNL     1      18.647   1.018  26.607  0.00  0.00    -0.253 OA
ATOM      4  N2  UNL     1      19.358  -0.633  25.112  0.00  0.00    -0.269 N 
ATOM      5  H7  UNL     1      21.702   0.003  26.166  0.00  0.00    +0.151 HD
ATOM      6  H8  UNL     1      20.171  -0.952  24.536  0.00  0.00    +0.156 HD
ENDROOT
BRANCH   4   7
ATOM      7  C5  UNL     1      18.042  -1.034  24.708  0.00  0.00    +0.044 A 
ATOM      8  C6  UNL     1      17.494  -2.242  25.185  0.00  0.00    +0.024 A 
ATOM      9  C7  UNL     1      16.194  -2.642  24.807  0.00  0.00    +0.004 A 
ATOM     10  C8  UNL     1      15.417  -1.833  23.962  0.00  0.00    +0.026 A 
ATOM     11  C9  UNL     1      15.968  -0.629  23.518  0.00  0.00    +0.051 A 
ATOM     12  C10 UNL     1      17.234  -0.238  23.883  0.00  0.00    +0.021 A 
ATOM     13  C11 UNL     1      17.441   1.020  23.343  0.00  0.00    +0.029 A 
ATOM     14  C12 UNL     1      16.276   1.327  22.652  0.00  0.00    +0.086 A 
ATOM     15  N3  UNL     1      15.384   0.315  22.755  0.00  0.00    -0.350 N 
ATOM     16  C13 UNL     1      14.029   0.297  22.210  0.00  0.00    +0.149 C 
ENDBRANCH   4   7
BRANCH   1  17
ATOM     17  C3  UNL     1      21.232   1.426  27.762  0.00  0.00    +0.079 C 
BRANCH  17  18
ATOM     18  C14 UNL     1      21.741   2.817  27.273  0.00  0.00    +0.035 C 
ATOM     19  C15 UNL     1      22.505   2.787  25.927  0.00  0.00    +0.010 C 
ATOM     20  C16 UNL     1      22.329   4.091  25.139  0.00  0.00    +0.028 C 
ATOM     21  C17 UNL     1      22.152   5.277  26.099  0.00  0.00    +0.160 C 
ATOM     22  O2  UNL     1      21.021   5.177  26.959  0.00  0.00    -0.379 OA
ATOM     23  C18 UNL     1      20.585   3.845  27.205  0.00  0.00    +0.165 C 
ENDBRANCH  17  18
BRANCH  17  25
ATOM     24  C1  UNL     1      22.533  -0.697  28.541  0.00  0.00    +0.006 C 
ATOM     25  C2  UNL     1      22.155   0.762  28.819  0.00  0.00    +0.019 C 
ENDBRANCH  17  25
ENDBRANCH   1  17
TORSDOF 4
ENDMDL
MODEL 6
REMARK VINA RESULT:    -5.800     17.101     18.130
REMARK INTER + INTRA:          -7.761
REMARK INTER:                  -7.213
REMARK INTRA:                  -0.548
REMARK UNBOUND:                -0.604
REMARK  Name = /home/qwerty/github/datacon2025hack/step_04_hit_selection/docking/ligands/lig_706.pdb
REMARK  6 active torsions:
REMARK  status: ('A' for Active; 'I' for Inactive)
REMARK    1  A    between atoms: C1_1  and  C2_2
REMARK    2  A    between atoms: C2_2  and  C3_3
REMARK    3  A    between atoms: C3_3  and  N1_4
REMARK    4  A    between atoms: C3_3  and  C14_18
REMARK    5  A    between atoms: N2_7  and  C5_8
REMARK    6  A    between atoms: N3_16  and  C13_17
REMARK                            x       y       z     vdW  Elec       q    Type
REMARK                         _______ _______ _______ _____ _____    ______ ____
ROOT
ATOM      1  N1  UNL     1      18.944  11.302  36.718  0.00  0.00    -0.296 N 
ATOM      2  C4  UNL     1      17.649  11.794  36.346  0.00  0.00    +0.304 C 
ATOM      3  O1  UNL     1      17.104  11.399  35.279  0.00  0.00    -0.253 OA
ATOM      4  N2  UNL     1      16.965  12.715  37.207  0.00  0.00    -0.269 N 
ATOM      5  H7  UNL     1      19.307  11.568  37.660  0.00  0.00    +0.151 HD
ATOM      6  H8  UNL     1      17.270  12.778  38.205  0.00  0.00    +0.156 HD
ENDROOT
BRANCH   4   7
ATOM      7  C5  UNL     1      15.775  13.413  36.815  0.00  0.00    +0.044 A 
ATOM      8  C6  UNL     1      15.855  14.743  36.356  0.00  0.00    +0.024 A 
ATOM      9  C7  UNL     1      14.694  15.438  35.955  0.00  0.00    +0.004 A 
ATOM     10  C8  UNL     1      13.439  14.808  35.990  0.00  0.00    +0.026 A 
ATOM     11  C9  UNL     1      13.382  13.482  36.426  0.00  0.00    +0.051 A 
ATOM     12  C10 UNL     1      14.511  12.804  36.819  0.00  0.00    +0.021 A 
ATOM     13  C11 UNL     1      14.123  11.508  37.113  0.00  0.00    +0.029 A 
ATOM     14  C12 UNL     1      12.752  11.469  36.896  0.00  0.00    +0.086 A 
ATOM     15  N3  UNL     1      12.303  12.677  36.485  0.00  0.00    -0.350 N 
ATOM     16  C13 UNL     1      10.933  13.008  36.105  0.00  0.00    +0.149 C 
ENDBRANCH   4   7
BRANCH   1  17
ATOM     17  C3  UNL     1      19.729  10.416  35.846  0.00  0.00    +0.079 C 
BRANCH  17  18
ATOM     18  C14 UNL     1      20.506   9.326  36.647  0.00  0.00    +0.035 C 
ATOM     19  C15 UNL     1      19.606   8.320  37.405  0.00  0.00    +0.010 C 
ATOM     20  C16 UNL     1      20.265   6.939  37.523  0.00  0.00    +0.028 C 
ATOM     21  C17 UNL     1      21.793   7.078  37.590  0.00  0.00    +0.160 C 
ATOM     22  O2  UNL     1      22.380   7.703  36.452  0.00  0.00    -0.379 OA
ATOM     23  C18 UNL     1      21.505   8.568  35.738  0.00  0.00    +0.165 C 
ENDBRANCH  17  18
BRANCH  17  25
ATOM     24  C1  UNL     1      20.160  11.211  33.398  0.00  0.00    +0.006 C 
ATOM     25  C2  UNL     1      20.622  11.218  34.860  0.00  0.00    +0.019 C 
ENDBRANCH  17  25
ENDBRANCH   1  17
TORSDOF 4
ENDMDL
MODEL 7
REMARK VINA RESULT:    -5.733      9.049     11.424
REMARK INTER + INTRA:          -7.679
REMARK INTER:                  -6.968
REMARK INTRA:                  -0.711
REMARK UNBOUND:                -0.604
REMARK  Name = /home/qwerty/github/datacon2025hack/step_04_hit_selection/docking/ligands/lig_706.pdb
REMARK  6 active torsions:
REMARK  status: ('A' for Active; 'I' for Inactive)
REMARK    1  A    between atoms: C1_1  and  C2_2
REMARK    2  A    between atoms: C2_2  and  C3_3
REMARK    3  A    between atoms: C3_3  and  N1_4
REMARK    4  A    between atoms: C3_3  and  C14_18
REMARK    5  A    between atoms: N2_7  and  C5_8
REMARK    6  A    between atoms: N3_16  and  C13_17
REMARK                            x       y       z     vdW  Elec       q    Type
REMARK                         _______ _______ _______ _____ _____    ______ ____
ROOT
ATOM      1  N1  UNL     1      20.451   2.538  26.001  0.00  0.00    -0.296 N 
ATOM      2  C4  UNL     1      19.709   1.361  25.652  0.00  0.00    +0.304 C 
ATOM      3  O1  UNL     1      20.254   0.225  25.723  0.00  0.00    -0.253 OA
ATOM      4  N2  UNL     1      18.338   1.479  25.249  0.00  0.00    -0.269 N 
ATOM      5  H7  UNL     1      19.930   3.442  26.037  0.00  0.00    +0.151 HD
ATOM      6  H8  UNL     1      17.823   2.353  25.500  0.00  0.00    +0.156 HD
ENDROOT
BRANCH   4   7
ATOM      7  C5  UNL     1      17.593   0.391  24.685  0.00  0.00    +0.044 A 
ATOM      8  C6  UNL     1      17.857  -0.039  23.369  0.00  0.00    +0.024 A 
ATOM      9  C7  UNL     1      17.141  -1.116  22.806  0.00  0.00    +0.004 A 
ATOM     10  C8  UNL     1      16.165  -1.792  23.555  0.00  0.00    +0.026 A 
ATOM     11  C9  UNL     1      15.933  -1.367  24.865  0.00  0.00    +0.051 A 
ATOM     12  C10 UNL     1      16.627  -0.316  25.416  0.00  0.00    +0.021 A 
ATOM     13  C11 UNL     1      16.217  -0.206  26.733  0.00  0.00    +0.029 A 
ATOM     14  C12 UNL     1      15.266  -1.202  26.914  0.00  0.00    +0.086 A 
ATOM     15  N3  UNL     1      15.090  -1.902  25.770  0.00  0.00    -0.350 N 
ATOM     16  C13 UNL     1      14.217  -3.058  25.589  0.00  0.00    +0.149 C 
ENDBRANCH   4   7
BRANCH   1  17
ATOM     17  C3  UNL     1      21.879   2.493  26.350  0.00  0.00    +0.079 C 
BRANCH  17  18
ATOM     18  C14 UNL     1      22.118   2.524  27.891  0.00  0.00    +0.035 C 
ATOM     19  C15 UNL     1      21.023   3.263  28.699  0.00  0.00    +0.010 C 
ATOM     20  C16 UNL     1      20.855   2.675  30.105  0.00  0.00    +0.028 C 
ATOM     21  C17 UNL     1      22.191   2.116  30.616  0.00  0.00    +0.160 C 
ATOM     22  O2  UNL     1      22.741   1.075  29.814  0.00  0.00    -0.379 OA
ATOM     23  C18 UNL     1      22.322   1.096  28.455  0.00  0.00    +0.165 C 
ENDBRANCH  17  18
BRANCH  17  25
ATOM     24  C1  UNL     1      21.888   4.740  25.023  0.00  0.00    +0.006 C 
ATOM     25  C2  UNL     1      22.697   3.560  25.573  0.00  0.00    +0.019 C 
ENDBRANCH  17  25
ENDBRANCH   1  17
TORSDOF 4
ENDMDL
MODEL 8
REMARK VINA RESULT:    -5.688      7.061     10.582
REMARK INTER + INTRA:          -7.623
REMARK INTER:                  -6.976
REMARK INTRA:                  -0.647
REMARK UNBOUND:                -0.604
REMARK  Name = /home/qwerty/github/datacon2025hack/step_04_hit_selection/docking/ligands/lig_706.pdb
REMARK  6 active torsions:
REMARK  status: ('A' for Active; 'I' for Inactive)
REMARK    1  A    between atoms: C1_1  and  C2_2
REMARK    2  A    between atoms: C2_2  and  C3_3
REMARK    3  A    between atoms: C3_3  and  N1_4
REMARK    4  A    between atoms: C3_3  and  C14_18
REMARK    5  A    between atoms: N2_7  and  C5_8
REMARK    6  A    between atoms: N3_16  and  C13_17
REMARK                            x       y       z     vdW  Elec       q    Type
REMARK                         _______ _______ _______ _____ _____    ______ ____
ROOT
ATOM      1  N1  UNL     1      19.928   2.035  26.316  0.00  0.00    -0.296 N 
ATOM      2  C4  UNL     1      19.434   1.183  25.273  0.00  0.00    +0.304 C 
ATOM      3  O1  UNL     1      20.224   0.722  24.404  0.00  0.00    -0.253 OA
ATOM      4  N2  UNL     1      18.043   0.837  25.238  0.00  0.00    -0.269 N 
ATOM      5  H7  UNL     1      19.262   2.302  27.074  0.00  0.00    +0.151 HD
ATOM      6  H8  UNL     1      17.483   0.953  26.113  0.00  0.00    +0.156 HD
ENDROOT
BRANCH   4   7
ATOM      7  C5  UNL     1      17.431   0.173  24.123  0.00  0.00    +0.044 A 
ATOM      8  C6  UNL     1      17.263  -1.226  24.139  0.00  0.00    +0.024 A 
ATOM      9  C7  UNL     1      16.650  -1.890  23.055  0.00  0.00    +0.004 A 
ATOM     10  C8  UNL     1      16.180  -1.164  21.948  0.00  0.00    +0.026 A 
ATOM     11  C9  UNL     1      16.335   0.224  21.960  0.00  0.00    +0.051 A 
ATOM     12  C10 UNL     1      16.933   0.873  23.013  0.00  0.00    +0.021 A 
ATOM     13  C11 UNL     1      16.858   2.230  22.748  0.00  0.00    +0.029 A 
ATOM     14  C12 UNL     1      16.222   2.337  21.518  0.00  0.00    +0.086 A 
ATOM     15  N3  UNL     1      15.912   1.110  21.038  0.00  0.00    -0.350 N 
ATOM     16  C13 UNL     1      15.189   0.823  19.802  0.00  0.00    +0.149 C 
ENDBRANCH   4   7
BRANCH   1  17
ATOM     17  C3  UNL     1      21.326   2.488  26.365  0.00  0.00    +0.079 C 
BRANCH  17  18
ATOM     18  C14 UNL     1      21.949   2.346  27.788  0.00  0.00    +0.035 C 
ATOM     19  C15 UNL     1      21.388   3.334  28.840  0.00  0.00    +0.010 C 
ATOM     20  C16 UNL     1      21.409   2.740  30.253  0.00  0.00    +0.028 C 
ATOM     21  C17 UNL     1      22.585   1.764  30.407  0.00  0.00    +0.160 C 
ATOM     22  O2  UNL     1      22.555   0.657  29.511  0.00  0.00    -0.379 OA
ATOM     23  C18 UNL     1      21.831   0.892  28.309  0.00  0.00    +0.165 C 
ENDBRANCH  17  18
BRANCH  17  25
ATOM     24  C1  UNL     1      22.945   4.353  25.524  0.00  0.00    +0.006 C 
ATOM     25  C2  UNL     1      21.498   3.903  25.750  0.00  0.00    +0.019 C 
ENDBRANCH  17  25
ENDBRANCH   1  17
TORSDOF 4
ENDMDL
MODEL 9
REMARK VINA RESULT:    -5.635     16.638     18.904
REMARK INTER + INTRA:          -7.557
REMARK INTER:                  -6.926
REMARK INTRA:                  -0.631
REMARK UNBOUND:                -0.604
REMARK  Name = /home/qwerty/github/datacon2025hack/step_04_hit_selection/docking/ligands/lig_706.pdb
REMARK  6 active torsions:
REMARK  status: ('A' for Active; 'I' for Inactive)
REMARK    1  A    between atoms: C1_1  and  C2_2
REMARK    2  A    between atoms: C2_2  and  C3_3
REMARK    3  A    between atoms: C3_3  and  N1_4
REMARK    4  A    between atoms: C3_3  and  C14_18
REMARK    5  A    between atoms: N2_7  and  C5_8
REMARK    6  A    between atoms: N3_16  and  C13_17
REMARK                            x       y       z     vdW  Elec       q    Type
REMARK                         _______ _______ _______ _____ _____    ______ ____
ROOT
ATOM      1  N1  UNL     1      13.913  11.852  37.175  0.00  0.00    -0.296 N 
ATOM      2  C4  UNL     1      15.193  11.617  36.571  0.00  0.00    +0.304 C 
ATOM      3  O1  UNL     1      15.267  11.080  35.432  0.00  0.00    -0.253 OA
ATOM      4  N2  UNL     1      16.386  12.022  37.256  0.00  0.00    -0.269 N 
ATOM      5  H7  UNL     1      13.893  12.399  38.064  0.00  0.00    +0.151 HD
ATOM      6  H8  UNL     1      16.301  12.732  38.018  0.00  0.00    +0.156 HD
ENDROOT
BRANCH   4   7
ATOM      7  C5  UNL     1      17.700  11.638  36.829  0.00  0.00    +0.044 A 
ATOM      8  C6  UNL     1      18.500  12.544  36.105  0.00  0.00    +0.024 A 
ATOM      9  C7  UNL     1      19.800  12.185  35.690  0.00  0.00    +0.004 A 
ATOM     10  C8  UNL     1      20.326  10.922  36.008  0.00  0.00    +0.026 A 
ATOM     11  C9  UNL     1      19.528  10.046  36.747  0.00  0.00    +0.051 A 
ATOM     12  C10 UNL     1      18.261  10.392  37.150  0.00  0.00    +0.021 A 
ATOM     13  C11 UNL     1      17.779   9.345  37.917  0.00  0.00    +0.029 A 
ATOM     14  C12 UNL     1      18.789   8.392  37.926  0.00  0.00    +0.086 A 
ATOM     15  N3  UNL     1      19.851   8.820  37.205  0.00  0.00    -0.350 N 
ATOM     16  C13 UNL     1      21.119   8.119  37.032  0.00  0.00    +0.149 C 
ENDBRANCH   4   7
BRANCH   1  17
ATOM     17  C3  UNL     1      12.658  11.395  36.559  0.00  0.00    +0.079 C 
BRANCH  17  18
ATOM     18  C14 UNL     1      12.062  12.444  35.571  0.00  0.00    +0.035 C 
ATOM     19  C15 UNL     1      12.747  13.832  35.614  0.00  0.00    +0.010 C 
ATOM     20  C16 UNL     1      12.703  14.534  34.251  0.00  0.00    +0.028 C 
ATOM     21  C17 UNL     1      11.440  14.127  33.478  0.00  0.00    +0.160 C 
ATOM     22  O2  UNL     1      11.335  12.732  33.210  0.00  0.00    -0.379 OA
ATOM     23  C18 UNL     1      12.048  11.903  34.120  0.00  0.00    +0.165 C 
ENDBRANCH  17  18
BRANCH  17  25
ATOM     24  C1  UNL     1      10.448  11.821  37.880  0.00  0.00    +0.006 C 
ATOM     25  C2  UNL     1      11.642  10.895  37.622  0.00  0.00    +0.019 C 
ENDBRANCH  17  25
ENDBRANCH   1  17
TORSDOF 4
ENDMDL
