MODEL 1
REMARK VINA RESULT:    -7.857      0.000      0.000
REMARK INTER + INTRA:         -12.585
REMARK INTER:                 -11.072
REMARK INTRA:                  -1.514
REMARK UNBOUND:                -1.514
REMARK  Name = /home/qwerty/github/datacon2025hack/step_04_hit_selection/docking/ligands/lig_334.pdb
REMARK  8 active torsions:
REMARK  status: ('A' for Active; 'I' for Inactive)
REMARK    1  A    between atoms: C1_1  and  C2_2
REMARK    2  A    between atoms: C8_9  and  C9_10
REMARK    3  A    between atoms: C9_10  and  N2_11
REMARK    4  A    between atoms: C10_12  and  C11_14
REMARK    5  A    between atoms: C15_18  and  N3_19
REMARK    6  A    between atoms: C16_20  and  C17_22
REMARK    7  A    between atoms: C20_25  and  C21_26
REMARK    8  A    between atoms: N5_34  and  C27_35
REMARK                            x       y       z     vdW  Elec       q    Type
REMARK                         _______ _______ _______ _____ _____    ______ ____
ROOT
ATOM      1  N2  UNL     1      23.912  10.028  20.619  0.00  0.00    -0.304 N 
ATOM      2  C10 UNL     1      23.258   9.304  19.566  0.00  0.00    +0.244 C 
ATOM      3  O1  UNL     1      23.152   9.832  18.425  0.00  0.00    -0.270 OA
ATOM      4  H9  UNL     1      24.191   9.530  21.494  0.00  0.00    +0.149 HD
ENDROOT
BRANCH   2   5
ATOM      5  C11 UNL     1      22.714   7.940  19.788  0.00  0.00    +0.038 A 
ATOM      6  C12 UNL     1      22.179   7.186  18.727  0.00  0.00    +0.013 A 
ATOM      7  C13 UNL     1      21.690   5.897  18.952  0.00  0.00    +0.003 A 
ATOM      8  C14 UNL     1      21.729   5.341  20.231  0.00  0.00    +0.023 A 
ATOM      9  C15 UNL     1      22.254   6.077  21.306  0.00  0.00    +0.034 A 
ATOM     10  C26 UNL     1      22.758   7.366  21.072  0.00  0.00    +0.036 A 
BRANCH   9  11
ATOM     11  N3  UNL     1      22.353   5.510  22.624  0.00  0.00    -0.281 N 
ATOM     12  C16 UNL     1      21.224   5.323  23.498  0.00  0.00    +0.250 C 
ATOM     13  O2  UNL     1      20.151   5.946  23.263  0.00  0.00    -0.270 OA
ATOM     14  H13 UNL     1      23.313   5.281  22.963  0.00  0.00    +0.155 HD
BRANCH  12  15
ATOM     15  C17 UNL     1      21.281   4.414  24.676  0.00  0.00    +0.055 A 
ATOM     16  C18 UNL     1      22.527   3.972  25.154  0.00  0.00    +0.016 A 
ATOM     17  C19 UNL     1      22.604   3.132  26.265  0.00  0.00    +0.029 A 
ATOM     18  C20 UNL     1      21.426   2.722  26.905  0.00  0.00    +0.078 A 
ATOM     19  N4  UNL     1      20.228   3.148  26.423  0.00  0.00    -0.254 NA
ATOM     20  C25 UNL     1      20.125   3.967  25.343  0.00  0.00    +0.124 A 
BRANCH  18  21
ATOM     21  C21 UNL     1      21.460   1.841  28.089  0.00  0.00    +0.038 A 
ATOM     22  C22 UNL     1      22.588   1.195  28.587  0.00  0.00    +0.017 A 
ATOM     23  C23 UNL     1      22.328   0.412  29.719  0.00  0.00    +0.008 A 
ATOM     24  C24 UNL     1      20.999   0.434  30.121  0.00  0.00    +0.046 A 
ATOM     25  S1  UNL     1      20.150   1.430  29.066  0.00  0.00    -0.095 S 
ENDBRANCH  18  21
ENDBRANCH  12  15
ENDBRANCH   9  11
ENDBRANCH   2   5
BRANCH   1  26
ATOM     26  C9  UNL     1      24.312  11.424  20.441  0.00  0.00    +0.179 C 
BRANCH  26  35
ATOM     27  C1  UNL     1      22.441  16.173  25.718  0.00  0.00    +0.044 C 
ATOM     28  C2  UNL     1      22.317  15.193  24.589  0.00  0.00    -0.048 A 
ATOM     29  C3  UNL     1      21.048  14.927  24.016  0.00  0.00    +0.005 A 
ATOM     30  C4  UNL     1      20.921  14.036  22.934  0.00  0.00    +0.028 A 
ATOM     31  C5  UNL     1      22.086  13.436  22.439  0.00  0.00    +0.069 A 
ATOM     32  C6  UNL     1      23.307  13.703  22.984  0.00  0.00    +0.090 A 
ATOM     33  C7  UNL     1      23.468  14.581  24.054  0.00  0.00    +0.033 A 
ATOM     34  N1  UNL     1      24.268  13.014  22.352  0.00  0.00    -0.231 NA
ATOM     35  C8  UNL     1      23.585  12.312  21.411  0.00  0.00    +0.128 A 
ATOM     36  N5  UNL     1      22.237  12.559  21.422  0.00  0.00    -0.323 N 
BRANCH  36  37
ATOM     37  C27 UNL     1      21.163  11.984  20.584  0.00  0.00    +0.089 C 
ATOM     38  C28 UNL     1      20.231  13.087  20.020  0.00  0.00    +0.025 C 
ATOM     39  C29 UNL     1      18.780  12.608  19.834  0.00  0.00    +0.002 C 
ATOM     40  C30 UNL     1      18.735  11.153  19.353  0.00  0.00    +0.000 C 
ATOM     41  C31 UNL     1      19.385  10.182  20.366  0.00  0.00    +0.002 C 
ATOM     42  C32 UNL     1      20.394  10.864  21.310  0.00  0.00    +0.025 C 
ENDBRANCH  36  37
ENDBRANCH  26  35
ENDBRANCH   1  26
TORSDOF 7
ENDMDL
MODEL 2
REMARK VINA RESULT:    -7.763      8.443     12.284
REMARK INTER + INTRA:         -12.453
REMARK INTER:                 -11.086
REMARK INTRA:                  -1.368
REMARK UNBOUND:                -1.514
REMARK  Name = /home/qwerty/github/datacon2025hack/step_04_hit_selection/docking/ligands/lig_334.pdb
REMARK  8 active torsions:
REMARK  status: ('A' for Active; 'I' for Inactive)
REMARK    1  A    between atoms: C1_1  and  C2_2
REMARK    2  A    between atoms: C8_9  and  C9_10
REMARK    3  A    between atoms: C9_10  and  N2_11
REMARK    4  A    between atoms: C10_12  and  C11_14
REMARK    5  A    between atoms: C15_18  and  N3_19
REMARK    6  A    between atoms: C16_20  and  C17_22
REMARK    7  A    between atoms: C20_25  and  C21_26
REMARK    8  A    between atoms: N5_34  and  C27_35
REMARK                            x       y       z     vdW  Elec       q    Type
REMARK                         _______ _______ _______ _____ _____    ______ ____
ROOT
ATOM      1  N2  UNL     1      11.149   4.778  19.979  0.00  0.00    -0.304 N 
ATOM      2  C10 UNL     1      11.994   3.680  20.354  0.00  0.00    +0.244 C 
ATOM      3  O1  UNL     1      11.475   2.638  20.842  0.00  0.00    -0.270 OA
ATOM      4  H9  UNL     1      11.534   5.549  19.389  0.00  0.00    +0.149 HD
ENDROOT
BRANCH   2   5
ATOM      5  C11 UNL     1      13.467   3.738  20.168  0.00  0.00    +0.038 A 
ATOM      6  C12 UNL     1      14.257   2.575  20.231  0.00  0.00    +0.013 A 
ATOM      7  C13 UNL     1      15.638   2.647  20.034  0.00  0.00    +0.003 A 
ATOM      8  C14 UNL     1      16.250   3.873  19.769  0.00  0.00    +0.023 A 
ATOM      9  C15 UNL     1      15.481   5.048  19.706  0.00  0.00    +0.034 A 
ATOM     10  C26 UNL     1      14.091   4.968  19.889  0.00  0.00    +0.036 A 
BRANCH   9  11
ATOM     11  N3  UNL     1      16.077   6.317  19.383  0.00  0.00    -0.281 N 
ATOM     12  C16 UNL     1      16.529   7.259  20.374  0.00  0.00    +0.250 C 
ATOM     13  O2  UNL     1      16.125   7.145  21.565  0.00  0.00    -0.270 OA
ATOM     14  H13 UNL     1      16.124   6.567  18.371  0.00  0.00    +0.155 HD
BRANCH  12  15
ATOM     15  C17 UNL     1      17.462   8.369  20.037  0.00  0.00    +0.055 A 
ATOM     16  C18 UNL     1      18.290   8.264  18.906  0.00  0.00    +0.016 A 
ATOM     17  C19 UNL     1      19.160   9.299  18.564  0.00  0.00    +0.029 A 
ATOM     18  C20 UNL     1      19.212  10.451  19.360  0.00  0.00    +0.078 A 
ATOM     19  N4  UNL     1      18.414  10.533  20.458  0.00  0.00    -0.254 NA
ATOM     20  C25 UNL     1      17.556   9.539  20.814  0.00  0.00    +0.124 A 
BRANCH  18  21
ATOM     21  C21 UNL     1      20.111  11.575  19.031  0.00  0.00    +0.038 A 
ATOM     22  C22 UNL     1      19.744  12.916  18.972  0.00  0.00    +0.017 A 
ATOM     23  C23 UNL     1      20.801  13.768  18.626  0.00  0.00    +0.008 A 
ATOM     24  C24 UNL     1      22.004  13.109  18.412  0.00  0.00    +0.046 A 
ATOM     25  S1  UNL     1      21.750  11.465  18.654  0.00  0.00    -0.095 S 
ENDBRANCH  18  21
ENDBRANCH  12  15
ENDBRANCH   9  11
ENDBRANCH   2   5
BRANCH   1  26
ATOM     26  C9  UNL     1       9.722   4.778  20.301  0.00  0.00    +0.179 C 
BRANCH  26  35
ATOM     27  C1  UNL     1       7.946   6.632  27.179  0.00  0.00    +0.044 C 
ATOM     28  C2  UNL     1       8.439   6.746  25.766  0.00  0.00    -0.048 A 
ATOM     29  C3  UNL     1       9.024   7.954  25.313  0.00  0.00    +0.005 A 
ATOM     30  C4  UNL     1       9.521   8.064  24.002  0.00  0.00    +0.028 A 
ATOM     31  C5  UNL     1       9.431   6.940  23.170  0.00  0.00    +0.069 A 
ATOM     32  C6  UNL     1       8.879   5.774  23.613  0.00  0.00    +0.090 A 
ATOM     33  C7  UNL     1       8.379   5.631  24.905  0.00  0.00    +0.033 A 
ATOM     34  N1  UNL     1       8.898   4.846  22.646  0.00  0.00    -0.231 NA
ATOM     35  C8  UNL     1       9.471   5.493  21.598  0.00  0.00    +0.128 A 
ATOM     36  N5  UNL     1       9.831   6.783  21.889  0.00  0.00    -0.323 N 
BRANCH  36  37
ATOM     37  C27 UNL     1      10.451   7.810  21.025  0.00  0.00    +0.089 C 
ATOM     38  C28 UNL     1      11.914   8.099  21.447  0.00  0.00    +0.025 C 
ATOM     39  C29 UNL     1      12.340   9.554  21.178  0.00  0.00    +0.002 C 
ATOM     40  C30 UNL     1      11.731  10.076  19.872  0.00  0.00    +0.000 C 
ATOM     41  C31 UNL     1      10.185  10.077  19.906  0.00  0.00    +0.002 C 
ATOM     42  C32 UNL     1       9.593   9.086  20.929  0.00  0.00    +0.025 C 
ENDBRANCH  36  37
ENDBRANCH  26  35
ENDBRANCH   1  26
TORSDOF 7
ENDMDL
MODEL 3
REMARK VINA RESULT:    -7.756     11.615     14.008
REMARK INTER + INTRA:         -12.444
REMARK INTER:                 -11.352
REMARK INTRA:                  -1.092
REMARK UNBOUND:                -1.514
REMARK  Name = /home/qwerty/github/datacon2025hack/step_04_hit_selection/docking/ligands/lig_334.pdb
REMARK  8 active torsions:
REMARK  status: ('A' for Active; 'I' for Inactive)
REMARK    1  A    between atoms: C1_1  and  C2_2
REMARK    2  A    between atoms: C8_9  and  C9_10
REMARK    3  A    between atoms: C9_10  and  N2_11
REMARK    4  A    between atoms: C10_12  and  C11_14
REMARK    5  A    between atoms: C15_18  and  N3_19
REMARK    6  A    between atoms: C16_20  and  C17_22
REMARK    7  A    between atoms: C20_25  and  C21_26
REMARK    8  A    between atoms: N5_34  and  C27_35
REMARK                            x       y       z     vdW  Elec       q    Type
REMARK                         _______ _______ _______ _____ _____    ______ ____
ROOT
ATOM      1  N2  UNL     1      13.263  12.737  32.967  0.00  0.00    -0.304 N 
ATOM      2  C10 UNL     1      12.959  13.732  33.957  0.00  0.00    +0.244 C 
ATOM      3  O1  UNL     1      11.805  14.240  33.990  0.00  0.00    -0.270 OA
ATOM      4  H9  UNL     1      14.132  12.164  33.058  0.00  0.00    +0.149 HD
ENDROOT
BRANCH   2   5
ATOM      5  C11 UNL     1      13.973  14.168  34.951  0.00  0.00    +0.038 A 
ATOM      6  C12 UNL     1      13.745  15.276  35.788  0.00  0.00    +0.013 A 
ATOM      7  C13 UNL     1      14.703  15.660  36.730  0.00  0.00    +0.003 A 
ATOM      8  C14 UNL     1      15.896  14.946  36.854  0.00  0.00    +0.023 A 
ATOM      9  C15 UNL     1      16.147  13.840  36.026  0.00  0.00    +0.034 A 
ATOM     10  C26 UNL     1      15.175  13.449  35.091  0.00  0.00    +0.036 A 
BRANCH   9  11
ATOM     11  N3  UNL     1      17.344  13.055  36.167  0.00  0.00    -0.281 N 
ATOM     12  C16 UNL     1      17.367  11.731  36.734  0.00  0.00    +0.250 C 
ATOM     13  O2  UNL     1      16.385  11.337  37.423  0.00  0.00    -0.270 OA
ATOM     14  H13 UNL     1      18.238  13.514  35.886  0.00  0.00    +0.155 HD
BRANCH  12  15
ATOM     15  C17 UNL     1      18.517  10.808  36.532  0.00  0.00    +0.055 A 
ATOM     16  C18 UNL     1      18.811   9.837  37.505  0.00  0.00    +0.016 A 
ATOM     17  C19 UNL     1      19.874   8.952  37.328  0.00  0.00    +0.029 A 
ATOM     18  C20 UNL     1      20.659   9.037  36.170  0.00  0.00    +0.078 A 
ATOM     19  N4  UNL     1      20.371   9.990  35.243  0.00  0.00    -0.254 NA
ATOM     20  C25 UNL     1      19.340  10.864  35.391  0.00  0.00    +0.124 A 
BRANCH  18  21
ATOM     21  C21 UNL     1      21.789   8.117  35.936  0.00  0.00    +0.038 A 
ATOM     22  C22 UNL     1      22.215   7.118  36.808  0.00  0.00    +0.017 A 
ATOM     23  C23 UNL     1      23.320   6.400  36.334  0.00  0.00    +0.008 A 
ATOM     24  C24 UNL     1      23.772   6.822  35.092  0.00  0.00    +0.046 A 
ATOM     25  S1  UNL     1      22.794   8.091  34.583  0.00  0.00    -0.095 S 
ENDBRANCH  18  21
ENDBRANCH  12  15
ENDBRANCH   9  11
ENDBRANCH   2   5
BRANCH   1  26
ATOM     26  C9  UNL     1      12.314  12.419  31.899  0.00  0.00    +0.179 C 
BRANCH  26  35
ATOM     27  C1  UNL     1      15.760  16.113  26.572  0.00  0.00    +0.044 C 
ATOM     28  C2  UNL     1      14.707  15.322  27.291  0.00  0.00    -0.048 A 
ATOM     29  C3  UNL     1      13.556  14.875  26.596  0.00  0.00    +0.005 A 
ATOM     30  C4  UNL     1      12.577  14.104  27.249  0.00  0.00    +0.028 A 
ATOM     31  C5  UNL     1      12.786  13.784  28.597  0.00  0.00    +0.069 A 
ATOM     32  C6  UNL     1      13.901  14.205  29.260  0.00  0.00    +0.090 A 
ATOM     33  C7  UNL     1      14.889  14.968  28.644  0.00  0.00    +0.033 A 
ATOM     34  N1  UNL     1      13.880  13.784  30.533  0.00  0.00    -0.231 NA
ATOM     35  C8  UNL     1      12.709  13.102  30.620  0.00  0.00    +0.128 A 
ATOM     36  N5  UNL     1      12.013  13.064  29.440  0.00  0.00    -0.323 N 
BRANCH  36  37
ATOM     37  C27 UNL     1      10.703  12.452  29.133  0.00  0.00    +0.089 C 
ATOM     38  C28 UNL     1      10.810  11.440  27.963  0.00  0.00    +0.025 C 
ATOM     39  C29 UNL     1       9.525  11.362  27.119  0.00  0.00    +0.002 C 
ATOM     40  C30 UNL     1       8.277  11.490  27.998  0.00  0.00    +0.000 C 
ATOM     41  C31 UNL     1       8.222  12.843  28.744  0.00  0.00    +0.002 C 
ATOM     42  C32 UNL     1       9.603  13.507  28.912  0.00  0.00    +0.025 C 
ENDBRANCH  36  37
ENDBRANCH  26  35
ENDBRANCH   1  26
TORSDOF 7
ENDMDL
MODEL 4
REMARK VINA RESULT:    -7.737      8.866     12.775
REMARK INTER + INTRA:         -12.416
REMARK INTER:                 -11.130
REMARK INTRA:                  -1.286
REMARK UNBOUND:                -1.514
REMARK  Name = /home/qwerty/github/datacon2025hack/step_04_hit_selection/docking/ligands/lig_334.pdb
REMARK  8 active torsions:
REMARK  status: ('A' for Active; 'I' for Inactive)
REMARK    1  A    between atoms: C1_1  and  C2_2
REMARK    2  A    between atoms: C8_9  and  C9_10
REMARK    3  A    between atoms: C9_10  and  N2_11
REMARK    4  A    between atoms: C10_12  and  C11_14
REMARK    5  A    between atoms: C15_18  and  N3_19
REMARK    6  A    between atoms: C16_20  and  C17_22
REMARK    7  A    between atoms: C20_25  and  C21_26
REMARK    8  A    between atoms: N5_34  and  C27_35
REMARK                            x       y       z     vdW  Elec       q    Type
REMARK                         _______ _______ _______ _____ _____    ______ ____
ROOT
ATOM      1  N2  UNL     1      11.085   4.515  20.233  0.00  0.00    -0.304 N 
ATOM      2  C10 UNL     1      11.964   3.441  20.603  0.00  0.00    +0.244 C 
ATOM      3  O1  UNL     1      11.489   2.421  21.174  0.00  0.00    -0.270 OA
ATOM      4  H9  UNL     1      11.423   5.259  19.581  0.00  0.00    +0.149 HD
ENDROOT
BRANCH   2   5
ATOM      5  C11 UNL     1      13.420   3.499  20.315  0.00  0.00    +0.038 A 
ATOM      6  C12 UNL     1      14.203   2.331  20.272  0.00  0.00    +0.013 A 
ATOM      7  C13 UNL     1      15.567   2.404  19.981  0.00  0.00    +0.003 A 
ATOM      8  C14 UNL     1      16.169   3.637  19.726  0.00  0.00    +0.023 A 
ATOM      9  C15 UNL     1      15.408   4.817  19.768  0.00  0.00    +0.034 A 
ATOM     10  C26 UNL     1      14.034   4.737  20.046  0.00  0.00    +0.036 A 
BRANCH   9  11
ATOM     11  N3  UNL     1      15.990   6.096  19.460  0.00  0.00    -0.281 N 
ATOM     12  C16 UNL     1      16.513   6.994  20.456  0.00  0.00    +0.250 C 
ATOM     13  O2  UNL     1      16.189   6.832  21.665  0.00  0.00    -0.270 OA
ATOM     14  H13 UNL     1      15.971   6.388  18.458  0.00  0.00    +0.155 HD
BRANCH  12  15
ATOM     15  C17 UNL     1      17.431   8.113  20.104  0.00  0.00    +0.055 A 
ATOM     16  C18 UNL     1      18.658   7.837  19.476  0.00  0.00    +0.016 A 
ATOM     17  C19 UNL     1      19.524   8.872  19.123  0.00  0.00    +0.029 A 
ATOM     18  C20 UNL     1      19.168  10.198  19.404  0.00  0.00    +0.078 A 
ATOM     19  N4  UNL     1      17.983  10.448  20.023  0.00  0.00    -0.254 NA
ATOM     20  C25 UNL     1      17.120   9.459  20.376  0.00  0.00    +0.124 A 
BRANCH  18  21
ATOM     21  C21 UNL     1      20.050  11.325  19.041  0.00  0.00    +0.038 A 
ATOM     22  C22 UNL     1      19.642  12.639  18.836  0.00  0.00    +0.017 A 
ATOM     23  C23 UNL     1      20.691  13.501  18.492  0.00  0.00    +0.008 A 
ATOM     24  C24 UNL     1      21.929  12.877  18.424  0.00  0.00    +0.046 A 
ATOM     25  S1  UNL     1      21.716  11.251  18.794  0.00  0.00    -0.095 S 
ENDBRANCH  18  21
ENDBRANCH  12  15
ENDBRANCH   9  11
ENDBRANCH   2   5
BRANCH   1  26
ATOM     26  C9  UNL     1       9.682   4.521  20.649  0.00  0.00    +0.179 C 
BRANCH  26  35
ATOM     27  C1  UNL     1       7.872  11.553  21.733  0.00  0.00    +0.044 C 
ATOM     28  C2  UNL     1       8.187  10.114  22.018  0.00  0.00    -0.048 A 
ATOM     29  C3  UNL     1       8.051   9.604  23.333  0.00  0.00    +0.005 A 
ATOM     30  C4  UNL     1       8.310   8.249  23.608  0.00  0.00    +0.028 A 
ATOM     31  C5  UNL     1       8.692   7.425  22.542  0.00  0.00    +0.069 A 
ATOM     32  C6  UNL     1       8.811   7.915  21.275  0.00  0.00    +0.090 A 
ATOM     33  C7  UNL     1       8.560   9.251  20.968  0.00  0.00    +0.033 A 
ATOM     34  N1  UNL     1       9.191   6.948  20.427  0.00  0.00    -0.231 NA
ATOM     35  C8  UNL     1       9.308   5.857  21.227  0.00  0.00    +0.128 A 
ATOM     36  N5  UNL     1       8.991   6.107  22.537  0.00  0.00    -0.323 N 
BRANCH  36  37
ATOM     37  C27 UNL     1       9.016   5.203  23.706  0.00  0.00    +0.089 C 
ATOM     38  C28 UNL     1      10.414   4.562  23.899  0.00  0.00    +0.025 C 
ATOM     39  C29 UNL     1      10.348   3.151  24.512  0.00  0.00    +0.002 C 
ATOM     40  C30 UNL     1       9.236   3.055  25.561  0.00  0.00    +0.000 C 
ATOM     41  C31 UNL     1       7.838   3.332  24.960  0.00  0.00    +0.002 C 
ATOM     42  C32 UNL     1       7.882   4.161  23.661  0.00  0.00    +0.025 C 
ENDBRANCH  36  37
ENDBRANCH  26  35
ENDBRANCH   1  26
TORSDOF 7
ENDMDL
MODEL 5
REMARK VINA RESULT:    -7.692     11.368     13.512
REMARK INTER + INTRA:         -12.354
REMARK INTER:                 -11.279
REMARK INTRA:                  -1.075
REMARK UNBOUND:                -1.514
REMARK  Name = /home/qwerty/github/datacon2025hack/step_04_hit_selection/docking/ligands/lig_334.pdb
REMARK  8 active torsions:
REMARK  status: ('A' for Active; 'I' for Inactive)
REMARK    1  A    between atoms: C1_1  and  C2_2
REMARK    2  A    between atoms: C8_9  and  C9_10
REMARK    3  A    between atoms: C9_10  and  N2_11
REMARK    4  A    between atoms: C10_12  and  C11_14
REMARK    5  A    between atoms: C15_18  and  N3_19
REMARK    6  A    between atoms: C16_20  and  C17_22
REMARK    7  A    between atoms: C20_25  and  C21_26
REMARK    8  A    between atoms: N5_34  and  C27_35
REMARK                            x       y       z     vdW  Elec       q    Type
REMARK                         _______ _______ _______ _____ _____    ______ ____
ROOT
ATOM      1  N2  UNL     1       9.610   8.221  24.048  0.00  0.00    -0.304 N 
ATOM      2  C10 UNL     1       8.572   8.235  23.056  0.00  0.00    +0.244 C 
ATOM      3  O1  UNL     1       7.902   9.289  22.876  0.00  0.00    -0.270 OA
ATOM      4  H9  UNL     1      10.302   7.438  24.063  0.00  0.00    +0.149 HD
ENDROOT
BRANCH   2   5
ATOM      5  C11 UNL     1       8.277   7.037  22.229  0.00  0.00    +0.038 A 
ATOM      6  C12 UNL     1       7.208   7.026  21.314  0.00  0.00    +0.013 A 
ATOM      7  C13 UNL     1       6.958   5.897  20.531  0.00  0.00    +0.003 A 
ATOM      8  C14 UNL     1       7.769   4.766  20.644  0.00  0.00    +0.023 A 
ATOM      9  C15 UNL     1       8.839   4.753  21.554  0.00  0.00    +0.034 A 
ATOM     10  C26 UNL     1       9.095   5.896  22.328  0.00  0.00    +0.036 A 
BRANCH   9  11
ATOM     11  N3  UNL     1       9.722   3.621  21.655  0.00  0.00    -0.281 N 
ATOM     12  C16 UNL     1      11.035   3.580  21.065  0.00  0.00    +0.250 C 
ATOM     13  O2  UNL     1      11.334   4.413  20.165  0.00  0.00    -0.270 OA
ATOM     14  H13 UNL     1       9.345   2.778  22.140  0.00  0.00    +0.155 HD
BRANCH  12  15
ATOM     15  C17 UNL     1      12.056   2.582  21.485  0.00  0.00    +0.055 A 
ATOM     16  C18 UNL     1      11.934   1.943  22.732  0.00  0.00    +0.016 A 
ATOM     17  C19 UNL     1      12.871   0.993  23.138  0.00  0.00    +0.029 A 
ATOM     18  C20 UNL     1      13.946   0.678  22.297  0.00  0.00    +0.078 A 
ATOM     19  N4  UNL     1      14.058   1.314  21.099  0.00  0.00    -0.254 NA
ATOM     20  C25 UNL     1      13.158   2.242  20.679  0.00  0.00    +0.124 A 
BRANCH  18  21
ATOM     21  C21 UNL     1      14.957  -0.326  22.682  0.00  0.00    +0.038 A 
ATOM     22  C22 UNL     1      16.075  -0.681  21.932  0.00  0.00    +0.017 A 
ATOM     23  C23 UNL     1      16.860  -1.671  22.536  0.00  0.00    +0.008 A 
ATOM     24  C24 UNL     1      16.371  -2.104  23.761  0.00  0.00    +0.046 A 
ATOM     25  S1  UNL     1      14.960  -1.251  24.091  0.00  0.00    -0.095 S 
ENDBRANCH  18  21
ENDBRANCH  12  15
ENDBRANCH   9  11
ENDBRANCH   2   5
BRANCH   1  26
ATOM     26  C9  UNL     1       9.798   9.349  24.961  0.00  0.00    +0.179 C 
BRANCH  26  35
ATOM     27  C1  UNL     1       6.375   6.363  30.728  0.00  0.00    +0.044 C 
ATOM     28  C2  UNL     1       7.053   7.379  29.857  0.00  0.00    -0.048 A 
ATOM     29  C3  UNL     1       7.329   8.675  30.360  0.00  0.00    +0.005 A 
ATOM     30  C4  UNL     1       7.995   9.626  29.566  0.00  0.00    +0.028 A 
ATOM     31  C5  UNL     1       8.387   9.246  28.276  0.00  0.00    +0.069 A 
ATOM     32  C6  UNL     1       8.131   7.994  27.799  0.00  0.00    +0.090 A 
ATOM     33  C7  UNL     1       7.475   7.028  28.559  0.00  0.00    +0.033 A 
ATOM     34  N1  UNL     1       8.591   7.862  26.547  0.00  0.00    -0.231 NA
ATOM     35  C8  UNL     1       9.125   9.082  26.278  0.00  0.00    +0.128 A 
ATOM     36  N5  UNL     1       9.034   9.958  27.327  0.00  0.00    -0.323 N 
BRANCH  36  37
ATOM     37  C27 UNL     1       9.467  11.367  27.424  0.00  0.00    +0.089 C 
ATOM     38  C28 UNL     1      10.714  11.517  28.333  0.00  0.00    +0.025 C 
ATOM     39  C29 UNL     1      10.756  12.865  29.076  0.00  0.00    +0.002 C 
ATOM     40  C30 UNL     1      10.229  14.001  28.192  0.00  0.00    +0.000 C 
ATOM     41  C31 UNL     1       8.756  13.782  27.775  0.00  0.00    +0.002 C 
ATOM     42  C32 UNL     1       8.315  12.306  27.829  0.00  0.00    +0.025 C 
ENDBRANCH  36  37
ENDBRANCH  26  35
ENDBRANCH   1  26
TORSDOF 7
ENDMDL
MODEL 6
REMARK VINA RESULT:    -7.492     11.217     13.697
REMARK INTER + INTRA:         -12.072
REMARK INTER:                 -10.986
REMARK INTRA:                  -1.086
REMARK UNBOUND:                -1.514
REMARK  Name = /home/qwerty/github/datacon2025hack/step_04_hit_selection/docking/ligands/lig_334.pdb
REMARK  8 active torsions:
REMARK  status: ('A' for Active; 'I' for Inactive)
REMARK    1  A    between atoms: C1_1  and  C2_2
REMARK    2  A    between atoms: C8_9  and  C9_10
REMARK    3  A    between atoms: C9_10  and  N2_11
REMARK    4  A    between atoms: C10_12  and  C11_14
REMARK    5  A    between atoms: C15_18  and  N3_19
REMARK    6  A    between atoms: C16_20  and  C17_22
REMARK    7  A    between atoms: C20_25  and  C21_26
REMARK    8  A    between atoms: N5_34  and  C27_35
REMARK                            x       y       z     vdW  Elec       q    Type
REMARK                         _______ _______ _______ _____ _____    ______ ____
ROOT
ATOM      1  N2  UNL     1       9.123  10.024  24.797  0.00  0.00    -0.304 N 
ATOM      2  C10 UNL     1       8.703  10.015  23.424  0.00  0.00    +0.244 C 
ATOM      3  O1  UNL     1       7.632  10.598  23.101  0.00  0.00    -0.270 OA
ATOM      4  H9  UNL     1      10.096   9.733  25.043  0.00  0.00    +0.149 HD
ENDROOT
BRANCH   2   5
ATOM      5  C11 UNL     1       9.509   9.342  22.373  0.00  0.00    +0.038 A 
ATOM      6  C12 UNL     1       9.647   9.900  21.089  0.00  0.00    +0.013 A 
ATOM      7  C13 UNL     1      10.424   9.262  20.120  0.00  0.00    +0.003 A 
ATOM      8  C14 UNL     1      11.077   8.064  20.415  0.00  0.00    +0.023 A 
ATOM      9  C15 UNL     1      10.949   7.486  21.689  0.00  0.00    +0.034 A 
ATOM     10  C26 UNL     1      10.179   8.139  22.664  0.00  0.00    +0.036 A 
BRANCH   9  11
ATOM     11  N3  UNL     1      11.651   6.279  22.037  0.00  0.00    -0.281 N 
ATOM     12  C16 UNL     1      11.341   4.988  21.479  0.00  0.00    +0.250 C 
ATOM     13  O2  UNL     1      10.231   4.814  20.903  0.00  0.00    -0.270 OA
ATOM     14  H13 UNL     1      12.383   6.362  22.776  0.00  0.00    +0.155 HD
BRANCH  12  15
ATOM     15  C17 UNL     1      12.294   3.847  21.558  0.00  0.00    +0.055 A 
ATOM     16  C18 UNL     1      13.020   3.627  22.742  0.00  0.00    +0.016 A 
ATOM     17  C19 UNL     1      13.906   2.554  22.842  0.00  0.00    +0.029 A 
ATOM     18  C20 UNL     1      14.075   1.692  21.751  0.00  0.00    +0.078 A 
ATOM     19  N4  UNL     1      13.375   1.925  20.608  0.00  0.00    -0.254 NA
ATOM     20  C25 UNL     1      12.504   2.962  20.484  0.00  0.00    +0.124 A 
BRANCH  18  21
ATOM     21  C21 UNL     1      14.995   0.540  21.815  0.00  0.00    +0.038 A 
ATOM     22  C22 UNL     1      15.968   0.225  20.871  0.00  0.00    +0.017 A 
ATOM     23  C23 UNL     1      16.693  -0.933  21.182  0.00  0.00    +0.008 A 
ATOM     24  C24 UNL     1      16.300  -1.538  22.368  0.00  0.00    +0.046 A 
ATOM     25  S1  UNL     1      15.050  -0.629  23.029  0.00  0.00    -0.095 S 
ENDBRANCH  18  21
ENDBRANCH  12  15
ENDBRANCH   9  11
ENDBRANCH   2   5
BRANCH   1  26
ATOM     26  C9  UNL     1       8.256  10.556  25.849  0.00  0.00    +0.179 C 
BRANCH  26  35
ATOM     27  C1  UNL     1       6.234   4.412  29.323  0.00  0.00    +0.044 C 
ATOM     28  C2  UNL     1       6.750   5.802  29.094  0.00  0.00    -0.048 A 
ATOM     29  C3  UNL     1       7.277   6.551  30.175  0.00  0.00    +0.005 A 
ATOM     30  C4  UNL     1       7.796   7.842  29.968  0.00  0.00    +0.028 A 
ATOM     31  C5  UNL     1       7.786   8.352  28.663  0.00  0.00    +0.069 A 
ATOM     32  C6  UNL     1       7.289   7.624  27.622  0.00  0.00    +0.090 A 
ATOM     33  C7  UNL     1       6.770   6.343  27.792  0.00  0.00    +0.033 A 
ATOM     34  N1  UNL     1       7.380   8.315  26.477  0.00  0.00    -0.231 NA
ATOM     35  C8  UNL     1       7.939   9.491  26.862  0.00  0.00    +0.128 A 
ATOM     36  N5  UNL     1       8.221   9.546  28.202  0.00  0.00    -0.323 N 
BRANCH  36  37
ATOM     37  C27 UNL     1       8.802  10.644  29.003  0.00  0.00    +0.089 C 
ATOM     38  C28 UNL     1       7.827  11.844  29.113  0.00  0.00    +0.025 C 
ATOM     39  C29 UNL     1       8.552  13.198  29.216  0.00  0.00    +0.002 C 
ATOM     40  C30 UNL     1       9.827  13.081  30.057  0.00  0.00    +0.000 C 
ATOM     41  C31 UNL     1      10.844  12.091  29.445  0.00  0.00    +0.002 C 
ATOM     42  C32 UNL     1      10.201  11.053  28.504  0.00  0.00    +0.025 C 
ENDBRANCH  36  37
ENDBRANCH  26  35
ENDBRANCH   1  26
TORSDOF 7
ENDMDL
MODEL 7
REMARK VINA RESULT:    -7.427      9.512     13.170
REMARK INTER + INTRA:         -11.980
REMARK INTER:                 -11.068
REMARK INTRA:                  -0.911
REMARK UNBOUND:                -1.514
REMARK  Name = /home/qwerty/github/datacon2025hack/step_04_hit_selection/docking/ligands/lig_334.pdb
REMARK  8 active torsions:
REMARK  status: ('A' for Active; 'I' for Inactive)
REMARK    1  A    between atoms: C1_1  and  C2_2
REMARK    2  A    between atoms: C8_9  and  C9_10
REMARK    3  A    between atoms: C9_10  and  N2_11
REMARK    4  A    between atoms: C10_12  and  C11_14
REMARK    5  A    between atoms: C15_18  and  N3_19
REMARK    6  A    between atoms: C16_20  and  C17_22
REMARK    7  A    between atoms: C20_25  and  C21_26
REMARK    8  A    between atoms: N5_34  and  C27_35
REMARK                            x       y       z     vdW  Elec       q    Type
REMARK                         _______ _______ _______ _____ _____    ______ ____
ROOT
ATOM      1  N2  UNL     1      19.329   8.839  37.587  0.00  0.00    -0.304 N 
ATOM      2  C10 UNL     1      19.567   7.496  37.138  0.00  0.00    +0.244 C 
ATOM      3  O1  UNL     1      18.605   6.681  37.087  0.00  0.00    -0.270 OA
ATOM      4  H9  UNL     1      20.058   9.572  37.436  0.00  0.00    +0.149 HD
ENDROOT
BRANCH   2   5
ATOM      5  C11 UNL     1      20.920   7.049  36.718  0.00  0.00    +0.038 A 
ATOM      6  C12 UNL     1      22.008   7.079  37.610  0.00  0.00    +0.013 A 
ATOM      7  C13 UNL     1      23.269   6.636  37.203  0.00  0.00    +0.003 A 
ATOM      8  C14 UNL     1      23.463   6.156  35.907  0.00  0.00    +0.023 A 
ATOM      9  C15 UNL     1      22.392   6.121  34.998  0.00  0.00    +0.034 A 
ATOM     10  C26 UNL     1      21.124   6.553  35.417  0.00  0.00    +0.036 A 
BRANCH   9  11
ATOM     11  N3  UNL     1      22.552   5.583  33.673  0.00  0.00    -0.281 N 
ATOM     12  C16 UNL     1      22.068   4.286  33.277  0.00  0.00    +0.250 C 
ATOM     13  O2  UNL     1      21.769   3.440  34.165  0.00  0.00    -0.270 OA
ATOM     14  H13 UNL     1      23.098   6.161  32.998  0.00  0.00    +0.155 HD
BRANCH  12  15
ATOM     15  C17 UNL     1      21.908   3.909  31.845  0.00  0.00    +0.055 A 
ATOM     16  C18 UNL     1      22.082   2.570  31.454  0.00  0.00    +0.016 A 
ATOM     17  C19 UNL     1      21.922   2.194  30.120  0.00  0.00    +0.029 A 
ATOM     18  C20 UNL     1      21.589   3.162  29.163  0.00  0.00    +0.078 A 
ATOM     19  N4  UNL     1      21.436   4.455  29.555  0.00  0.00    -0.254 NA
ATOM     20  C25 UNL     1      21.586   4.849  30.848  0.00  0.00    +0.124 A 
BRANCH  18  21
ATOM     21  C21 UNL     1      21.401   2.808  27.743  0.00  0.00    +0.038 A 
ATOM     22  C22 UNL     1      22.090   3.366  26.670  0.00  0.00    +0.017 A 
ATOM     23  C23 UNL     1      21.701   2.848  25.428  0.00  0.00    +0.008 A 
ATOM     24  C24 UNL     1      20.709   1.881  25.510  0.00  0.00    +0.046 A 
ATOM     25  S1  UNL     1      20.316   1.671  27.131  0.00  0.00    -0.095 S 
ENDBRANCH  18  21
ENDBRANCH  12  15
ENDBRANCH   9  11
ENDBRANCH   2   5
BRANCH   1  26
ATOM     26  C9  UNL     1      18.033   9.233  38.139  0.00  0.00    +0.179 C 
BRANCH  26  35
ATOM     27  C1  UNL     1      14.321  15.188  35.983  0.00  0.00    +0.044 C 
ATOM     28  C2  UNL     1      15.285  14.040  35.963  0.00  0.00    -0.048 A 
ATOM     29  C3  UNL     1      16.188  13.890  34.881  0.00  0.00    +0.005 A 
ATOM     30  C4  UNL     1      17.121  12.837  34.866  0.00  0.00    +0.028 A 
ATOM     31  C5  UNL     1      17.136  11.957  35.956  0.00  0.00    +0.069 A 
ATOM     32  C6  UNL     1      16.274  12.111  37.001  0.00  0.00    +0.090 A 
ATOM     33  C7  UNL     1      15.340  13.143  37.049  0.00  0.00    +0.033 A 
ATOM     34  N1  UNL     1      16.469  11.154  37.919  0.00  0.00    -0.231 NA
ATOM     35  C8  UNL     1      17.473  10.408  37.388  0.00  0.00    +0.128 A 
ATOM     36  N5  UNL     1      17.923  10.883  36.184  0.00  0.00    -0.323 N 
BRANCH  36  37
ATOM     37  C27 UNL     1      18.970  10.348  35.288  0.00  0.00    +0.089 C 
ATOM     38  C28 UNL     1      20.052  11.415  34.980  0.00  0.00    +0.025 C 
ATOM     39  C29 UNL     1      20.672  11.252  33.580  0.00  0.00    +0.002 C 
ATOM     40  C30 UNL     1      20.832   9.773  33.213  0.00  0.00    +0.000 C 
ATOM     41  C31 UNL     1      19.477   9.029  33.175  0.00  0.00    +0.002 C 
ATOM     42  C32 UNL     1      18.379   9.711  34.016  0.00  0.00    +0.025 C 
ENDBRANCH  36  37
ENDBRANCH  26  35
ENDBRANCH   1  26
TORSDOF 7
ENDMDL
MODEL 8
REMARK VINA RESULT:    -7.414      9.577     13.840
REMARK INTER + INTRA:         -11.962
REMARK INTER:                 -10.607
REMARK INTRA:                  -1.355
REMARK UNBOUND:                -1.514
REMARK  Name = /home/qwerty/github/datacon2025hack/step_04_hit_selection/docking/ligands/lig_334.pdb
REMARK  8 active torsions:
REMARK  status: ('A' for Active; 'I' for Inactive)
REMARK    1  A    between atoms: C1_1  and  C2_2
REMARK    2  A    between atoms: C8_9  and  C9_10
REMARK    3  A    between atoms: C9_10  and  N2_11
REMARK    4  A    between atoms: C10_12  and  C11_14
REMARK    5  A    between atoms: C15_18  and  N3_19
REMARK    6  A    between atoms: C16_20  and  C17_22
REMARK    7  A    between atoms: C20_25  and  C21_26
REMARK    8  A    between atoms: N5_34  and  C27_35
REMARK                            x       y       z     vdW  Elec       q    Type
REMARK                         _______ _______ _______ _____ _____    ______ ____
ROOT
ATOM      1  N2  UNL     1      12.344   0.791  21.959  0.00  0.00    -0.304 N 
ATOM      2  C10 UNL     1      11.594   2.014  22.011  0.00  0.00    +0.244 C 
ATOM      3  O1  UNL     1      11.870   2.945  21.206  0.00  0.00    -0.270 OA
ATOM      4  H9  UNL     1      11.995  -0.053  22.466  0.00  0.00    +0.149 HD
ENDROOT
BRANCH   2   5
ATOM      5  C11 UNL     1      10.488   2.202  22.986  0.00  0.00    +0.038 A 
ATOM      6  C12 UNL     1       9.474   3.152  22.765  0.00  0.00    +0.013 A 
ATOM      7  C13 UNL     1       8.432   3.301  23.684  0.00  0.00    +0.003 A 
ATOM      8  C14 UNL     1       8.384   2.507  24.831  0.00  0.00    +0.023 A 
ATOM      9  C15 UNL     1       9.389   1.556  25.074  0.00  0.00    +0.034 A 
ATOM     10  C26 UNL     1      10.426   1.399  24.140  0.00  0.00    +0.036 A 
BRANCH   9  11
ATOM     11  N3  UNL     1       9.338   0.689  26.221  0.00  0.00    -0.281 N 
ATOM     12  C16 UNL     1      10.211   0.821  27.359  0.00  0.00    +0.250 C 
ATOM     13  O2  UNL     1      11.267   1.504  27.252  0.00  0.00    -0.270 OA
ATOM     14  H13 UNL     1       8.660  -0.103  26.178  0.00  0.00    +0.155 HD
BRANCH  12  15
ATOM     15  C17 UNL     1       9.904   0.176  28.666  0.00  0.00    +0.055 A 
ATOM     16  C18 UNL     1      10.055  -1.215  28.807  0.00  0.00    +0.016 A 
ATOM     17  C19 UNL     1       9.789  -1.838  30.027  0.00  0.00    +0.029 A 
ATOM     18  C20 UNL     1       9.362  -1.068  31.118  0.00  0.00    +0.078 A 
ATOM     19  N4  UNL     1       9.209   0.274  30.961  0.00  0.00    -0.254 NA
ATOM     20  C25 UNL     1       9.463   0.906  29.784  0.00  0.00    +0.124 A 
BRANCH  18  21
ATOM     21  C21 UNL     1       9.076  -1.683  32.429  0.00  0.00    +0.038 A 
ATOM     22  C22 UNL     1       8.155  -2.699  32.664  0.00  0.00    +0.017 A 
ATOM     23  C23 UNL     1       8.083  -3.085  34.009  0.00  0.00    +0.008 A 
ATOM     24  C24 UNL     1       8.943  -2.382  34.841  0.00  0.00    +0.046 A 
ATOM     25  S1  UNL     1       9.794  -1.278  33.900  0.00  0.00    -0.095 S 
ENDBRANCH  18  21
ENDBRANCH  12  15
ENDBRANCH   9  11
ENDBRANCH   2   5
BRANCH   1  26
ATOM     26  C9  UNL     1      13.524   0.665  21.103  0.00  0.00    +0.179 C 
BRANCH  26  35
ATOM     27  C1  UNL     1      19.635   3.970  23.475  0.00  0.00    +0.044 C 
ATOM     28  C2  UNL     1      18.488   3.007  23.398  0.00  0.00    -0.048 A 
ATOM     29  C3  UNL     1      18.290   2.055  24.429  0.00  0.00    +0.005 A 
ATOM     30  C4  UNL     1      17.198   1.169  24.387  0.00  0.00    +0.028 A 
ATOM     31  C5  UNL     1      16.313   1.268  23.306  0.00  0.00    +0.069 A 
ATOM     32  C6  UNL     1      16.499   2.193  22.321  0.00  0.00    +0.090 A 
ATOM     33  C7  UNL     1      17.568   3.087  22.333  0.00  0.00    +0.033 A 
ATOM     34  N1  UNL     1      15.535   2.098  21.395  0.00  0.00    -0.231 NA
ATOM     35  C8  UNL     1      14.764   1.076  21.847  0.00  0.00    +0.128 A 
ATOM     36  N5  UNL     1      15.202   0.549  23.034  0.00  0.00    -0.323 N 
BRANCH  36  37
ATOM     37  C27 UNL     1      14.660  -0.573  23.829  0.00  0.00    +0.089 C 
ATOM     38  C28 UNL     1      13.859  -0.066  25.055  0.00  0.00    +0.025 C 
ATOM     39  C29 UNL     1      13.933  -1.024  26.258  0.00  0.00    +0.002 C 
ATOM     40  C30 UNL     1      13.921  -2.486  25.803  0.00  0.00    +0.000 C 
ATOM     41  C31 UNL     1      15.129  -2.829  24.901  0.00  0.00    +0.002 C 
ATOM     42  C32 UNL     1      15.745  -1.599  24.206  0.00  0.00    +0.025 C 
ENDBRANCH  36  37
ENDBRANCH  26  35
ENDBRANCH   1  26
TORSDOF 7
ENDMDL
MODEL 9
REMARK VINA RESULT:    -7.376      6.007     11.424
REMARK INTER + INTRA:         -11.908
REMARK INTER:                 -10.813
REMARK INTRA:                  -1.095
REMARK UNBOUND:                -1.514
REMARK  Name = /home/qwerty/github/datacon2025hack/step_04_hit_selection/docking/ligands/lig_334.pdb
REMARK  8 active torsions:
REMARK  status: ('A' for Active; 'I' for Inactive)
REMARK    1  A    between atoms: C1_1  and  C2_2
REMARK    2  A    between atoms: C8_9  and  C9_10
REMARK    3  A    between atoms: C9_10  and  N2_11
REMARK    4  A    between atoms: C10_12  and  C11_14
REMARK    5  A    between atoms: C15_18  and  N3_19
REMARK    6  A    between atoms: C16_20  and  C17_22
REMARK    7  A    between atoms: C20_25  and  C21_26
REMARK    8  A    between atoms: N5_34  and  C27_35
REMARK                            x       y       z     vdW  Elec       q    Type
REMARK                         _______ _______ _______ _____ _____    ______ ____
ROOT
ATOM      1  N2  UNL     1      20.115   3.724  31.672  0.00  0.00    -0.304 N 
ATOM      2  C10 UNL     1      21.147   2.726  31.688  0.00  0.00    +0.244 C 
ATOM      3  O1  UNL     1      21.797   2.524  32.751  0.00  0.00    -0.270 OA
ATOM      4  H9  UNL     1      19.438   3.755  30.877  0.00  0.00    +0.149 HD
ENDROOT
BRANCH   2   5
ATOM      5  C11 UNL     1      21.458   1.914  30.483  0.00  0.00    +0.038 A 
ATOM      6  C12 UNL     1      21.429   0.508  30.521  0.00  0.00    +0.013 A 
ATOM      7  C13 UNL     1      21.706  -0.237  29.373  0.00  0.00    +0.003 A 
ATOM      8  C14 UNL     1      22.011   0.406  28.172  0.00  0.00    +0.023 A 
ATOM      9  C15 UNL     1      22.051   1.808  28.111  0.00  0.00    +0.034 A 
ATOM     10  C26 UNL     1      21.757   2.553  29.265  0.00  0.00    +0.036 A 
BRANCH   9  11
ATOM     11  N3  UNL     1      22.313   2.498  26.875  0.00  0.00    -0.281 N 
ATOM     12  C16 UNL     1      21.283   2.887  25.947  0.00  0.00    +0.250 C 
ATOM     13  O2  UNL     1      20.142   2.353  26.031  0.00  0.00    -0.270 OA
ATOM     14  H13 UNL     1      23.315   2.664  26.637  0.00  0.00    +0.155 HD
BRANCH  12  15
ATOM     15  C17 UNL     1      21.522   3.904  24.887  0.00  0.00    +0.055 A 
ATOM     16  C18 UNL     1      20.733   3.897  23.724  0.00  0.00    +0.016 A 
ATOM     17  C19 UNL     1      20.930   4.852  22.725  0.00  0.00    +0.029 A 
ATOM     18  C20 UNL     1      21.929   5.821  22.884  0.00  0.00    +0.078 A 
ATOM     19  N4  UNL     1      22.693   5.807  24.009  0.00  0.00    -0.254 NA
ATOM     20  C25 UNL     1      22.521   4.890  24.997  0.00  0.00    +0.124 A 
BRANCH  18  21
ATOM     21  C21 UNL     1      22.168   6.855  21.857  0.00  0.00    +0.038 A 
ATOM     22  C22 UNL     1      23.413   7.230  21.358  0.00  0.00    +0.017 A 
ATOM     23  C23 UNL     1      23.344   8.246  20.397  0.00  0.00    +0.008 A 
ATOM     24  C24 UNL     1      22.053   8.679  20.130  0.00  0.00    +0.046 A 
ATOM     25  S1  UNL     1      20.995   7.794  21.093  0.00  0.00    -0.095 S 
ENDBRANCH  18  21
ENDBRANCH  12  15
ENDBRANCH   9  11
ENDBRANCH   2   5
BRANCH   1  26
ATOM     26  C9  UNL     1      19.913   4.620  32.810  0.00  0.00    +0.179 C 
BRANCH  26  35
ATOM     27  C1  UNL     1      24.496   9.901  30.572  0.00  0.00    +0.044 C 
ATOM     28  C2  UNL     1      23.574   9.108  31.451  0.00  0.00    -0.048 A 
ATOM     29  C3  UNL     1      23.216   9.599  32.730  0.00  0.00    +0.005 A 
ATOM     30  C4  UNL     1      22.326   8.883  33.551  0.00  0.00    +0.028 A 
ATOM     31  C5  UNL     1      21.800   7.682  33.057  0.00  0.00    +0.069 A 
ATOM     32  C6  UNL     1      22.137   7.218  31.820  0.00  0.00    +0.090 A 
ATOM     33  C7  UNL     1      23.013   7.903  30.981  0.00  0.00    +0.033 A 
ATOM     34  N1  UNL     1      21.518   6.056  31.566  0.00  0.00    -0.231 NA
ATOM     35  C8  UNL     1      20.801   5.827  32.697  0.00  0.00    +0.128 A 
ATOM     36  N5  UNL     1      20.936   6.818  33.634  0.00  0.00    -0.323 N 
BRANCH  36  37
ATOM     37  C27 UNL     1      20.348   6.929  34.986  0.00  0.00    +0.089 C 
ATOM     38  C28 UNL     1      19.425   8.169  35.104  0.00  0.00    +0.025 C 
ATOM     39  C29 UNL     1      19.409   8.771  36.521  0.00  0.00    +0.002 C 
ATOM     40  C30 UNL     1      19.472   7.675  37.589  0.00  0.00    +0.000 C 
ATOM     41  C31 UNL     1      20.766   6.835  37.491  0.00  0.00    +0.002 C 
ATOM     42  C32 UNL     1      21.416   6.870  36.093  0.00  0.00    +0.025 C 
ENDBRANCH  36  37
ENDBRANCH  26  35
ENDBRANCH   1  26
TORSDOF 7
ENDMDL
