MODEL 1
REMARK VINA RESULT:    -7.152      0.000      0.000
REMARK INTER + INTRA:         -10.047
REMARK INTER:                  -9.243
REMARK INTRA:                  -0.805
REMARK UNBOUND:                -0.805
REMARK  Name = /home/qwerty/github/datacon2025hack/step_04_hit_selection/docking/ligands/lig_688.pdb
REMARK  6 active torsions:
REMARK  status: ('A' for Active; 'I' for Inactive)
REMARK    1  A    between atoms: C1_1  and  C2_2
REMARK    2  A    between atoms: C2_2  and  C3_3
REMARK    3  A    between atoms: C5_5  and  C6_6
REMARK    4  A    between atoms: C6_6  and  C7_7
REMARK    5  A    between atoms: N1_9  and  C8_10
REMARK    6  A    between atoms: C13_17  and  C14_19
REMARK                            x       y       z     vdW  Elec       q    Type
REMARK                         _______ _______ _______ _____ _____    ______ ____
ROOT
ATOM      1  C8  UNL     1      12.064   1.192  22.058  0.00  0.00    +0.035 A 
ATOM      2  C9  UNL     1      10.830   0.760  22.597  0.00  0.00    +0.025 A 
ATOM      3  C10 UNL     1       9.779   1.667  22.808  0.00  0.00    +0.031 A 
ATOM      4  C11 UNL     1       9.968   3.004  22.460  0.00  0.00    +0.080 A 
ATOM      5  N2  UNL     1       9.031   3.974  22.607  0.00  0.00    -0.225 NA
ATOM      6  C12 UNL     1       9.493   5.168  22.162  0.00  0.00    +0.166 A 
ATOM      7  N3  UNL     1       8.715   6.369  22.251  0.00  0.00    -0.261 N 
ATOM      8  C13 UNL     1       9.032   7.584  21.555  0.00  0.00    +0.250 C 
ATOM      9  O2  UNL     1       9.783   7.550  20.543  0.00  0.00    -0.270 OA
ATOM     10  S1  UNL     1      11.088   5.068  21.591  0.00  0.00    -0.052 S 
ATOM     11  C20 UNL     1      11.171   3.423  21.916  0.00  0.00    +0.043 A 
ATOM     12  C21 UNL     1      12.231   2.549  21.702  0.00  0.00    +0.040 A 
ATOM     13  H15 UNL     1       7.846   6.334  22.827  0.00  0.00    +0.157 HD
ENDROOT
BRANCH   8  14
ATOM     14  C14 UNL     1       8.449   8.878  21.984  0.00  0.00    +0.037 A 
ATOM     15  C15 UNL     1       8.431   9.986  21.118  0.00  0.00    +0.013 A 
ATOM     16  C16 UNL     1       7.876  11.201  21.534  0.00  0.00    +0.001 A 
ATOM     17  C17 UNL     1       7.330  11.322  22.814  0.00  0.00    +0.000 A 
ATOM     18  C18 UNL     1       7.335  10.227  23.680  0.00  0.00    +0.001 A 
ATOM     19  C19 UNL     1       7.887   9.010  23.268  0.00  0.00    +0.013 A 
ENDBRANCH   8  14
BRANCH   1  22
ATOM     20  C7  UNL     1      14.182  -0.029  22.726  0.00  0.00    +0.218 C 
ATOM     21  O1  UNL     1      14.070   0.262  23.949  0.00  0.00    -0.275 OA
ATOM     22  N1  UNL     1      13.099   0.228  21.815  0.00  0.00    -0.285 N 
ATOM     23  H12 UNL     1      13.048  -0.339  20.937  0.00  0.00    +0.155 HD
BRANCH  20  24
ATOM     24  C6  UNL     1      15.449  -0.662  22.231  0.00  0.00    +0.109 C 
BRANCH  24  27
ATOM     25  C3  UNL     1      15.625   2.531  20.470  0.00  0.00    +0.073 C 
ATOM     26  C4  UNL     1      15.928   1.833  21.822  0.00  0.00    +0.035 C 
ATOM     27  C5  UNL     1      16.333   0.371  21.512  0.00  0.00    +0.085 C 
ATOM     28  C22 UNL     1      16.167   0.288  20.043  0.00  0.00    +0.217 C 
ATOM     29  O3  UNL     1      16.390  -0.750  19.367  0.00  0.00    -0.275 OA
ATOM     30  N4  UNL     1      15.767   1.504  19.454  0.00  0.00    -0.312 N 
ATOM     31  H22 UNL     1      15.551   1.625  18.440  0.00  0.00    +0.149 HD
BRANCH  25  33
ATOM     32  C1  UNL     1      17.612   3.877  21.327  0.00  0.00    +0.006 C 
ATOM     33  C2  UNL     1      16.591   3.700  20.202  0.00  0.00    +0.019 C 
ENDBRANCH  25  33
ENDBRANCH  24  27
ENDBRANCH  20  24
ENDBRANCH   1  22
TORSDOF 5
ENDMDL
MODEL 2
REMARK VINA RESULT:    -7.112      5.490      6.821
REMARK INTER + INTRA:          -9.995
REMARK INTER:                  -9.212
REMARK INTRA:                  -0.783
REMARK UNBOUND:                -0.805
REMARK  Name = /home/qwerty/github/datacon2025hack/step_04_hit_selection/docking/ligands/lig_688.pdb
REMARK  6 active torsions:
REMARK  status: ('A' for Active; 'I' for Inactive)
REMARK    1  A    between atoms: C1_1  and  C2_2
REMARK    2  A    between atoms: C2_2  and  C3_3
REMARK    3  A    between atoms: C5_5  and  C6_6
REMARK    4  A    between atoms: C6_6  and  C7_7
REMARK    5  A    between atoms: N1_9  and  C8_10
REMARK    6  A    between atoms: C13_17  and  C14_19
REMARK                            x       y       z     vdW  Elec       q    Type
REMARK                         _______ _______ _______ _____ _____    ______ ____
ROOT
ATOM      1  C8  UNL     1      14.682   1.304  21.363  0.00  0.00    +0.035 A 
ATOM      2  C9  UNL     1      13.556   1.771  20.645  0.00  0.00    +0.025 A 
ATOM      3  C10 UNL     1      13.566   3.032  20.030  0.00  0.00    +0.031 A 
ATOM      4  C11 UNL     1      14.716   3.815  20.124  0.00  0.00    +0.080 A 
ATOM      5  N2  UNL     1      14.853   5.045  19.568  0.00  0.00    -0.225 NA
ATOM      6  C12 UNL     1      16.088   5.551  19.807  0.00  0.00    +0.166 A 
ATOM      7  N3  UNL     1      16.474   6.861  19.371  0.00  0.00    -0.261 N 
ATOM      8  C13 UNL     1      17.830   7.332  19.349  0.00  0.00    +0.250 C 
ATOM      9  O2  UNL     1      18.781   6.506  19.348  0.00  0.00    -0.270 OA
ATOM     10  S1  UNL     1      17.045   4.500  20.735  0.00  0.00    -0.052 S 
ATOM     11  C20 UNL     1      15.825   3.350  20.812  0.00  0.00    +0.043 A 
ATOM     12  C21 UNL     1      15.842   2.108  21.436  0.00  0.00    +0.040 A 
ATOM     13  H15 UNL     1      15.720   7.486  19.012  0.00  0.00    +0.157 HD
ENDROOT
BRANCH   8  14
ATOM     14  C14 UNL     1      18.127   8.783  19.278  0.00  0.00    +0.037 A 
ATOM     15  C15 UNL     1      19.426   9.243  18.997  0.00  0.00    +0.013 A 
ATOM     16  C16 UNL     1      19.693  10.614  18.933  0.00  0.00    +0.001 A 
ATOM     17  C17 UNL     1      18.668  11.540  19.142  0.00  0.00    +0.000 A 
ATOM     18  C18 UNL     1      17.374  11.096  19.414  0.00  0.00    +0.001 A 
ATOM     19  C19 UNL     1      17.101   9.726  19.479  0.00  0.00    +0.013 A 
ENDBRANCH   8  14
BRANCH   1  22
ATOM     20  C7  UNL     1      14.660  -0.260  23.356  0.00  0.00    +0.218 C 
ATOM     21  O1  UNL     1      14.283   0.632  24.165  0.00  0.00    -0.275 OA
ATOM     22  N1  UNL     1      14.652  -0.010  21.940  0.00  0.00    -0.285 N 
ATOM     23  H12 UNL     1      14.593  -0.831  21.294  0.00  0.00    +0.155 HD
BRANCH  20  24
ATOM     24  C6  UNL     1      15.103  -1.594  23.883  0.00  0.00    +0.109 C 
BRANCH  24  27
ATOM     25  C3  UNL     1      18.068   0.336  24.784  0.00  0.00    +0.073 C 
ATOM     26  C4  UNL     1      17.025  -0.676  25.327  0.00  0.00    +0.035 C 
ATOM     27  C5  UNL     1      16.617  -1.600  24.154  0.00  0.00    +0.085 C 
ATOM     28  C22 UNL     1      17.367  -1.033  23.011  0.00  0.00    +0.217 C 
ATOM     29  O3  UNL     1      17.318  -1.491  21.839  0.00  0.00    -0.275 OA
ATOM     30  N4  UNL     1      18.185   0.059  23.363  0.00  0.00    -0.312 N 
ATOM     31  H22 UNL     1      18.747   0.619  22.684  0.00  0.00    +0.149 HD
BRANCH  25  33
ATOM     32  C1  UNL     1      20.331   1.399  25.277  0.00  0.00    +0.006 C 
ATOM     33  C2  UNL     1      19.431   0.181  25.483  0.00  0.00    +0.019 C 
ENDBRANCH  25  33
ENDBRANCH  24  27
ENDBRANCH  20  24
ENDBRANCH   1  22
TORSDOF 5
ENDMDL
MODEL 3
REMARK VINA RESULT:    -6.930      4.889     10.265
REMARK INTER + INTRA:          -9.761
REMARK INTER:                  -9.236
REMARK INTRA:                  -0.525
REMARK UNBOUND:                -0.805
REMARK  Name = /home/qwerty/github/datacon2025hack/step_04_hit_selection/docking/ligands/lig_688.pdb
REMARK  6 active torsions:
REMARK  status: ('A' for Active; 'I' for Inactive)
REMARK    1  A    between atoms: C1_1  and  C2_2
REMARK    2  A    between atoms: C2_2  and  C3_3
REMARK    3  A    between atoms: C5_5  and  C6_6
REMARK    4  A    between atoms: C6_6  and  C7_7
REMARK    5  A    between atoms: N1_9  and  C8_10
REMARK    6  A    between atoms: C13_17  and  C14_19
REMARK                            x       y       z     vdW  Elec       q    Type
REMARK                         _______ _______ _______ _____ _____    ______ ____
ROOT
ATOM      1  C8  UNL     1       8.664   5.279  22.332  0.00  0.00    +0.035 A 
ATOM      2  C9  UNL     1       9.350   4.266  21.623  0.00  0.00    +0.025 A 
ATOM      3  C10 UNL     1       9.613   3.023  22.218  0.00  0.00    +0.031 A 
ATOM      4  C11 UNL     1       9.169   2.795  23.520  0.00  0.00    +0.080 A 
ATOM      5  N2  UNL     1       9.353   1.636  24.201  0.00  0.00    -0.225 NA
ATOM      6  C12 UNL     1       8.792   1.702  25.433  0.00  0.00    +0.166 A 
ATOM      7  N3  UNL     1       8.889   0.626  26.375  0.00  0.00    -0.261 N 
ATOM      8  C13 UNL     1       8.093   0.527  27.566  0.00  0.00    +0.250 C 
ATOM      9  O2  UNL     1       7.014   1.171  27.654  0.00  0.00    -0.270 OA
ATOM     10  S1  UNL     1       8.068   3.208  25.731  0.00  0.00    -0.052 S 
ATOM     11  C20 UNL     1       8.481   3.781  24.208  0.00  0.00    +0.043 A 
ATOM     12  C21 UNL     1       8.212   5.024  23.647  0.00  0.00    +0.040 A 
ATOM     13  H15 UNL     1       9.552  -0.148  26.150  0.00  0.00    +0.157 HD
ENDROOT
BRANCH   8  14
ATOM     14  C14 UNL     1       8.502  -0.363  28.679  0.00  0.00    +0.037 A 
ATOM     15  C15 UNL     1       9.648  -1.171  28.576  0.00  0.00    +0.013 A 
ATOM     16  C16 UNL     1      10.023  -2.006  29.634  0.00  0.00    +0.001 A 
ATOM     17  C17 UNL     1       9.264  -2.040  30.805  0.00  0.00    +0.000 A 
ATOM     18  C18 UNL     1       8.129  -1.237  30.923  0.00  0.00    +0.001 A 
ATOM     19  C19 UNL     1       7.749  -0.400  29.869  0.00  0.00    +0.013 A 
ENDBRANCH   8  14
BRANCH   1  22
ATOM     20  C7  UNL     1       9.304   7.615  21.587  0.00  0.00    +0.218 C 
ATOM     21  O1  UNL     1      10.543   7.410  21.707  0.00  0.00    -0.275 OA
ATOM     22  N1  UNL     1       8.373   6.522  21.675  0.00  0.00    -0.285 N 
ATOM     23  H12 UNL     1       7.441   6.629  21.212  0.00  0.00    +0.155 HD
BRANCH  20  24
ATOM     24  C6  UNL     1       8.808   9.008  21.332  0.00  0.00    +0.109 C 
BRANCH  24  27
ATOM     25  C3  UNL     1       7.554   9.486  24.728  0.00  0.00    +0.073 C 
ATOM     26  C4  UNL     1       8.773   8.989  23.905  0.00  0.00    +0.035 C 
ATOM     27  C5  UNL     1       8.850   9.848  22.620  0.00  0.00    +0.085 C 
ATOM     28  C22 UNL     1       7.657  10.717  22.732  0.00  0.00    +0.217 C 
ATOM     29  O3  UNL     1       7.332  11.581  21.876  0.00  0.00    -0.275 OA
ATOM     30  N4  UNL     1       6.924  10.514  23.918  0.00  0.00    -0.312 N 
ATOM     31  H22 UNL     1       6.027  10.997  24.148  0.00  0.00    +0.149 HD
BRANCH  25  33
ATOM     32  C1  UNL     1       7.581   9.143  27.252  0.00  0.00    +0.006 C 
ATOM     33  C2  UNL     1       7.983  10.055  26.093  0.00  0.00    +0.019 C 
ENDBRANCH  25  33
ENDBRANCH  24  27
ENDBRANCH  20  24
ENDBRANCH   1  22
TORSDOF 5
ENDMDL
MODEL 4
REMARK VINA RESULT:    -6.885      8.796     11.633
REMARK INTER + INTRA:          -9.702
REMARK INTER:                  -9.081
REMARK INTRA:                  -0.621
REMARK UNBOUND:                -0.805
REMARK  Name = /home/qwerty/github/datacon2025hack/step_04_hit_selection/docking/ligands/lig_688.pdb
REMARK  6 active torsions:
REMARK  status: ('A' for Active; 'I' for Inactive)
REMARK    1  A    between atoms: C1_1  and  C2_2
REMARK    2  A    between atoms: C2_2  and  C3_3
REMARK    3  A    between atoms: C5_5  and  C6_6
REMARK    4  A    between atoms: C6_6  and  C7_7
REMARK    5  A    between atoms: N1_9  and  C8_10
REMARK    6  A    between atoms: C13_17  and  C14_19
REMARK                            x       y       z     vdW  Elec       q    Type
REMARK                         _______ _______ _______ _____ _____    ______ ____
ROOT
ATOM      1  C8  UNL     1      17.496   8.918  19.160  0.00  0.00    +0.035 A 
ATOM      2  C9  UNL     1      16.678  10.072  19.147  0.00  0.00    +0.025 A 
ATOM      3  C10 UNL     1      17.208  11.334  19.457  0.00  0.00    +0.031 A 
ATOM      4  C11 UNL     1      18.564  11.435  19.765  0.00  0.00    +0.080 A 
ATOM      5  N2  UNL     1      19.196  12.595  20.074  0.00  0.00    -0.225 NA
ATOM      6  C12 UNL     1      20.515  12.383  20.303  0.00  0.00    +0.166 A 
ATOM      7  N3  UNL     1      21.401  13.439  20.699  0.00  0.00    -0.261 N 
ATOM      8  C13 UNL     1      22.832  13.335  20.682  0.00  0.00    +0.250 C 
ATOM      9  O2  UNL     1      23.390  12.459  19.968  0.00  0.00    -0.270 OA
ATOM     10  S1  UNL     1      20.941  10.747  20.152  0.00  0.00    -0.052 S 
ATOM     11  C20 UNL     1      19.369  10.307  19.761  0.00  0.00    +0.043 A 
ATOM     12  C21 UNL     1      18.870   9.044  19.464  0.00  0.00    +0.040 A 
ATOM     13  H15 UNL     1      20.968  14.348  20.974  0.00  0.00    +0.157 HD
ENDROOT
BRANCH   8  14
ATOM     14  C14 UNL     1      23.670  14.278  21.460  0.00  0.00    +0.037 A 
ATOM     15  C15 UNL     1      24.200  15.437  20.864  0.00  0.00    +0.013 A 
ATOM     16  C16 UNL     1      24.988  16.320  21.610  0.00  0.00    +0.001 A 
ATOM     17  C17 UNL     1      25.252  16.060  22.956  0.00  0.00    +0.000 A 
ATOM     18  C18 UNL     1      24.726  14.917  23.561  0.00  0.00    +0.001 A 
ATOM     19  C19 UNL     1      23.936  14.032  22.821  0.00  0.00    +0.013 A 
ENDBRANCH   8  14
BRANCH   1  22
ATOM     20  C7  UNL     1      16.747   6.562  19.713  0.00  0.00    +0.218 C 
ATOM     21  O1  UNL     1      16.684   6.777  20.955  0.00  0.00    -0.275 OA
ATOM     22  N1  UNL     1      16.929   7.652  18.793  0.00  0.00    -0.285 N 
ATOM     23  H12 UNL     1      16.605   7.524  17.806  0.00  0.00    +0.155 HD
BRANCH  20  24
ATOM     24  C6  UNL     1      16.612   5.158  19.200  0.00  0.00    +0.109 C 
BRANCH  24  27
ATOM     25  C3  UNL     1      15.379   1.828  20.053  0.00  0.00    +0.073 C 
ATOM     26  C4  UNL     1      16.468   2.881  20.391  0.00  0.00    +0.035 C 
ATOM     27  C5  UNL     1      15.838   4.282  20.201  0.00  0.00    +0.085 C 
ATOM     28  C22 UNL     1      14.481   3.968  19.699  0.00  0.00    +0.217 C 
ATOM     29  O3  UNL     1      13.620   4.838  19.406  0.00  0.00    -0.275 OA
ATOM     30  N4  UNL     1      14.220   2.585  19.614  0.00  0.00    -0.312 N 
ATOM     31  H22 UNL     1      13.339   2.173  19.236  0.00  0.00    +0.149 HD
BRANCH  25  33
ATOM     32  C1  UNL     1      13.539   0.997  21.609  0.00  0.00    +0.006 C 
ATOM     33  C2  UNL     1      15.030   0.957  21.274  0.00  0.00    +0.019 C 
ENDBRANCH  25  33
ENDBRANCH  24  27
ENDBRANCH  20  24
ENDBRANCH   1  22
TORSDOF 5
ENDMDL
MODEL 5
REMARK VINA RESULT:    -6.803     14.277     15.521
REMARK INTER + INTRA:          -9.596
REMARK INTER:                  -8.881
REMARK INTRA:                  -0.715
REMARK UNBOUND:                -0.805
REMARK  Name = /home/qwerty/github/datacon2025hack/step_04_hit_selection/docking/ligands/lig_688.pdb
REMARK  6 active torsions:
REMARK  status: ('A' for Active; 'I' for Inactive)
REMARK    1  A    between atoms: C1_1  and  C2_2
REMARK    2  A    between atoms: C2_2  and  C3_3
REMARK    3  A    between atoms: C5_5  and  C6_6
REMARK    4  A    between atoms: C6_6  and  C7_7
REMARK    5  A    between atoms: N1_9  and  C8_10
REMARK    6  A    between atoms: C13_17  and  C14_19
REMARK                            x       y       z     vdW  Elec       q    Type
REMARK                         _______ _______ _______ _____ _____    ______ ____
ROOT
ATOM      1  C8  UNL     1      21.886   6.011  34.675  0.00  0.00    +0.035 A 
ATOM      2  C9  UNL     1      22.762   6.932  35.295  0.00  0.00    +0.025 A 
ATOM      3  C10 UNL     1      22.275   8.121  35.859  0.00  0.00    +0.031 A 
ATOM      4  C11 UNL     1      20.904   8.373  35.813  0.00  0.00    +0.080 A 
ATOM      5  N2  UNL     1      20.310   9.479  36.328  0.00  0.00    -0.225 NA
ATOM      6  C12 UNL     1      18.967   9.435  36.153  0.00  0.00    +0.166 A 
ATOM      7  N3  UNL     1      18.108  10.507  36.562  0.00  0.00    -0.261 N 
ATOM      8  C13 UNL     1      16.679  10.400  36.658  0.00  0.00    +0.250 C 
ATOM      9  O2  UNL     1      16.141   9.265  36.755  0.00  0.00    -0.270 OA
ATOM     10  S1  UNL     1      18.470   8.033  35.334  0.00  0.00    -0.052 S 
ATOM     11  C20 UNL     1      20.045   7.463  35.221  0.00  0.00    +0.043 A 
ATOM     12  C21 UNL     1      20.499   6.280  34.648  0.00  0.00    +0.040 A 
ATOM     13  H15 UNL     1      18.563  11.402  36.845  0.00  0.00    +0.157 HD
ENDROOT
BRANCH   8  14
ATOM     14  C14 UNL     1      15.829  11.614  36.691  0.00  0.00    +0.037 A 
ATOM     15  C15 UNL     1      14.426  11.513  36.732  0.00  0.00    +0.013 A 
ATOM     16  C16 UNL     1      13.635  12.665  36.764  0.00  0.00    +0.001 A 
ATOM     17  C17 UNL     1      14.232  13.928  36.760  0.00  0.00    +0.000 A 
ATOM     18  C18 UNL     1      15.622  14.041  36.727  0.00  0.00    +0.001 A 
ATOM     19  C19 UNL     1      16.418  12.892  36.696  0.00  0.00    +0.013 A 
ENDBRANCH   8  14
BRANCH   1  22
ATOM     20  C7  UNL     1      22.467   4.474  32.746  0.00  0.00    +0.218 C 
ATOM     21  O1  UNL     1      22.441   5.397  31.886  0.00  0.00    -0.275 OA
ATOM     22  N1  UNL     1      22.415   4.784  34.149  0.00  0.00    -0.285 N 
ATOM     23  H12 UNL     1      22.809   4.088  34.824  0.00  0.00    +0.155 HD
BRANCH  20  24
ATOM     24  C6  UNL     1      22.570   3.047  32.293  0.00  0.00    +0.109 C 
BRANCH  24  27
ATOM     25  C3  UNL     1      20.195   0.276  32.373  0.00  0.00    +0.073 C 
ATOM     26  C4  UNL     1      20.497   1.678  32.964  0.00  0.00    +0.035 C 
ATOM     27  C5  UNL     1      21.196   2.509  31.861  0.00  0.00    +0.085 C 
ATOM     28  C22 UNL     1      21.326   1.539  30.750  0.00  0.00    +0.217 C 
ATOM     29  O3  UNL     1      21.854   1.807  29.639  0.00  0.00    -0.275 OA
ATOM     30  N4  UNL     1      20.763   0.279  31.037  0.00  0.00    -0.312 N 
ATOM     31  H22 UNL     1      20.804  -0.545  30.397  0.00  0.00    +0.149 HD
BRANCH  25  33
ATOM     32  C1  UNL     1      17.872   1.025  33.106  0.00  0.00    +0.006 C 
ATOM     33  C2  UNL     1      18.682  -0.007  32.321  0.00  0.00    +0.019 C 
ENDBRANCH  25  33
ENDBRANCH  24  27
ENDBRANCH  20  24
ENDBRANCH   1  22
TORSDOF 5
ENDMDL
MODEL 6
REMARK VINA RESULT:    -6.797     14.026     15.831
REMARK INTER + INTRA:          -9.589
REMARK INTER:                  -8.999
REMARK INTRA:                  -0.589
REMARK UNBOUND:                -0.805
REMARK  Name = /home/qwerty/github/datacon2025hack/step_04_hit_selection/docking/ligands/lig_688.pdb
REMARK  6 active torsions:
REMARK  status: ('A' for Active; 'I' for Inactive)
REMARK    1  A    between atoms: C1_1  and  C2_2
REMARK    2  A    between atoms: C2_2  and  C3_3
REMARK    3  A    between atoms: C5_5  and  C6_6
REMARK    4  A    between atoms: C6_6  and  C7_7
REMARK    5  A    between atoms: N1_9  and  C8_10
REMARK    6  A    between atoms: C13_17  and  C14_19
REMARK                            x       y       z     vdW  Elec       q    Type
REMARK                         _______ _______ _______ _____ _____    ______ ____
ROOT
ATOM      1  C8  UNL     1      16.089  13.459  36.021  0.00  0.00    +0.035 A 
ATOM      2  C9  UNL     1      15.391  14.599  36.484  0.00  0.00    +0.025 A 
ATOM      3  C10 UNL     1      14.240  15.055  35.824  0.00  0.00    +0.031 A 
ATOM      4  C11 UNL     1      13.783  14.354  34.709  0.00  0.00    +0.080 A 
ATOM      5  N2  UNL     1      12.682  14.688  33.990  0.00  0.00    -0.225 NA
ATOM      6  C12 UNL     1      12.476  13.809  32.979  0.00  0.00    +0.166 A 
ATOM      7  N3  UNL     1      11.406  13.965  32.038  0.00  0.00    -0.261 N 
ATOM      8  C13 UNL     1      10.975  12.935  31.135  0.00  0.00    +0.250 C 
ATOM      9  O2  UNL     1      11.256  11.731  31.376  0.00  0.00    -0.270 OA
ATOM     10  S1  UNL     1      13.665  12.599  32.926  0.00  0.00    -0.052 S 
ATOM     11  C20 UNL     1      14.458  13.227  34.266  0.00  0.00    +0.043 A 
ATOM     12  C21 UNL     1      15.604  12.756  34.895  0.00  0.00    +0.040 A 
ATOM     13  H15 UNL     1      10.888  14.870  32.049  0.00  0.00    +0.157 HD
ENDROOT
BRANCH   8  14
ATOM     14  C14 UNL     1      10.162  13.267  29.941  0.00  0.00    +0.037 A 
ATOM     15  C15 UNL     1       8.756  13.243  29.994  0.00  0.00    +0.013 A 
ATOM     16  C16 UNL     1       8.000  13.559  28.860  0.00  0.00    +0.001 A 
ATOM     17  C17 UNL     1       8.636  13.906  27.665  0.00  0.00    +0.000 A 
ATOM     18  C18 UNL     1      10.030  13.940  27.603  0.00  0.00    +0.001 A 
ATOM     19  C19 UNL     1      10.790  13.626  28.733  0.00  0.00    +0.013 A 
ENDBRANCH   8  14
BRANCH   1  22
ATOM     20  C7  UNL     1      18.493  12.664  36.131  0.00  0.00    +0.218 C 
ATOM     21  O1  UNL     1      18.797  13.141  35.003  0.00  0.00    -0.275 OA
ATOM     22  N1  UNL     1      17.237  12.995  36.748  0.00  0.00    -0.285 N 
ATOM     23  H12 UNL     1      17.163  12.920  37.789  0.00  0.00    +0.155 HD
BRANCH  20  24
ATOM     24  C6  UNL     1      19.462  11.760  36.835  0.00  0.00    +0.109 C 
BRANCH  24  27
ATOM     25  C3  UNL     1      20.293   8.247  37.381  0.00  0.00    +0.073 C 
ATOM     26  C4  UNL     1      19.177   9.309  37.567  0.00  0.00    +0.035 C 
ATOM     27  C5  UNL     1      19.277  10.301  36.383  0.00  0.00    +0.085 C 
ATOM     28  C22 UNL     1      20.464   9.815  35.643  0.00  0.00    +0.217 C 
ATOM     29  O3  UNL     1      20.909  10.350  34.595  0.00  0.00    -0.275 OA
ATOM     30  N4  UNL     1      21.039   8.658  36.205  0.00  0.00    -0.312 N 
ATOM     31  H22 UNL     1      21.909   8.200  35.854  0.00  0.00    +0.149 HD
BRANCH  25  33
ATOM     32  C1  UNL     1      18.220   6.772  37.528  0.00  0.00    +0.006 C 
ATOM     33  C2  UNL     1      19.710   6.834  37.191  0.00  0.00    +0.019 C 
ENDBRANCH  25  33
ENDBRANCH  24  27
ENDBRANCH  20  24
ENDBRANCH   1  22
TORSDOF 5
ENDMDL
MODEL 7
REMARK VINA RESULT:    -6.748     14.078     17.829
REMARK INTER + INTRA:          -9.525
REMARK INTER:                  -8.881
REMARK INTRA:                  -0.644
REMARK UNBOUND:                -0.805
REMARK  Name = /home/qwerty/github/datacon2025hack/step_04_hit_selection/docking/ligands/lig_688.pdb
REMARK  6 active torsions:
REMARK  status: ('A' for Active; 'I' for Inactive)
REMARK    1  A    between atoms: C1_1  and  C2_2
REMARK    2  A    between atoms: C2_2  and  C3_3
REMARK    3  A    between atoms: C5_5  and  C6_6
REMARK    4  A    between atoms: C6_6  and  C7_7
REMARK    5  A    between atoms: N1_9  and  C8_10
REMARK    6  A    between atoms: C13_17  and  C14_19
REMARK                            x       y       z     vdW  Elec       q    Type
REMARK                         _______ _______ _______ _____ _____    ______ ____
ROOT
ATOM      1  C8  UNL     1      14.074  13.378  34.947  0.00  0.00    +0.035 A 
ATOM      2  C9  UNL     1      13.942  13.326  36.354  0.00  0.00    +0.025 A 
ATOM      3  C10 UNL     1      14.898  12.667  37.143  0.00  0.00    +0.031 A 
ATOM      4  C11 UNL     1      15.994  12.077  36.515  0.00  0.00    +0.080 A 
ATOM      5  N2  UNL     1      16.987  11.419  37.165  0.00  0.00    -0.225 NA
ATOM      6  C12 UNL     1      17.926  10.974  36.294  0.00  0.00    +0.166 A 
ATOM      7  N3  UNL     1      19.057  10.203  36.719  0.00  0.00    -0.261 N 
ATOM      8  C13 UNL     1      20.209   9.949  35.901  0.00  0.00    +0.250 C 
ATOM      9  O2  UNL     1      20.456  10.696  34.916  0.00  0.00    -0.270 OA
ATOM     10  S1  UNL     1      17.547  11.361  34.686  0.00  0.00    -0.052 S 
ATOM     11  C20 UNL     1      16.132  12.143  35.138  0.00  0.00    +0.043 A 
ATOM     12  C21 UNL     1      15.198  12.783  34.331  0.00  0.00    +0.040 A 
ATOM     13  H15 UNL     1      19.050   9.845  37.699  0.00  0.00    +0.157 HD
ENDROOT
BRANCH   8  14
ATOM     14  C14 UNL     1      21.142   8.843  36.226  0.00  0.00    +0.037 A 
ATOM     15  C15 UNL     1      22.207   8.519  35.367  0.00  0.00    +0.013 A 
ATOM     16  C16 UNL     1      23.081   7.474  35.686  0.00  0.00    +0.001 A 
ATOM     17  C17 UNL     1      22.904   6.746  36.865  0.00  0.00    +0.000 A 
ATOM     18  C18 UNL     1      21.855   7.064  37.729  0.00  0.00    +0.001 A 
ATOM     19  C19 UNL     1      20.980   8.108  37.416  0.00  0.00    +0.013 A 
ENDBRANCH   8  14
BRANCH   1  22
ATOM     20  C7  UNL     1      11.957  13.485  33.559  0.00  0.00    +0.218 C 
ATOM     21  O1  UNL     1      11.515  12.383  33.985  0.00  0.00    -0.275 OA
ATOM     22  N1  UNL     1      13.101  14.099  34.177  0.00  0.00    -0.285 N 
ATOM     23  H12 UNL     1      13.216  15.135  34.083  0.00  0.00    +0.155 HD
BRANCH  20  24
ATOM     24  C6  UNL     1      11.268  14.161  32.410  0.00  0.00    +0.109 C 
BRANCH  24  27
ATOM     25  C3  UNL     1      12.577  14.870  29.076  0.00  0.00    +0.073 C 
ATOM     26  C4  UNL     1      12.971  14.372  30.492  0.00  0.00    +0.035 C 
ATOM     27  C5  UNL     1      11.761  13.596  31.067  0.00  0.00    +0.085 C 
ATOM     28  C22 UNL     1      10.736  13.754  30.010  0.00  0.00    +0.217 C 
ATOM     29  O3  UNL     1       9.575  13.271  30.078  0.00  0.00    -0.275 OA
ATOM     30  N4  UNL     1      11.193  14.473  28.888  0.00  0.00    -0.312 N 
ATOM     31  H22 UNL     1      10.599  14.728  28.068  0.00  0.00    +0.149 HD
BRANCH  25  33
ATOM     32  C1  UNL     1      13.067  14.701  26.581  0.00  0.00    +0.006 C 
ATOM     33  C2  UNL     1      13.474  14.255  27.986  0.00  0.00    +0.019 C 
ENDBRANCH  25  33
ENDBRANCH  24  27
ENDBRANCH  20  24
ENDBRANCH   1  22
TORSDOF 5
ENDMDL
MODEL 8
REMARK VINA RESULT:    -6.732      9.157     12.648
REMARK INTER + INTRA:          -9.505
REMARK INTER:                  -8.770
REMARK INTRA:                  -0.735
REMARK UNBOUND:                -0.805
REMARK  Name = /home/qwerty/github/datacon2025hack/step_04_hit_selection/docking/ligands/lig_688.pdb
REMARK  6 active torsions:
REMARK  status: ('A' for Active; 'I' for Inactive)
REMARK    1  A    between atoms: C1_1  and  C2_2
REMARK    2  A    between atoms: C2_2  and  C3_3
REMARK    3  A    between atoms: C5_5  and  C6_6
REMARK    4  A    between atoms: C6_6  and  C7_7
REMARK    5  A    between atoms: N1_9  and  C8_10
REMARK    6  A    between atoms: C13_17  and  C14_19
REMARK                            x       y       z     vdW  Elec       q    Type
REMARK                         _______ _______ _______ _____ _____    ______ ____
ROOT
ATOM      1  C8  UNL     1      19.067  12.455  20.012  0.00  0.00    +0.035 A 
ATOM      2  C9  UNL     1      19.213  12.220  21.399  0.00  0.00    +0.025 A 
ATOM      3  C10 UNL     1      18.820  10.998  21.968  0.00  0.00    +0.031 A 
ATOM      4  C11 UNL     1      18.297  10.009  21.137  0.00  0.00    +0.080 A 
ATOM      5  N2  UNL     1      17.889   8.787  21.562  0.00  0.00    -0.225 NA
ATOM      6  C12 UNL     1      17.450   8.033  20.525  0.00  0.00    +0.166 A 
ATOM      7  N3  UNL     1      16.916   6.715  20.711  0.00  0.00    -0.261 N 
ATOM      8  C13 UNL     1      16.701   5.779  19.644  0.00  0.00    +0.250 C 
ATOM      9  O2  UNL     1      17.315   5.918  18.553  0.00  0.00    -0.270 OA
ATOM     10  S1  UNL     1      17.531   8.863  19.047  0.00  0.00    -0.052 S 
ATOM     11  C20 UNL     1      18.170  10.233  19.776  0.00  0.00    +0.043 A 
ATOM     12  C21 UNL     1      18.545  11.434  19.185  0.00  0.00    +0.040 A 
ATOM     13  H15 UNL     1      16.714   6.415  21.690  0.00  0.00    +0.157 HD
ENDROOT
BRANCH   8  14
ATOM     14  C14 UNL     1      15.796   4.618  19.826  0.00  0.00    +0.037 A 
ATOM     15  C15 UNL     1      14.404   4.755  19.677  0.00  0.00    +0.013 A 
ATOM     16  C16 UNL     1      13.562   3.651  19.850  0.00  0.00    +0.001 A 
ATOM     17  C17 UNL     1      14.098   2.401  20.168  0.00  0.00    +0.000 A 
ATOM     18  C18 UNL     1      15.478   2.252  20.311  0.00  0.00    +0.001 A 
ATOM     19  C19 UNL     1      16.325   3.351  20.139  0.00  0.00    +0.013 A 
ENDBRANCH   8  14
BRANCH   1  22
ATOM     20  C7  UNL     1      20.845  13.904  18.936  0.00  0.00    +0.218 C 
ATOM     21  O1  UNL     1      21.541  12.923  18.554  0.00  0.00    -0.275 OA
ATOM     22  N1  UNL     1      19.521  13.699  19.459  0.00  0.00    -0.285 N 
ATOM     23  H12 UNL     1      18.842  14.493  19.409  0.00  0.00    +0.155 HD
BRANCH  20  24
ATOM     24  C6  UNL     1      21.404  15.293  18.824  0.00  0.00    +0.109 C 
BRANCH  24  27
ATOM     25  C3  UNL     1      23.483  14.132  21.592  0.00  0.00    +0.073 C 
ATOM     26  C4  UNL     1      23.521  14.859  20.222  0.00  0.00    +0.035 C 
ATOM     27  C5  UNL     1      22.205  15.663  20.083  0.00  0.00    +0.085 C 
ATOM     28  C22 UNL     1      21.466  15.300  21.314  0.00  0.00    +0.217 C 
ATOM     29  O3  UNL     1      20.322  15.737  21.604  0.00  0.00    -0.275 OA
ATOM     30  N4  UNL     1      22.184  14.435  22.165  0.00  0.00    -0.312 N 
ATOM     31  H22 UNL     1      21.807  14.032  23.051  0.00  0.00    +0.149 HD
BRANCH  25  33
ATOM     32  C1  UNL     1      24.221  14.537  23.997  0.00  0.00    +0.006 C 
ATOM     33  C2  UNL     1      24.614  14.608  22.522  0.00  0.00    +0.019 C 
ENDBRANCH  25  33
ENDBRANCH  24  27
ENDBRANCH  20  24
ENDBRANCH   1  22
TORSDOF 5
ENDMDL
MODEL 9
REMARK VINA RESULT:    -6.649      9.120     13.629
REMARK INTER + INTRA:          -9.397
REMARK INTER:                  -8.770
REMARK INTRA:                  -0.626
REMARK UNBOUND:                -0.805
REMARK  Name = /home/qwerty/github/datacon2025hack/step_04_hit_selection/docking/ligands/lig_688.pdb
REMARK  6 active torsions:
REMARK  status: ('A' for Active; 'I' for Inactive)
REMARK    1  A    between atoms: C1_1  and  C2_2
REMARK    2  A    between atoms: C2_2  and  C3_3
REMARK    3  A    between atoms: C5_5  and  C6_6
REMARK    4  A    between atoms: C6_6  and  C7_7
REMARK    5  A    between atoms: N1_9  and  C8_10
REMARK    6  A    between atoms: C13_17  and  C14_19
REMARK                            x       y       z     vdW  Elec       q    Type
REMARK                         _______ _______ _______ _____ _____    ______ ____
ROOT
ATOM      1  C8  UNL     1       9.642  12.963  29.815  0.00  0.00    +0.035 A 
ATOM      2  C9  UNL     1       8.962  13.499  28.697  0.00  0.00    +0.025 A 
ATOM      3  C10 UNL     1       8.415  12.659  27.715  0.00  0.00    +0.031 A 
ATOM      4  C11 UNL     1       8.538  11.279  27.869  0.00  0.00    +0.080 A 
ATOM      5  N2  UNL     1       8.048  10.363  26.996  0.00  0.00    -0.225 NA
ATOM      6  C12 UNL     1       8.301   9.102  27.422  0.00  0.00    +0.166 A 
ATOM      7  N3  UNL     1       7.932   7.948  26.655  0.00  0.00    -0.261 N 
ATOM      8  C13 UNL     1       7.921   6.609  27.174  0.00  0.00    +0.250 C 
ATOM      9  O2  UNL     1       7.866   6.419  28.418  0.00  0.00    -0.270 OA
ATOM     10  S1  UNL     1       9.162   9.077  28.885  0.00  0.00    -0.052 S 
ATOM     11  C20 UNL     1       9.190  10.753  28.973  0.00  0.00    +0.043 A 
ATOM     12  C21 UNL     1       9.747  11.560  29.958  0.00  0.00    +0.040 A 
ATOM     13  H15 UNL     1       7.614   8.108  25.675  0.00  0.00    +0.157 HD
ENDROOT
BRANCH   8  14
ATOM     14  C14 UNL     1       7.925   5.442  26.259  0.00  0.00    +0.037 A 
ATOM     15  C15 UNL     1       8.082   5.611  24.871  0.00  0.00    +0.013 A 
ATOM     16  C16 UNL     1       8.086   4.502  24.020  0.00  0.00    +0.001 A 
ATOM     17  C17 UNL     1       7.937   3.214  24.541  0.00  0.00    +0.000 A 
ATOM     18  C18 UNL     1       7.787   3.034  25.917  0.00  0.00    +0.001 A 
ATOM     19  C19 UNL     1       7.784   4.139  26.773  0.00  0.00    +0.013 A 
ENDBRANCH   8  14
BRANCH   1  22
ATOM     20  C7  UNL     1      11.515  13.851  31.272  0.00  0.00    +0.218 C 
ATOM     21  O1  UNL     1      12.428  13.376  30.544  0.00  0.00    -0.275 OA
ATOM     22  N1  UNL     1      10.149  13.851  30.822  0.00  0.00    -0.285 N 
ATOM     23  H12 UNL     1       9.494  14.557  31.231  0.00  0.00    +0.155 HD
BRANCH  20  24
ATOM     24  C6  UNL     1      11.867  14.435  32.610  0.00  0.00    +0.109 C 
BRANCH  24  27
ATOM     25  C3  UNL     1      11.116  12.232  35.423  0.00  0.00    +0.073 C 
ATOM     26  C4  UNL     1      11.299  12.271  33.882  0.00  0.00    +0.035 C 
ATOM     27  C5  UNL     1      12.372  13.342  33.567  0.00  0.00    +0.085 C 
ATOM     28  C22 UNL     1      12.681  13.902  34.903  0.00  0.00    +0.217 C 
ATOM     29  O3  UNL     1      13.516  14.822  35.104  0.00  0.00    -0.275 OA
ATOM     30  N4  UNL     1      11.973  13.279  35.950  0.00  0.00    -0.312 N 
ATOM     31  H22 UNL     1      12.021  13.571  36.951  0.00  0.00    +0.149 HD
BRANCH  25  33
ATOM     32  C1  UNL     1      11.302  10.800  37.522  0.00  0.00    +0.006 C 
ATOM     33  C2  UNL     1      11.505  10.862  36.009  0.00  0.00    +0.019 C 
ENDBRANCH  25  33
ENDBRANCH  24  27
ENDBRANCH  20  24
ENDBRANCH   1  22
TORSDOF 5
ENDMDL
