MODEL 1
REMARK VINA RESULT:    -6.645      0.000      0.000
REMARK INTER + INTRA:          -8.313
REMARK INTER:                  -7.810
REMARK INTRA:                  -0.502
REMARK UNBOUND:                -0.502
REMARK  Name = /home/qwerty/github/datacon2025hack/step_04_hit_selection/docking/ligands/lig_429.pdb
REMARK  5 active torsions:
REMARK  status: ('A' for Active; 'I' for Inactive)
REMARK    1  A    between atoms: C1_1  and  C2_2
REMARK    2  A    between atoms: C2_2  and  N1_3
REMARK    3  A    between atoms: C2_2  and  C13_19
REMARK    4  A    between atoms: N2_6  and  C4_7
REMARK    5  A    between atoms: N3_13  and  C10_14
REMARK                            x       y       z     vdW  Elec       q    Type
REMARK                         _______ _______ _______ _____ _____    ______ ____
ROOT
ATOM      1  N1  UNL     1      13.079  12.191  37.169  0.00  0.00    -0.293 N 
ATOM      2  C3  UNL     1      14.259  11.443  36.848  0.00  0.00    +0.304 C 
ATOM      3  O1  UNL     1      14.166  10.366  36.199  0.00  0.00    -0.252 OA
ATOM      4  N2  UNL     1      15.546  11.947  37.238  0.00  0.00    -0.269 N 
ATOM      5  H5  UNL     1      13.184  13.060  37.741  0.00  0.00    +0.151 HD
ATOM      6  H6  UNL     1      15.613  12.957  37.496  0.00  0.00    +0.156 HD
ENDROOT
BRANCH   4   7
ATOM      7  C4  UNL     1      16.764  11.185  37.169  0.00  0.00    +0.037 A 
ATOM      8  C5  UNL     1      17.028  10.225  38.154  0.00  0.00    +0.027 A 
ATOM      9  C6  UNL     1      18.191   9.456  38.099  0.00  0.00    +0.049 A 
ATOM     10  C7  UNL     1      19.103   9.635  37.056  0.00  0.00    +0.143 A 
ATOM     11  C8  UNL     1      18.848  10.573  36.038  0.00  0.00    +0.080 A 
ATOM     12  C9  UNL     1      17.664  11.339  36.100  0.00  0.00    +0.050 A 
ATOM     13  N3  UNL     1      19.780  10.686  34.934  0.00  0.00    -0.269 N 
ATOM     14  C10 UNL     1      19.525  11.596  33.809  0.00  0.00    +0.138 C 
ATOM     15  C11 UNL     1      20.956   9.851  34.939  0.00  0.00    +0.257 C 
ATOM     16  O2  UNL     1      21.662   9.722  33.902  0.00  0.00    -0.272 OA
ATOM     17  C12 UNL     1      21.386   9.179  36.208  0.00  0.00    +0.325 C 
ATOM     18  O3  UNL     1      20.261   8.852  37.020  0.00  0.00    -0.481 OA
ENDBRANCH   4   7
BRANCH   1  20
ATOM     19  C1  UNL     1      10.851  11.432  37.903  0.00  0.00    +0.033 C 
ATOM     20  C2  UNL     1      11.748  11.780  36.711  0.00  0.00    +0.102 C 
BRANCH  20  21
ATOM     21  C13 UNL     1      11.116  12.877  35.881  0.00  0.00    -0.027 A 
ATOM     22  C14 UNL     1      11.589  13.145  34.584  0.00  0.00    +0.005 A 
ATOM     23  C15 UNL     1      11.007  14.158  33.814  0.00  0.00    +0.000 A 
ATOM     24  C16 UNL     1       9.947  14.907  34.330  0.00  0.00    +0.000 A 
ATOM     25  C17 UNL     1       9.464  14.645  35.615  0.00  0.00    +0.000 A 
ATOM     26  C18 UNL     1      10.042  13.633  36.387  0.00  0.00    +0.005 A 
ENDBRANCH  20  21
ENDBRANCH   1  20
TORSDOF 3
ENDMDL
MODEL 2
REMARK VINA RESULT:    -6.634      1.158      2.296
REMARK INTER + INTRA:          -8.300
REMARK INTER:                  -7.786
REMARK INTRA:                  -0.513
REMARK UNBOUND:                -0.502
REMARK  Name = /home/qwerty/github/datacon2025hack/step_04_hit_selection/docking/ligands/lig_429.pdb
REMARK  5 active torsions:
REMARK  status: ('A' for Active; 'I' for Inactive)
REMARK    1  A    between atoms: C1_1  and  C2_2
REMARK    2  A    between atoms: C2_2  and  N1_3
REMARK    3  A    between atoms: C2_2  and  C13_19
REMARK    4  A    between atoms: N2_6  and  C4_7
REMARK    5  A    between atoms: N3_13  and  C10_14
REMARK                            x       y       z     vdW  Elec       q    Type
REMARK                         _______ _______ _______ _____ _____    ______ ____
ROOT
ATOM      1  N1  UNL     1      13.171  11.888  37.279  0.00  0.00    -0.293 N 
ATOM      2  C3  UNL     1      14.445  11.588  36.692  0.00  0.00    +0.304 C 
ATOM      3  O1  UNL     1      14.507  10.887  35.646  0.00  0.00    -0.252 OA
ATOM      4  N2  UNL     1      15.641  12.120  37.283  0.00  0.00    -0.269 N 
ATOM      5  H5  UNL     1      13.153  12.438  38.168  0.00  0.00    +0.151 HD
ATOM      6  H6  UNL     1      15.538  12.921  37.947  0.00  0.00    +0.156 HD
ENDROOT
BRANCH   4   7
ATOM      7  C4  UNL     1      16.970  11.709  36.920  0.00  0.00    +0.037 A 
ATOM      8  C5  UNL     1      17.810  12.615  36.260  0.00  0.00    +0.027 A 
ATOM      9  C6  UNL     1      19.112  12.251  35.916  0.00  0.00    +0.049 A 
ATOM     10  C7  UNL     1      19.592  10.978  36.230  0.00  0.00    +0.143 A 
ATOM     11  C8  UNL     1      18.778  10.058  36.918  0.00  0.00    +0.080 A 
ATOM     12  C9  UNL     1      17.466  10.441  37.269  0.00  0.00    +0.050 A 
ATOM     13  N3  UNL     1      19.329   8.770  37.290  0.00  0.00    -0.269 N 
ATOM     14  C10 UNL     1      18.548   7.802  38.073  0.00  0.00    +0.138 C 
ATOM     15  C11 UNL     1      20.686   8.467  36.909  0.00  0.00    +0.257 C 
ATOM     16  O2  UNL     1      21.295   7.484  37.413  0.00  0.00    -0.272 OA
ATOM     17  C12 UNL     1      21.363   9.287  35.853  0.00  0.00    +0.325 C 
ATOM     18  O3  UNL     1      20.901  10.635  35.877  0.00  0.00    -0.481 OA
ENDBRANCH   4   7
BRANCH   1  20
ATOM     19  C1  UNL     1      10.920  10.991  37.739  0.00  0.00    +0.033 C 
ATOM     20  C2  UNL     1      11.910  11.458  36.666  0.00  0.00    +0.102 C 
BRANCH  20  21
ATOM     21  C13 UNL     1      11.310  12.585  35.853  0.00  0.00    -0.027 A 
ATOM     22  C14 UNL     1      10.331  13.422  36.419  0.00  0.00    +0.005 A 
ATOM     23  C15 UNL     1       9.774  14.465  35.670  0.00  0.00    +0.000 A 
ATOM     24  C16 UNL     1      10.193  14.684  34.356  0.00  0.00    +0.000 A 
ATOM     25  C17 UNL     1      11.172  13.864  33.787  0.00  0.00    +0.000 A 
ATOM     26  C18 UNL     1      11.731  12.821  34.531  0.00  0.00    +0.005 A 
ENDBRANCH  20  21
ENDBRANCH   1  20
TORSDOF 3
ENDMDL
MODEL 3
REMARK VINA RESULT:    -6.502      7.690     12.752
REMARK INTER + INTRA:          -8.145
REMARK INTER:                  -7.793
REMARK INTRA:                  -0.351
REMARK UNBOUND:                -0.502
REMARK  Name = /home/qwerty/github/datacon2025hack/step_04_hit_selection/docking/ligands/lig_429.pdb
REMARK  5 active torsions:
REMARK  status: ('A' for Active; 'I' for Inactive)
REMARK    1  A    between atoms: C1_1  and  C2_2
REMARK    2  A    between atoms: C2_2  and  N1_3
REMARK    3  A    between atoms: C2_2  and  C13_19
REMARK    4  A    between atoms: N2_6  and  C4_7
REMARK    5  A    between atoms: N3_13  and  C10_14
REMARK                            x       y       z     vdW  Elec       q    Type
REMARK                         _______ _______ _______ _____ _____    ______ ____
ROOT
ATOM      1  N1  UNL     1      21.463   3.039  30.249  0.00  0.00    -0.293 N 
ATOM      2  C3  UNL     1      21.752   3.437  31.596  0.00  0.00    +0.304 C 
ATOM      3  O1  UNL     1      21.576   2.624  32.544  0.00  0.00    -0.252 OA
ATOM      4  N2  UNL     1      22.272   4.751  31.851  0.00  0.00    -0.269 N 
ATOM      5  H5  UNL     1      21.581   3.746  29.488  0.00  0.00    +0.151 HD
ATOM      6  H6  UNL     1      22.681   5.275  31.044  0.00  0.00    +0.156 HD
ENDROOT
BRANCH   4   7
ATOM      7  C4  UNL     1      22.386   5.332  33.162  0.00  0.00    +0.037 A 
ATOM      8  C5  UNL     1      23.654   5.667  33.655  0.00  0.00    +0.027 A 
ATOM      9  C6  UNL     1      23.791   6.252  34.913  0.00  0.00    +0.049 A 
ATOM     10  C7  UNL     1      22.663   6.513  35.695  0.00  0.00    +0.143 A 
ATOM     11  C8  UNL     1      21.375   6.212  35.211  0.00  0.00    +0.080 A 
ATOM     12  C9  UNL     1      21.248   5.629  33.932  0.00  0.00    +0.050 A 
ATOM     13  N3  UNL     1      20.221   6.558  36.017  0.00  0.00    -0.269 N 
ATOM     14  C10 UNL     1      18.853   6.334  35.528  0.00  0.00    +0.138 C 
ATOM     15  C11 UNL     1      20.440   7.171  37.303  0.00  0.00    +0.257 C 
ATOM     16  O2  UNL     1      19.491   7.716  37.930  0.00  0.00    -0.272 OA
ATOM     17  C12 UNL     1      21.795   7.103  37.940  0.00  0.00    +0.325 C 
ATOM     18  O3  UNL     1      22.824   7.102  36.952  0.00  0.00    -0.481 OA
ENDBRANCH   4   7
BRANCH   1  20
ATOM     19  C1  UNL     1      20.018   1.706  28.761  0.00  0.00    +0.033 C 
ATOM     20  C2  UNL     1      21.026   1.680  29.915  0.00  0.00    +0.102 C 
BRANCH  20  21
ATOM     21  C13 UNL     1      22.216   0.818  29.553  0.00  0.00    -0.027 A 
ATOM     22  C14 UNL     1      22.031  -0.528  29.189  0.00  0.00    +0.005 A 
ATOM     23  C15 UNL     1      23.129  -1.327  28.853  0.00  0.00    +0.000 A 
ATOM     24  C16 UNL     1      24.418  -0.789  28.872  0.00  0.00    +0.000 A 
ATOM     25  C17 UNL     1      24.613   0.549  29.225  0.00  0.00    +0.000 A 
ATOM     26  C18 UNL     1      23.518   1.352  29.560  0.00  0.00    +0.005 A 
ENDBRANCH  20  21
ENDBRANCH   1  20
TORSDOF 3
ENDMDL
MODEL 4
REMARK VINA RESULT:    -6.410     15.725     16.978
REMARK INTER + INTRA:          -8.036
REMARK INTER:                  -7.668
REMARK INTRA:                  -0.368
REMARK UNBOUND:                -0.502
REMARK  Name = /home/qwerty/github/datacon2025hack/step_04_hit_selection/docking/ligands/lig_429.pdb
REMARK  5 active torsions:
REMARK  status: ('A' for Active; 'I' for Inactive)
REMARK    1  A    between atoms: C1_1  and  C2_2
REMARK    2  A    between atoms: C2_2  and  N1_3
REMARK    3  A    between atoms: C2_2  and  C13_19
REMARK    4  A    between atoms: N2_6  and  C4_7
REMARK    5  A    between atoms: N3_13  and  C10_14
REMARK                            x       y       z     vdW  Elec       q    Type
REMARK                         _______ _______ _______ _____ _____    ______ ____
ROOT
ATOM      1  N1  UNL     1      10.372   8.063  19.994  0.00  0.00    -0.293 N 
ATOM      2  C3  UNL     1      10.784   6.885  20.701  0.00  0.00    +0.304 C 
ATOM      3  O1  UNL     1      11.481   6.990  21.747  0.00  0.00    -0.252 OA
ATOM      4  N2  UNL     1      10.371   5.593  20.229  0.00  0.00    -0.269 N 
ATOM      5  H5  UNL     1       9.829   7.944  19.109  0.00  0.00    +0.151 HD
ATOM      6  H6  UNL     1       9.569   5.557  19.560  0.00  0.00    +0.156 HD
ENDROOT
BRANCH   4   7
ATOM      7  C4  UNL     1      10.900   4.350  20.720  0.00  0.00    +0.037 A 
ATOM      8  C5  UNL     1      10.063   3.483  21.435  0.00  0.00    +0.027 A 
ATOM      9  C6  UNL     1      10.545   2.260  21.902  0.00  0.00    +0.049 A 
ATOM     10  C7  UNL     1      11.868   1.886  21.658  0.00  0.00    +0.143 A 
ATOM     11  C8  UNL     1      12.722   2.726  20.917  0.00  0.00    +0.080 A 
ATOM     12  C9  UNL     1      12.221   3.956  20.441  0.00  0.00    +0.050 A 
ATOM     13  N3  UNL     1      14.068   2.277  20.622  0.00  0.00    -0.269 N 
ATOM     14  C10 UNL     1      14.976   3.081  19.791  0.00  0.00    +0.138 C 
ATOM     15  C11 UNL     1      14.493   0.997  21.129  0.00  0.00    +0.257 C 
ATOM     16  O2  UNL     1      15.545   0.448  20.703  0.00  0.00    -0.272 OA
ATOM     17  C12 UNL     1      13.715   0.335  22.226  0.00  0.00    +0.325 C 
ATOM     18  O3  UNL     1      12.329   0.655  22.134  0.00  0.00    -0.481 OA
ENDBRANCH   4   7
BRANCH   1  20
ATOM     19  C1  UNL     1      10.862  10.380  19.308  0.00  0.00    +0.033 C 
ATOM     20  C2  UNL     1      10.678   9.412  20.481  0.00  0.00    +0.102 C 
BRANCH  20  21
ATOM     21  C13 UNL     1       9.579   9.901  21.399  0.00  0.00    -0.027 A 
ATOM     22  C14 UNL     1       8.586  10.772  20.912  0.00  0.00    +0.005 A 
ATOM     23  C15 UNL     1       7.569  11.226  21.758  0.00  0.00    +0.000 A 
ATOM     24  C16 UNL     1       7.528  10.811  23.091  0.00  0.00    +0.000 A 
ATOM     25  C17 UNL     1       8.504   9.939  23.583  0.00  0.00    +0.000 A 
ATOM     26  C18 UNL     1       9.523   9.483  22.741  0.00  0.00    +0.005 A 
ENDBRANCH  20  21
ENDBRANCH   1  20
TORSDOF 3
ENDMDL
MODEL 5
REMARK VINA RESULT:    -6.396      7.131     11.146
REMARK INTER + INTRA:          -8.021
REMARK INTER:                  -7.507
REMARK INTRA:                  -0.513
REMARK UNBOUND:                -0.502
REMARK  Name = /home/qwerty/github/datacon2025hack/step_04_hit_selection/docking/ligands/lig_429.pdb
REMARK  5 active torsions:
REMARK  status: ('A' for Active; 'I' for Inactive)
REMARK    1  A    between atoms: C1_1  and  C2_2
REMARK    2  A    between atoms: C2_2  and  N1_3
REMARK    3  A    between atoms: C2_2  and  C13_19
REMARK    4  A    between atoms: N2_6  and  C4_7
REMARK    5  A    between atoms: N3_13  and  C10_14
REMARK                            x       y       z     vdW  Elec       q    Type
REMARK                         _______ _______ _______ _____ _____    ______ ____
ROOT
ATOM      1  N1  UNL     1      15.078  15.961  29.015  0.00  0.00    -0.293 N 
ATOM      2  C3  UNL     1      14.086  14.939  28.850  0.00  0.00    +0.304 C 
ATOM      3  O1  UNL     1      14.361  13.893  28.201  0.00  0.00    -0.252 OA
ATOM      4  N2  UNL     1      12.794  15.100  29.457  0.00  0.00    -0.269 N 
ATOM      5  H5  UNL     1      14.810  16.834  29.524  0.00  0.00    +0.151 HD
ATOM      6  H6  UNL     1      12.702  15.811  30.217  0.00  0.00    +0.156 HD
ENDROOT
BRANCH   4   7
ATOM      7  C4  UNL     1      11.663  14.258  29.177  0.00  0.00    +0.037 A 
ATOM      8  C5  UNL     1      10.869  14.527  28.055  0.00  0.00    +0.027 A 
ATOM      9  C6  UNL     1       9.780  13.712  27.747  0.00  0.00    +0.049 A 
ATOM     10  C7  UNL     1       9.470  12.616  28.556  0.00  0.00    +0.143 A 
ATOM     11  C8  UNL     1      10.269  12.307  29.674  0.00  0.00    +0.080 A 
ATOM     12  C9  UNL     1      11.374  13.132  29.970  0.00  0.00    +0.050 A 
ATOM     13  N3  UNL     1       9.962  11.123  30.452  0.00  0.00    -0.269 N 
ATOM     14  C10 UNL     1      10.806  10.713  31.584  0.00  0.00    +0.138 C 
ATOM     15  C11 UNL     1       8.826  10.323  30.069  0.00  0.00    +0.257 C 
ATOM     16  O2  UNL     1       8.660   9.166  30.541  0.00  0.00    -0.272 OA
ATOM     17  C12 UNL     1       7.790  10.895  29.148  0.00  0.00    +0.325 C 
ATOM     18  O3  UNL     1       8.375  11.813  28.227  0.00  0.00    -0.481 OA
ENDBRANCH   4   7
BRANCH   1  20
ATOM     19  C1  UNL     1      16.741  16.866  27.435  0.00  0.00    +0.033 C 
ATOM     20  C2  UNL     1      16.445  15.810  28.505  0.00  0.00    +0.102 C 
BRANCH  20  21
ATOM     21  C13 UNL     1      17.443  15.917  29.638  0.00  0.00    -0.027 A 
ATOM     22  C14 UNL     1      17.607  14.849  30.539  0.00  0.00    +0.005 A 
ATOM     23  C15 UNL     1      18.529  14.944  31.587  0.00  0.00    +0.000 A 
ATOM     24  C16 UNL     1      19.297  16.101  31.741  0.00  0.00    +0.000 A 
ATOM     25  C17 UNL     1      19.147  17.165  30.847  0.00  0.00    +0.000 A 
ATOM     26  C18 UNL     1      18.228  17.074  29.798  0.00  0.00    +0.005 A 
ENDBRANCH  20  21
ENDBRANCH   1  20
TORSDOF 3
ENDMDL
MODEL 6
REMARK VINA RESULT:    -6.366     14.154     17.684
REMARK INTER + INTRA:          -7.985
REMARK INTER:                  -7.725
REMARK INTRA:                  -0.260
REMARK UNBOUND:                -0.502
REMARK  Name = /home/qwerty/github/datacon2025hack/step_04_hit_selection/docking/ligands/lig_429.pdb
REMARK  5 active torsions:
REMARK  status: ('A' for Active; 'I' for Inactive)
REMARK    1  A    between atoms: C1_1  and  C2_2
REMARK    2  A    between atoms: C2_2  and  N1_3
REMARK    3  A    between atoms: C2_2  and  C13_19
REMARK    4  A    between atoms: N2_6  and  C4_7
REMARK    5  A    between atoms: N3_13  and  C10_14
REMARK                            x       y       z     vdW  Elec       q    Type
REMARK                         _______ _______ _______ _____ _____    ______ ____
ROOT
ATOM      1  N1  UNL     1      20.101   1.610  27.722  0.00  0.00    -0.293 N 
ATOM      2  C3  UNL     1      19.763   1.097  26.426  0.00  0.00    +0.304 C 
ATOM      3  O1  UNL     1      20.592   1.180  25.480  0.00  0.00    -0.252 OA
ATOM      4  N2  UNL     1      18.492   0.460  26.226  0.00  0.00    -0.269 N 
ATOM      5  H5  UNL     1      19.380   1.562  28.477  0.00  0.00    +0.151 HD
ATOM      6  H6  UNL     1      17.969   0.144  27.074  0.00  0.00    +0.156 HD
ENDROOT
BRANCH   4   7
ATOM      7  C4  UNL     1      17.959   0.113  24.936  0.00  0.00    +0.037 A 
ATOM      8  C5  UNL     1      17.766  -1.237  24.615  0.00  0.00    +0.027 A 
ATOM      9  C6  UNL     1      17.230  -1.601  23.380  0.00  0.00    +0.049 A 
ATOM     10  C7  UNL     1      16.877  -0.620  22.450  0.00  0.00    +0.143 A 
ATOM     11  C8  UNL     1      17.034   0.745  22.759  0.00  0.00    +0.080 A 
ATOM     12  C9  UNL     1      17.569   1.101  24.015  0.00  0.00    +0.050 A 
ATOM     13  N3  UNL     1      16.595   1.739  21.800  0.00  0.00    -0.269 N 
ATOM     14  C10 UNL     1      16.667   3.176  22.101  0.00  0.00    +0.138 C 
ATOM     15  C11 UNL     1      16.040   1.289  20.547  0.00  0.00    +0.257 C 
ATOM     16  O2  UNL     1      15.418   2.083  19.792  0.00  0.00    -0.272 OA
ATOM     17  C12 UNL     1      16.261  -0.126  20.101  0.00  0.00    +0.325 C 
ATOM     18  O3  UNL     1      16.340  -1.008  21.219  0.00  0.00    -0.481 OA
ENDBRANCH   4   7
BRANCH   1  20
ATOM     19  C1  UNL     1      21.317   3.244  29.112  0.00  0.00    +0.033 C 
ATOM     20  C2  UNL     1      21.421   2.180  28.014  0.00  0.00    +0.102 C 
BRANCH  20  21
ATOM     21  C13 UNL     1      22.384   1.090  28.428  0.00  0.00    -0.027 A 
ATOM     22  C14 UNL     1      21.972  -0.256  28.433  0.00  0.00    +0.005 A 
ATOM     23  C15 UNL     1      22.860  -1.266  28.815  0.00  0.00    +0.000 A 
ATOM     24  C16 UNL     1      24.167  -0.945  29.190  0.00  0.00    +0.000 A 
ATOM     25  C17 UNL     1      24.590   0.387  29.182  0.00  0.00    +0.000 A 
ATOM     26  C18 UNL     1      23.705   1.401  28.800  0.00  0.00    +0.005 A 
ENDBRANCH  20  21
ENDBRANCH   1  20
TORSDOF 3
ENDMDL
MODEL 7
REMARK VINA RESULT:    -6.349      4.411      9.818
REMARK INTER + INTRA:          -7.965
REMARK INTER:                  -8.067
REMARK INTRA:                   0.102
REMARK UNBOUND:                -0.502
REMARK  Name = /home/qwerty/github/datacon2025hack/step_04_hit_selection/docking/ligands/lig_429.pdb
REMARK  5 active torsions:
REMARK  status: ('A' for Active; 'I' for Inactive)
REMARK    1  A    between atoms: C1_1  and  C2_2
REMARK    2  A    between atoms: C2_2  and  N1_3
REMARK    3  A    between atoms: C2_2  and  C13_19
REMARK    4  A    between atoms: N2_6  and  C4_7
REMARK    5  A    between atoms: N3_13  and  C10_14
REMARK                            x       y       z     vdW  Elec       q    Type
REMARK                         _______ _______ _______ _____ _____    ______ ____
ROOT
ATOM      1  N1  UNL     1      24.026   7.318  34.996  0.00  0.00    -0.293 N 
ATOM      2  C3  UNL     1      22.621   7.416  35.267  0.00  0.00    +0.304 C 
ATOM      3  O1  UNL     1      21.785   7.152  34.361  0.00  0.00    -0.252 OA
ATOM      4  N2  UNL     1      22.176   7.782  36.582  0.00  0.00    -0.269 N 
ATOM      5  H5  UNL     1      24.696   7.581  35.754  0.00  0.00    +0.151 HD
ATOM      6  H6  UNL     1      22.863   7.700  37.366  0.00  0.00    +0.156 HD
ENDROOT
BRANCH   4   7
ATOM      7  C4  UNL     1      20.818   8.125  36.907  0.00  0.00    +0.037 A 
ATOM      8  C5  UNL     1      20.004   7.176  37.539  0.00  0.00    +0.027 A 
ATOM      9  C6  UNL     1      18.690   7.490  37.885  0.00  0.00    +0.049 A 
ATOM     10  C7  UNL     1      18.173   8.758  37.607  0.00  0.00    +0.143 A 
ATOM     11  C8  UNL     1      18.979   9.739  36.999  0.00  0.00    +0.080 A 
ATOM     12  C9  UNL     1      20.309   9.413  36.661  0.00  0.00    +0.050 A 
ATOM     13  N3  UNL     1      18.434  11.065  36.786  0.00  0.00    -0.269 N 
ATOM     14  C10 UNL     1      19.255  12.147  36.223  0.00  0.00    +0.138 C 
ATOM     15  C11 UNL     1      17.070  11.320  37.179  0.00  0.00    +0.257 C 
ATOM     16  O2  UNL     1      16.627  12.498  37.253  0.00  0.00    -0.272 OA
ATOM     17  C12 UNL     1      16.144  10.170  37.440  0.00  0.00    +0.325 C 
ATOM     18  O3  UNL     1      16.853   9.051  37.965  0.00  0.00    -0.481 OA
ENDBRANCH   4   7
BRANCH   1  20
ATOM     19  C1  UNL     1      23.889   5.521  33.313  0.00  0.00    +0.033 C 
ATOM     20  C2  UNL     1      24.540   6.853  33.704  0.00  0.00    +0.102 C 
BRANCH  20  21
ATOM     21  C13 UNL     1      24.290   7.893  32.634  0.00  0.00    -0.027 A 
ATOM     22  C14 UNL     1      24.963   9.128  32.676  0.00  0.00    +0.005 A 
ATOM     23  C15 UNL     1      24.734  10.092  31.688  0.00  0.00    +0.000 A 
ATOM     24  C16 UNL     1      23.839   9.830  30.649  0.00  0.00    +0.000 A 
ATOM     25  C17 UNL     1      23.170   8.604  30.592  0.00  0.00    +0.000 A 
ATOM     26  C18 UNL     1      23.396   7.637  31.577  0.00  0.00    +0.005 A 
ENDBRANCH  20  21
ENDBRANCH   1  20
TORSDOF 3
ENDMDL
MODEL 8
REMARK VINA RESULT:    -6.297     16.567     17.561
REMARK INTER + INTRA:          -7.903
REMARK INTER:                  -7.465
REMARK INTRA:                  -0.439
REMARK UNBOUND:                -0.502
REMARK  Name = /home/qwerty/github/datacon2025hack/step_04_hit_selection/docking/ligands/lig_429.pdb
REMARK  5 active torsions:
REMARK  status: ('A' for Active; 'I' for Inactive)
REMARK    1  A    between atoms: C1_1  and  C2_2
REMARK    2  A    between atoms: C2_2  and  N1_3
REMARK    3  A    between atoms: C2_2  and  C13_19
REMARK    4  A    between atoms: N2_6  and  C4_7
REMARK    5  A    between atoms: N3_13  and  C10_14
REMARK                            x       y       z     vdW  Elec       q    Type
REMARK                         _______ _______ _______ _____ _____    ______ ____
ROOT
ATOM      1  N1  UNL     1      11.199   4.206  20.612  0.00  0.00    -0.293 N 
ATOM      2  C3  UNL     1      12.255   3.409  21.164  0.00  0.00    +0.304 C 
ATOM      3  O1  UNL     1      12.977   3.872  22.088  0.00  0.00    -0.252 OA
ATOM      4  N2  UNL     1      12.459   2.071  20.682  0.00  0.00    -0.269 N 
ATOM      5  H5  UNL     1      10.641   3.811  19.821  0.00  0.00    +0.151 HD
ATOM      6  H6  UNL     1      11.679   1.624  20.151  0.00  0.00    +0.156 HD
ENDROOT
BRANCH   4   7
ATOM      7  C4  UNL     1      13.610   1.269  20.997  0.00  0.00    +0.037 A 
ATOM      8  C5  UNL     1      14.676   1.215  20.090  0.00  0.00    +0.027 A 
ATOM      9  C6  UNL     1      15.815   0.463  20.381  0.00  0.00    +0.049 A 
ATOM     10  C7  UNL     1      15.904  -0.242  21.584  0.00  0.00    +0.143 A 
ATOM     11  C8  UNL     1      14.858  -0.181  22.525  0.00  0.00    +0.080 A 
ATOM     12  C9  UNL     1      13.716   0.590  22.224  0.00  0.00    +0.050 A 
ATOM     13  N3  UNL     1      15.010  -0.869  23.792  0.00  0.00    -0.269 N 
ATOM     14  C10 UNL     1      13.983  -0.777  24.839  0.00  0.00    +0.138 C 
ATOM     15  C11 UNL     1      16.220  -1.618  24.027  0.00  0.00    +0.257 C 
ATOM     16  O2  UNL     1      16.517  -2.021  25.184  0.00  0.00    -0.272 OA
ATOM     17  C12 UNL     1      17.104  -1.984  22.873  0.00  0.00    +0.325 C 
ATOM     18  O3  UNL     1      17.055  -0.988  21.855  0.00  0.00    -0.481 OA
ENDBRANCH   4   7
BRANCH   1  20
ATOM     19  C1  UNL     1      11.648   6.618  20.363  0.00  0.00    +0.033 C 
ATOM     20  C2  UNL     1      10.877   5.540  21.131  0.00  0.00    +0.102 C 
BRANCH  20  21
ATOM     21  C13 UNL     1       9.388   5.794  21.040  0.00  0.00    -0.027 A 
ATOM     22  C14 UNL     1       8.516   4.759  20.656  0.00  0.00    +0.005 A 
ATOM     23  C15 UNL     1       7.138   4.990  20.570  0.00  0.00    +0.000 A 
ATOM     24  C16 UNL     1       6.620   6.251  20.874  0.00  0.00    +0.000 A 
ATOM     25  C17 UNL     1       7.476   7.284  21.265  0.00  0.00    +0.000 A 
ATOM     26  C18 UNL     1       8.853   7.058  21.352  0.00  0.00    +0.005 A 
ENDBRANCH  20  21
ENDBRANCH   1  20
TORSDOF 3
ENDMDL
MODEL 9
REMARK VINA RESULT:    -6.294     16.034     17.243
REMARK INTER + INTRA:          -7.900
REMARK INTER:                  -7.969
REMARK INTRA:                   0.069
REMARK UNBOUND:                -0.502
REMARK  Name = /home/qwerty/github/datacon2025hack/step_04_hit_selection/docking/ligands/lig_429.pdb
REMARK  5 active torsions:
REMARK  status: ('A' for Active; 'I' for Inactive)
REMARK    1  A    between atoms: C1_1  and  C2_2
REMARK    2  A    between atoms: C2_2  and  N1_3
REMARK    3  A    between atoms: C2_2  and  C13_19
REMARK    4  A    between atoms: N2_6  and  C4_7
REMARK    5  A    between atoms: N3_13  and  C10_14
REMARK                            x       y       z     vdW  Elec       q    Type
REMARK                         _______ _______ _______ _____ _____    ______ ____
ROOT
ATOM      1  N1  UNL     1       9.530   6.772  19.908  0.00  0.00    -0.293 N 
ATOM      2  C3  UNL     1      10.575   5.921  20.397  0.00  0.00    +0.304 C 
ATOM      3  O1  UNL     1      11.111   6.159  21.513  0.00  0.00    -0.252 OA
ATOM      4  N2  UNL     1      10.980   4.780  19.623  0.00  0.00    -0.269 N 
ATOM      5  H5  UNL     1       9.130   6.574  18.963  0.00  0.00    +0.151 HD
ATOM      6  H6  UNL     1      10.330   4.447  18.876  0.00  0.00    +0.156 HD
ENDROOT
BRANCH   4   7
ATOM      7  C4  UNL     1      12.152   3.995  19.900  0.00  0.00    +0.037 A 
ATOM      8  C5  UNL     1      13.388   4.404  19.384  0.00  0.00    +0.027 A 
ATOM      9  C6  UNL     1      14.545   3.673  19.656  0.00  0.00    +0.049 A 
ATOM     10  C7  UNL     1      14.482   2.526  20.450  0.00  0.00    +0.143 A 
ATOM     11  C8  UNL     1      13.256   2.109  21.006  0.00  0.00    +0.080 A 
ATOM     12  C9  UNL     1      12.094   2.862  20.731  0.00  0.00    +0.050 A 
ATOM     13  N3  UNL     1      13.236   0.955  21.881  0.00  0.00    -0.269 N 
ATOM     14  C10 UNL     1      11.999   0.521  22.546  0.00  0.00    +0.138 C 
ATOM     15  C11 UNL     1      14.473   0.255  22.125  0.00  0.00    +0.257 C 
ATOM     16  O2  UNL     1      14.567  -0.587  23.059  0.00  0.00    -0.272 OA
ATOM     17  C12 UNL     1      15.645   0.478  21.218  0.00  0.00    +0.325 C 
ATOM     18  O3  UNL     1      15.654   1.810  20.711  0.00  0.00    -0.481 OA
ENDBRANCH   4   7
BRANCH   1  20
ATOM     19  C1  UNL     1       8.417   7.391  22.020  0.00  0.00    +0.033 C 
ATOM     20  C2  UNL     1       9.004   7.892  20.697  0.00  0.00    +0.102 C 
BRANCH  20  21
ATOM     21  C13 UNL     1      10.096   8.908  20.959  0.00  0.00    -0.027 A 
ATOM     22  C14 UNL     1      10.900   9.371  19.901  0.00  0.00    +0.005 A 
ATOM     23  C15 UNL     1      11.909  10.310  20.140  0.00  0.00    +0.000 A 
ATOM     24  C16 UNL     1      12.121  10.798  21.431  0.00  0.00    +0.000 A 
ATOM     25  C17 UNL     1      11.322  10.350  22.488  0.00  0.00    +0.000 A 
ATOM     26  C18 UNL     1      10.312   9.412  22.254  0.00  0.00    +0.005 A 
ENDBRANCH  20  21
ENDBRANCH   1  20
TORSDOF 3
ENDMDL
