MODEL 1
REMARK VINA RESULT:    -7.200      0.000      0.000
REMARK INTER + INTRA:          -9.762
REMARK INTER:                  -8.883
REMARK INTRA:                  -0.879
REMARK UNBOUND:                -0.879
REMARK  Name = /home/qwerty/github/datacon2025hack/step_04_hit_selection/docking/ligands/lig_590.pdb
REMARK  7 active torsions:
REMARK  status: ('A' for Active; 'I' for Inactive)
REMARK    1  A    between atoms: C1_1  and  O1_2
REMARK    2  A    between atoms: O1_2  and  C2_3
REMARK    3  A    between atoms: C4_5  and  C5_6
REMARK    4  A    between atoms: C23_26  and  O2_27
REMARK    5  A    between atoms: O2_27  and  C24_28
REMARK    6  A    between atoms: C24_28  and  C25_29
REMARK    7  A    between atoms: C24_28  and  C26_30
REMARK                            x       y       z     vdW  Elec       q    Type
REMARK                         _______ _______ _______ _____ _____    ______ ____
ROOT
ATOM      1  C5  UNL     1      14.164   1.794  20.860  0.00  0.00    +0.072 A 
ATOM      2  C6  UNL     1      15.109   1.447  19.881  0.00  0.00    +0.029 A 
ATOM      3  C7  UNL     1      16.036   0.439  20.145  0.00  0.00    +0.012 A 
ATOM      4  C8  UNL     1      16.030  -0.216  21.383  0.00  0.00    +0.001 A 
ATOM      5  C9  UNL     1      16.956  -1.227  21.656  0.00  0.00    +0.010 A 
ATOM      6  C10 UNL     1      16.947  -1.870  22.890  0.00  0.00    +0.009 A 
ATOM      7  C11 UNL     1      16.015  -1.514  23.876  0.00  0.00    -0.014 A 
ATOM      8  C12 UNL     1      16.033  -2.181  25.109  0.00  0.00    +0.009 A 
ATOM      9  C13 UNL     1      15.123  -1.850  26.108  0.00  0.00    +0.010 A 
ATOM     10  C14 UNL     1      14.176  -0.845  25.893  0.00  0.00    +0.001 A 
ATOM     11  C15 UNL     1      13.258  -0.507  26.898  0.00  0.00    +0.011 A 
ATOM     12  C16 UNL     1      12.318   0.498  26.673  0.00  0.00    +0.020 A 
ATOM     13  C17 UNL     1      12.303   1.157  25.446  0.00  0.00    +0.111 A 
ATOM     14  N1  UNL     1      13.198   0.820  24.481  0.00  0.00    -0.254 NA
ATOM     15  C18 UNL     1      14.135  -0.157  24.656  0.00  0.00    +0.081 A 
ATOM     16  C19 UNL     1      15.061  -0.488  23.626  0.00  0.00    +0.034 A 
ATOM     17  C20 UNL     1      15.077   0.160  22.359  0.00  0.00    +0.081 A 
ATOM     18  N2  UNL     1      14.188   1.147  22.058  0.00  0.00    -0.246 NA
ENDROOT
BRANCH   1  21
ATOM     19  C2  UNL     1      10.898   3.777  20.929  0.00  0.00    +0.162 A 
ATOM     20  C3  UNL     1      11.848   2.756  21.142  0.00  0.00    +0.059 A 
ATOM     21  C4  UNL     1      13.155   2.861  20.634  0.00  0.00    +0.004 A 
ATOM     22  C21 UNL     1      13.513   4.015  19.923  0.00  0.00    +0.014 A 
ATOM     23  C22 UNL     1      12.585   5.033  19.713  0.00  0.00    +0.050 A 
ATOM     24  C23 UNL     1      11.283   4.941  20.215  0.00  0.00    +0.162 A 
BRANCH  19  26
ATOM     25  C1  UNL     1       9.168   3.873  22.744  0.00  0.00    +0.277 C 
ATOM     26  O1  UNL     1       9.583   3.646  21.401  0.00  0.00    -0.491 OA
ENDBRANCH  19  26
BRANCH  24  27
ATOM     27  O2  UNL     1      10.434   6.034  19.955  0.00  0.00    -0.486 OA
BRANCH  27  28
ATOM     28  C24 UNL     1      10.196   7.178  20.781  0.00  0.00    +0.167 C 
ATOM     29  C25 UNL     1       8.687   7.360  20.929  0.00  0.00    +0.051 C 
ATOM     30  C26 UNL     1      10.816   8.432  20.153  0.00  0.00    +0.051 C 
ENDBRANCH  27  28
ENDBRANCH  24  27
ENDBRANCH   1  21
TORSDOF 4
ENDMDL
MODEL 2
REMARK VINA RESULT:    -7.139     15.520     17.135
REMARK INTER + INTRA:          -9.687
REMARK INTER:                  -8.813
REMARK INTRA:                  -0.874
REMARK UNBOUND:                -0.879
REMARK  Name = /home/qwerty/github/datacon2025hack/step_04_hit_selection/docking/ligands/lig_590.pdb
REMARK  7 active torsions:
REMARK  status: ('A' for Active; 'I' for Inactive)
REMARK    1  A    between atoms: C1_1  and  O1_2
REMARK    2  A    between atoms: O1_2  and  C2_3
REMARK    3  A    between atoms: C4_5  and  C5_6
REMARK    4  A    between atoms: C23_26  and  O2_27
REMARK    5  A    between atoms: O2_27  and  C24_28
REMARK    6  A    between atoms: C24_28  and  C25_29
REMARK    7  A    between atoms: C24_28  and  C26_30
REMARK                            x       y       z     vdW  Elec       q    Type
REMARK                         _______ _______ _______ _____ _____    ______ ____
ROOT
ATOM      1  C5  UNL     1      20.076   8.790  36.758  0.00  0.00    +0.072 A 
ATOM      2  C6  UNL     1      20.498   7.890  37.748  0.00  0.00    +0.029 A 
ATOM      3  C7  UNL     1      21.618   7.090  37.521  0.00  0.00    +0.012 A 
ATOM      4  C8  UNL     1      22.311   7.180  36.307  0.00  0.00    +0.001 A 
ATOM      5  C9  UNL     1      23.435   6.383  36.071  0.00  0.00    +0.010 A 
ATOM      6  C10 UNL     1      24.116   6.473  34.861  0.00  0.00    +0.009 A 
ATOM      7  C11 UNL     1      23.687   7.361  33.863  0.00  0.00    -0.014 A 
ATOM      8  C12 UNL     1      24.395   7.427  32.655  0.00  0.00    +0.009 A 
ATOM      9  C13 UNL     1      23.993   8.295  31.644  0.00  0.00    +0.010 A 
ATOM     10  C14 UNL     1      22.876   9.115  31.823  0.00  0.00    +0.001 A 
ATOM     11  C15 UNL     1      22.467   9.990  30.806  0.00  0.00    +0.011 A 
ATOM     12  C16 UNL     1      21.350  10.803  30.995  0.00  0.00    +0.020 A 
ATOM     13  C17 UNL     1      20.649  10.734  32.198  0.00  0.00    +0.111 A 
ATOM     14  N1  UNL     1      21.056   9.881  33.175  0.00  0.00    -0.254 NA
ATOM     15  C18 UNL     1      22.144   9.069  33.035  0.00  0.00    +0.081 A 
ATOM     16  C19 UNL     1      22.546   8.184  34.076  0.00  0.00    +0.034 A 
ATOM     17  C20 UNL     1      21.859   8.085  35.318  0.00  0.00    +0.081 A 
ATOM     18  N2  UNL     1      20.763   8.848  35.584  0.00  0.00    -0.246 NA
ENDROOT
BRANCH   1  21
ATOM     19  C2  UNL     1      17.669  11.749  36.514  0.00  0.00    +0.162 A 
ATOM     20  C3  UNL     1      18.803  10.928  36.336  0.00  0.00    +0.059 A 
ATOM     21  C4  UNL     1      18.888   9.663  36.945  0.00  0.00    +0.004 A 
ATOM     22  C21 UNL     1      17.812   9.214  37.722  0.00  0.00    +0.014 A 
ATOM     23  C22 UNL     1      16.684  10.012  37.897  0.00  0.00    +0.050 A 
ATOM     24  C23 UNL     1      16.586  11.271  37.295  0.00  0.00    +0.162 A 
BRANCH  19  26
ATOM     25  C1  UNL     1      17.188  13.310  34.609  0.00  0.00    +0.277 C 
ATOM     26  O1  UNL     1      17.609  13.028  35.939  0.00  0.00    -0.491 OA
ENDBRANCH  19  26
BRANCH  24  27
ATOM     27  O2  UNL     1      15.395  11.986  37.530  0.00  0.00    -0.486 OA
BRANCH  27  28
ATOM     28  C24 UNL     1      14.292  12.170  36.639  0.00  0.00    +0.167 C 
ATOM     29  C25 UNL     1      13.861  13.634  36.702  0.00  0.00    +0.051 C 
ATOM     30  C26 UNL     1      13.122  11.263  37.037  0.00  0.00    +0.051 C 
ENDBRANCH  27  28
ENDBRANCH  24  27
ENDBRANCH   1  21
TORSDOF 4
ENDMDL
MODEL 3
REMARK VINA RESULT:    -6.934     15.671     16.754
REMARK INTER + INTRA:          -9.434
REMARK INTER:                  -8.621
REMARK INTRA:                  -0.814
REMARK UNBOUND:                -0.879
REMARK  Name = /home/qwerty/github/datacon2025hack/step_04_hit_selection/docking/ligands/lig_590.pdb
REMARK  7 active torsions:
REMARK  status: ('A' for Active; 'I' for Inactive)
REMARK    1  A    between atoms: C1_1  and  O1_2
REMARK    2  A    between atoms: O1_2  and  C2_3
REMARK    3  A    between atoms: C4_5  and  C5_6
REMARK    4  A    between atoms: C23_26  and  O2_27
REMARK    5  A    between atoms: O2_27  and  C24_28
REMARK    6  A    between atoms: C24_28  and  C25_29
REMARK    7  A    between atoms: C24_28  and  C26_30
REMARK                            x       y       z     vdW  Elec       q    Type
REMARK                         _______ _______ _______ _____ _____    ______ ____
ROOT
ATOM      1  C5  UNL     1      20.055  11.015  33.339  0.00  0.00    +0.072 A 
ATOM      2  C6  UNL     1      20.225  11.422  32.007  0.00  0.00    +0.029 A 
ATOM      3  C7  UNL     1      21.189  10.799  31.214  0.00  0.00    +0.012 A 
ATOM      4  C8  UNL     1      21.987   9.780  31.747  0.00  0.00    +0.001 A 
ATOM      5  C9  UNL     1      22.954   9.150  30.959  0.00  0.00    +0.010 A 
ATOM      6  C10 UNL     1      23.748   8.140  31.497  0.00  0.00    +0.009 A 
ATOM      7  C11 UNL     1      23.590   7.743  32.833  0.00  0.00    -0.014 A 
ATOM      8  C12 UNL     1      24.406   6.724  33.345  0.00  0.00    +0.009 A 
ATOM      9  C13 UNL     1      24.276   6.308  34.667  0.00  0.00    +0.010 A 
ATOM     10  C14 UNL     1      23.327   6.903  35.502  0.00  0.00    +0.001 A 
ATOM     11  C15 UNL     1      23.195   6.488  36.835  0.00  0.00    +0.011 A 
ATOM     12  C16 UNL     1      22.245   7.089  37.660  0.00  0.00    +0.020 A 
ATOM     13  C17 UNL     1      21.436   8.102  37.147  0.00  0.00    +0.111 A 
ATOM     14  N1  UNL     1      21.575   8.494  35.854  0.00  0.00    -0.254 NA
ATOM     15  C18 UNL     1      22.490   7.934  35.010  0.00  0.00    +0.081 A 
ATOM     16  C19 UNL     1      22.613   8.367  33.659  0.00  0.00    +0.034 A 
ATOM     17  C20 UNL     1      21.806   9.395  33.097  0.00  0.00    +0.081 A 
ATOM     18  N2  UNL     1      20.852  10.028  33.834  0.00  0.00    -0.246 NA
ENDROOT
BRANCH   1  21
ATOM     19  C2  UNL     1      17.627  11.605  36.232  0.00  0.00    +0.162 A 
ATOM     20  C3  UNL     1      18.580  10.997  35.387  0.00  0.00    +0.059 A 
ATOM     21  C4  UNL     1      19.047  11.646  34.230  0.00  0.00    +0.004 A 
ATOM     22  C21 UNL     1      18.563  12.927  33.933  0.00  0.00    +0.014 A 
ATOM     23  C22 UNL     1      17.628  13.541  34.764  0.00  0.00    +0.050 A 
ATOM     24  C23 UNL     1      17.158  12.906  35.919  0.00  0.00    +0.162 A 
BRANCH  19  26
ATOM     25  C1  UNL     1      17.861   9.981  38.130  0.00  0.00    +0.277 C 
ATOM     26  O1  UNL     1      17.135  10.934  37.361  0.00  0.00    -0.491 OA
ENDBRANCH  19  26
BRANCH  24  27
ATOM     27  O2  UNL     1      16.225  13.625  36.692  0.00  0.00    -0.486 OA
BRANCH  27  28
ATOM     28  C24 UNL     1      15.119  14.405  36.232  0.00  0.00    +0.167 C 
ATOM     29  C25 UNL     1      15.208  15.790  36.869  0.00  0.00    +0.051 C 
ATOM     30  C26 UNL     1      13.793  13.737  36.614  0.00  0.00    +0.051 C 
ENDBRANCH  27  28
ENDBRANCH  24  27
ENDBRANCH   1  21
TORSDOF 4
ENDMDL
MODEL 4
REMARK VINA RESULT:    -6.837      7.135     10.481
REMARK INTER + INTRA:          -9.315
REMARK INTER:                  -8.479
REMARK INTRA:                  -0.836
REMARK UNBOUND:                -0.879
REMARK  Name = /home/qwerty/github/datacon2025hack/step_04_hit_selection/docking/ligands/lig_590.pdb
REMARK  7 active torsions:
REMARK  status: ('A' for Active; 'I' for Inactive)
REMARK    1  A    between atoms: C1_1  and  O1_2
REMARK    2  A    between atoms: O1_2  and  C2_3
REMARK    3  A    between atoms: C4_5  and  C5_6
REMARK    4  A    between atoms: C23_26  and  O2_27
REMARK    5  A    between atoms: O2_27  and  C24_28
REMARK    6  A    between atoms: C24_28  and  C25_29
REMARK    7  A    between atoms: C24_28  and  C26_30
REMARK                            x       y       z     vdW  Elec       q    Type
REMARK                         _______ _______ _______ _____ _____    ______ ____
ROOT
ATOM      1  C5  UNL     1      21.209   4.754  23.624  0.00  0.00    +0.072 A 
ATOM      2  C6  UNL     1      22.154   5.762  23.381  0.00  0.00    +0.029 A 
ATOM      3  C7  UNL     1      21.942   6.670  22.343  0.00  0.00    +0.012 A 
ATOM      4  C8  UNL     1      20.797   6.569  21.544  0.00  0.00    +0.001 A 
ATOM      5  C9  UNL     1      20.576   7.475  20.502  0.00  0.00    +0.010 A 
ATOM      6  C10 UNL     1      19.438   7.366  19.708  0.00  0.00    +0.009 A 
ATOM      7  C11 UNL     1      18.500   6.349  19.939  0.00  0.00    -0.014 A 
ATOM      8  C12 UNL     1      17.365   6.266  19.121  0.00  0.00    +0.009 A 
ATOM      9  C13 UNL     1      16.416   5.269  19.323  0.00  0.00    +0.010 A 
ATOM     10  C14 UNL     1      16.585   4.334  20.347  0.00  0.00    +0.001 A 
ATOM     11  C15 UNL     1      15.632   3.325  20.553  0.00  0.00    +0.011 A 
ATOM     12  C16 UNL     1      15.811   2.397  21.578  0.00  0.00    +0.020 A 
ATOM     13  C17 UNL     1      16.940   2.483  22.389  0.00  0.00    +0.111 A 
ATOM     14  N1  UNL     1      17.856   3.466  22.179  0.00  0.00    -0.254 NA
ATOM     15  C18 UNL     1      17.722   4.396  21.189  0.00  0.00    +0.081 A 
ATOM     16  C19 UNL     1      18.699   5.413  20.992  0.00  0.00    +0.034 A 
ATOM     17  C20 UNL     1      19.864   5.536  21.800  0.00  0.00    +0.081 A 
ATOM     18  N2  UNL     1      20.110   4.674  22.824  0.00  0.00    -0.246 NA
ENDROOT
BRANCH   1  21
ATOM     19  C2  UNL     1      20.764   1.660  25.824  0.00  0.00    +0.162 A 
ATOM     20  C3  UNL     1      20.586   2.604  24.790  0.00  0.00    +0.059 A 
ATOM     21  C4  UNL     1      21.385   3.759  24.713  0.00  0.00    +0.004 A 
ATOM     22  C21 UNL     1      22.385   3.953  25.676  0.00  0.00    +0.014 A 
ATOM     23  C22 UNL     1      22.575   3.024  26.697  0.00  0.00    +0.050 A 
ATOM     24  C23 UNL     1      21.788   1.871  26.782  0.00  0.00    +0.162 A 
BRANCH  19  26
ATOM     25  C1  UNL     1      18.954   0.153  24.959  0.00  0.00    +0.277 C 
ATOM     26  O1  UNL     1      19.934   0.533  25.919  0.00  0.00    -0.491 OA
ENDBRANCH  19  26
BRANCH  24  27
ATOM     27  O2  UNL     1      22.076   0.995  27.847  0.00  0.00    -0.486 OA
BRANCH  27  28
ATOM     28  C24 UNL     1      22.578   1.324  29.145  0.00  0.00    +0.167 C 
ATOM     29  C25 UNL     1      23.973   0.719  29.290  0.00  0.00    +0.051 C 
ATOM     30  C26 UNL     1      21.652   0.774  30.236  0.00  0.00    +0.051 C 
ENDBRANCH  27  28
ENDBRANCH  24  27
ENDBRANCH   1  21
TORSDOF 4
ENDMDL
MODEL 5
REMARK VINA RESULT:    -6.827      9.650     12.554
REMARK INTER + INTRA:          -9.303
REMARK INTER:                  -8.531
REMARK INTRA:                  -0.772
REMARK UNBOUND:                -0.879
REMARK  Name = /home/qwerty/github/datacon2025hack/step_04_hit_selection/docking/ligands/lig_590.pdb
REMARK  7 active torsions:
REMARK  status: ('A' for Active; 'I' for Inactive)
REMARK    1  A    between atoms: C1_1  and  O1_2
REMARK    2  A    between atoms: O1_2  and  C2_3
REMARK    3  A    between atoms: C4_5  and  C5_6
REMARK    4  A    between atoms: C23_26  and  O2_27
REMARK    5  A    between atoms: O2_27  and  C24_28
REMARK    6  A    between atoms: C24_28  and  C25_29
REMARK    7  A    between atoms: C24_28  and  C26_30
REMARK                            x       y       z     vdW  Elec       q    Type
REMARK                         _______ _______ _______ _____ _____    ______ ____
ROOT
ATOM      1  C5  UNL     1      22.838   7.361  21.428  0.00  0.00    +0.072 A 
ATOM      2  C6  UNL     1      24.240   7.397  21.395  0.00  0.00    +0.029 A 
ATOM      3  C7  UNL     1      24.888   8.500  20.838  0.00  0.00    +0.012 A 
ATOM      4  C8  UNL     1      24.142   9.559  20.306  0.00  0.00    +0.001 A 
ATOM      5  C9  UNL     1      24.783  10.668  19.747  0.00  0.00    +0.010 A 
ATOM      6  C10 UNL     1      24.035  11.715  19.216  0.00  0.00    +0.009 A 
ATOM      7  C11 UNL     1      22.634  11.674  19.234  0.00  0.00    -0.014 A 
ATOM      8  C12 UNL     1      21.910  12.745  18.690  0.00  0.00    +0.009 A 
ATOM      9  C13 UNL     1      20.519  12.733  18.691  0.00  0.00    +0.010 A 
ATOM     10  C14 UNL     1      19.824  11.651  19.235  0.00  0.00    +0.001 A 
ATOM     11  C15 UNL     1      18.421  11.634  19.236  0.00  0.00    +0.011 A 
ATOM     12  C16 UNL     1      17.738  10.548  19.780  0.00  0.00    +0.020 A 
ATOM     13  C17 UNL     1      18.461   9.486  20.320  0.00  0.00    +0.111 A 
ATOM     14  N1  UNL     1      19.819   9.514  20.313  0.00  0.00    -0.254 NA
ATOM     15  C18 UNL     1      20.530  10.556  19.792  0.00  0.00    +0.081 A 
ATOM     16  C19 UNL     1      21.954  10.558  19.797  0.00  0.00    +0.034 A 
ATOM     17  C20 UNL     1      22.729   9.494  20.340  0.00  0.00    +0.081 A 
ATOM     18  N2  UNL     1      22.138   8.401  20.896  0.00  0.00    -0.246 NA
ENDROOT
BRANCH   1  21
ATOM     19  C2  UNL     1      21.494   4.783  23.910  0.00  0.00    +0.162 A 
ATOM     20  C3  UNL     1      22.208   5.873  23.367  0.00  0.00    +0.059 A 
ATOM     21  C4  UNL     1      22.095   6.211  22.007  0.00  0.00    +0.004 A 
ATOM     22  C21 UNL     1      21.240   5.457  21.192  0.00  0.00    +0.014 A 
ATOM     23  C22 UNL     1      20.524   4.384  21.719  0.00  0.00    +0.050 A 
ATOM     24  C23 UNL     1      20.627   4.039  23.071  0.00  0.00    +0.162 A 
BRANCH  19  26
ATOM     25  C1  UNL     1      22.496   3.390  25.742  0.00  0.00    +0.277 C 
ATOM     26  O1  UNL     1      21.646   4.425  25.258  0.00  0.00    -0.491 OA
ENDBRANCH  19  26
BRANCH  24  27
ATOM     27  O2  UNL     1      19.848   2.946  23.499  0.00  0.00    -0.486 OA
BRANCH  27  28
ATOM     28  C24 UNL     1      18.548   2.972  24.092  0.00  0.00    +0.167 C 
ATOM     29  C25 UNL     1      18.655   2.425  25.514  0.00  0.00    +0.051 C 
ATOM     30  C26 UNL     1      17.566   2.121  23.277  0.00  0.00    +0.051 C 
ENDBRANCH  27  28
ENDBRANCH  24  27
ENDBRANCH   1  21
TORSDOF 4
ENDMDL
MODEL 6
REMARK VINA RESULT:    -6.803     10.118     13.310
REMARK INTER + INTRA:          -9.273
REMARK INTER:                  -8.584
REMARK INTRA:                  -0.689
REMARK UNBOUND:                -0.879
REMARK  Name = /home/qwerty/github/datacon2025hack/step_04_hit_selection/docking/ligands/lig_590.pdb
REMARK  7 active torsions:
REMARK  status: ('A' for Active; 'I' for Inactive)
REMARK    1  A    between atoms: C1_1  and  O1_2
REMARK    2  A    between atoms: O1_2  and  C2_3
REMARK    3  A    between atoms: C4_5  and  C5_6
REMARK    4  A    between atoms: C23_26  and  O2_27
REMARK    5  A    between atoms: O2_27  and  C24_28
REMARK    6  A    between atoms: C24_28  and  C25_29
REMARK    7  A    between atoms: C24_28  and  C26_30
REMARK                            x       y       z     vdW  Elec       q    Type
REMARK                         _______ _______ _______ _____ _____    ______ ____
ROOT
ATOM      1  C5  UNL     1      18.916   1.310  32.264  0.00  0.00    +0.072 A 
ATOM      2  C6  UNL     1      18.190   0.220  32.770  0.00  0.00    +0.029 A 
ATOM      3  C7  UNL     1      17.621   0.301  34.041  0.00  0.00    +0.012 A 
ATOM      4  C8  UNL     1      17.782   1.459  34.811  0.00  0.00    +0.001 A 
ATOM      5  C9  UNL     1      17.216   1.548  36.086  0.00  0.00    +0.010 A 
ATOM      6  C10 UNL     1      17.384   2.700  36.848  0.00  0.00    +0.009 A 
ATOM      7  C11 UNL     1      18.122   3.785  36.352  0.00  0.00    -0.014 A 
ATOM      8  C12 UNL     1      18.274   4.930  37.145  0.00  0.00    +0.009 A 
ATOM      9  C13 UNL     1      19.002   6.022  36.683  0.00  0.00    +0.010 A 
ATOM     10  C14 UNL     1      19.593   5.989  35.417  0.00  0.00    +0.001 A 
ATOM     11  C15 UNL     1      20.330   7.087  34.948  0.00  0.00    +0.011 A 
ATOM     12  C16 UNL     1      20.916   7.043  33.684  0.00  0.00    +0.020 A 
ATOM     13  C17 UNL     1      20.763   5.902  32.899  0.00  0.00    +0.111 A 
ATOM     14  N1  UNL     1      20.047   4.845  33.365  0.00  0.00    -0.254 NA
ATOM     15  C18 UNL     1      19.455   4.844  34.595  0.00  0.00    +0.081 A 
ATOM     16  C19 UNL     1      18.711   3.722  35.057  0.00  0.00    +0.034 A 
ATOM     17  C20 UNL     1      18.529   2.539  34.286  0.00  0.00    +0.081 A 
ATOM     18  N2  UNL     1      19.065   2.419  33.040  0.00  0.00    -0.246 NA
ENDROOT
BRANCH   1  21
ATOM     19  C2  UNL     1      21.392   0.657  29.427  0.00  0.00    +0.162 A 
ATOM     20  C3  UNL     1      20.804   0.688  30.709  0.00  0.00    +0.059 A 
ATOM     21  C4  UNL     1      19.545   1.278  30.919  0.00  0.00    +0.004 A 
ATOM     22  C21 UNL     1      18.864   1.823  29.821  0.00  0.00    +0.014 A 
ATOM     23  C22 UNL     1      19.431   1.790  28.549  0.00  0.00    +0.050 A 
ATOM     24  C23 UNL     1      20.682   1.204  28.328  0.00  0.00    +0.162 A 
BRANCH  19  26
ATOM     25  C1  UNL     1      22.929  -1.237  28.836  0.00  0.00    +0.277 C 
ATOM     26  O1  UNL     1      22.667   0.105  29.233  0.00  0.00    -0.491 OA
ENDBRANCH  19  26
BRANCH  24  27
ATOM     27  O2  UNL     1      21.152   1.215  27.000  0.00  0.00    -0.486 OA
BRANCH  27  28
ATOM     28  C24 UNL     1      20.899   2.192  25.987  0.00  0.00    +0.167 C 
ATOM     29  C25 UNL     1      20.265   1.490  24.788  0.00  0.00    +0.051 C 
ATOM     30  C26 UNL     1      22.203   2.878  25.563  0.00  0.00    +0.051 C 
ENDBRANCH  27  28
ENDBRANCH  24  27
ENDBRANCH   1  21
TORSDOF 4
ENDMDL
MODEL 7
REMARK VINA RESULT:    -6.798      1.286      4.228
REMARK INTER + INTRA:          -9.266
REMARK INTER:                  -8.443
REMARK INTRA:                  -0.823
REMARK UNBOUND:                -0.879
REMARK  Name = /home/qwerty/github/datacon2025hack/step_04_hit_selection/docking/ligands/lig_590.pdb
REMARK  7 active torsions:
REMARK  status: ('A' for Active; 'I' for Inactive)
REMARK    1  A    between atoms: C1_1  and  O1_2
REMARK    2  A    between atoms: O1_2  and  C2_3
REMARK    3  A    between atoms: C4_5  and  C5_6
REMARK    4  A    between atoms: C23_26  and  O2_27
REMARK    5  A    between atoms: O2_27  and  C24_28
REMARK    6  A    between atoms: C24_28  and  C25_29
REMARK    7  A    between atoms: C24_28  and  C26_30
REMARK                            x       y       z     vdW  Elec       q    Type
REMARK                         _______ _______ _______ _____ _____    ______ ____
ROOT
ATOM      1  C5  UNL     1      11.603   1.764  24.051  0.00  0.00    +0.072 A 
ATOM      2  C6  UNL     1      11.270   1.501  25.389  0.00  0.00    +0.029 A 
ATOM      3  C7  UNL     1      12.075   0.648  26.145  0.00  0.00    +0.012 A 
ATOM      4  C8  UNL     1      13.202   0.051  25.568  0.00  0.00    +0.001 A 
ATOM      5  C9  UNL     1      14.014  -0.805  26.318  0.00  0.00    +0.010 A 
ATOM      6  C10 UNL     1      15.130  -1.399  25.737  0.00  0.00    +0.009 A 
ATOM      7  C11 UNL     1      15.456  -1.151  24.396  0.00  0.00    -0.014 A 
ATOM      8  C12 UNL     1      16.586  -1.767  23.840  0.00  0.00    +0.009 A 
ATOM      9  C13 UNL     1      16.935  -1.543  22.512  0.00  0.00    +0.010 A 
ATOM     10  C14 UNL     1      16.160  -0.699  21.713  0.00  0.00    +0.001 A 
ATOM     11  C15 UNL     1      16.507  -0.472  20.373  0.00  0.00    +0.011 A 
ATOM     12  C16 UNL     1      15.725   0.372  19.585  0.00  0.00    +0.020 A 
ATOM     13  C17 UNL     1      14.602   0.982  20.141  0.00  0.00    +0.111 A 
ATOM     14  N1  UNL     1      14.277   0.753  21.441  0.00  0.00    -0.254 NA
ATOM     15  C18 UNL     1      15.013  -0.063  22.250  0.00  0.00    +0.081 A 
ATOM     16  C19 UNL     1      14.647  -0.285  23.608  0.00  0.00    +0.034 A 
ATOM     17  C20 UNL     1      13.510   0.320  24.214  0.00  0.00    +0.081 A 
ATOM     18  N2  UNL     1      12.699   1.161  23.514  0.00  0.00    -0.246 NA
ENDROOT
BRANCH   1  21
ATOM     19  C2  UNL     1      10.557   4.231  21.326  0.00  0.00    +0.162 A 
ATOM     20  C3  UNL     1      11.346   3.386  22.135  0.00  0.00    +0.059 A 
ATOM     21  C4  UNL     1      10.781   2.662  23.199  0.00  0.00    +0.004 A 
ATOM     22  C21 UNL     1       9.404   2.775  23.437  0.00  0.00    +0.014 A 
ATOM     23  C22 UNL     1       8.614   3.601  22.640  0.00  0.00    +0.050 A 
ATOM     24  C23 UNL     1       9.165   4.324  21.577  0.00  0.00    +0.162 A 
BRANCH  19  26
ATOM     25  C1  UNL     1      11.483   6.362  20.378  0.00  0.00    +0.277 C 
ATOM     26  O1  UNL     1      11.136   4.984  20.293  0.00  0.00    -0.491 OA
ENDBRANCH  19  26
BRANCH  24  27
ATOM     27  O2  UNL     1       8.271   5.116  20.830  0.00  0.00    -0.486 OA
BRANCH  27  28
ATOM     28  C24 UNL     1       7.246   5.984  21.320  0.00  0.00    +0.167 C 
ATOM     29  C25 UNL     1       6.094   5.985  20.317  0.00  0.00    +0.051 C 
ATOM     30  C26 UNL     1       7.786   7.408  21.497  0.00  0.00    +0.051 C 
ENDBRANCH  27  28
ENDBRANCH  24  27
ENDBRANCH   1  21
TORSDOF 4
ENDMDL
MODEL 8
REMARK VINA RESULT:    -6.729      7.002     10.346
REMARK INTER + INTRA:          -9.182
REMARK INTER:                  -8.422
REMARK INTRA:                  -0.760
REMARK UNBOUND:                -0.879
REMARK  Name = /home/qwerty/github/datacon2025hack/step_04_hit_selection/docking/ligands/lig_590.pdb
REMARK  7 active torsions:
REMARK  status: ('A' for Active; 'I' for Inactive)
REMARK    1  A    between atoms: C1_1  and  O1_2
REMARK    2  A    between atoms: O1_2  and  C2_3
REMARK    3  A    between atoms: C4_5  and  C5_6
REMARK    4  A    between atoms: C23_26  and  O2_27
REMARK    5  A    between atoms: O2_27  and  C24_28
REMARK    6  A    between atoms: C24_28  and  C25_29
REMARK    7  A    between atoms: C24_28  and  C26_30
REMARK                            x       y       z     vdW  Elec       q    Type
REMARK                         _______ _______ _______ _____ _____    ______ ____
ROOT
ATOM      1  C5  UNL     1       8.344   7.379  26.413  0.00  0.00    +0.072 A 
ATOM      2  C6  UNL     1       7.839   6.177  26.931  0.00  0.00    +0.029 A 
ATOM      3  C7  UNL     1       7.778   5.047  26.116  0.00  0.00    +0.012 A 
ATOM      4  C8  UNL     1       8.209   5.115  24.785  0.00  0.00    +0.001 A 
ATOM      5  C9  UNL     1       8.152   3.987  23.961  0.00  0.00    +0.010 A 
ATOM      6  C10 UNL     1       8.578   4.064  22.638  0.00  0.00    +0.009 A 
ATOM      7  C11 UNL     1       9.068   5.269  22.113  0.00  0.00    -0.014 A 
ATOM      8  C12 UNL     1       9.487   5.313  20.777  0.00  0.00    +0.009 A 
ATOM      9  C13 UNL     1       9.977   6.493  20.225  0.00  0.00    +0.010 A 
ATOM     10  C14 UNL     1      10.055   7.652  21.000  0.00  0.00    +0.001 A 
ATOM     11  C15 UNL     1      10.546   8.845  20.448  0.00  0.00    +0.011 A 
ATOM     12  C16 UNL     1      10.619   9.996  21.230  0.00  0.00    +0.020 A 
ATOM     13  C17 UNL     1      10.201   9.948  22.559  0.00  0.00    +0.111 A 
ATOM     14  N1  UNL     1       9.728   8.787  23.082  0.00  0.00    -0.254 NA
ATOM     15  C18 UNL     1       9.639   7.635  22.354  0.00  0.00    +0.081 A 
ATOM     16  C19 UNL     1       9.137   6.433  22.929  0.00  0.00    +0.034 A 
ATOM     17  C20 UNL     1       8.702   6.342  24.281  0.00  0.00    +0.081 A 
ATOM     18  N2  UNL     1       8.747   7.419  25.113  0.00  0.00    -0.246 NA
ENDROOT
BRANCH   1  21
ATOM     19  C2  UNL     1       9.645  10.607  27.994  0.00  0.00    +0.162 A 
ATOM     20  C3  UNL     1       9.574   9.432  27.216  0.00  0.00    +0.059 A 
ATOM     21  C4  UNL     1       8.430   8.614  27.235  0.00  0.00    +0.004 A 
ATOM     22  C21 UNL     1       7.340   8.995  28.030  0.00  0.00    +0.014 A 
ATOM     23  C22 UNL     1       7.396  10.157  28.797  0.00  0.00    +0.050 A 
ATOM     24  C23 UNL     1       8.528  10.980  28.784  0.00  0.00    +0.162 A 
BRANCH  19  26
ATOM     25  C1  UNL     1      12.019  11.058  28.667  0.00  0.00    +0.277 C 
ATOM     26  O1  UNL     1      10.806  11.395  28.003  0.00  0.00    -0.491 OA
ENDBRANCH  19  26
BRANCH  24  27
ATOM     27  O2  UNL     1       8.469  12.136  29.587  0.00  0.00    -0.486 OA
BRANCH  27  28
ATOM     28  C24 UNL     1       8.270  13.488  29.166  0.00  0.00    +0.167 C 
ATOM     29  C25 UNL     1       7.090  14.066  29.944  0.00  0.00    +0.051 C 
ATOM     30  C26 UNL     1       7.983  13.546  27.661  0.00  0.00    +0.051 C 
ENDBRANCH  27  28
ENDBRANCH  24  27
ENDBRANCH   1  21
TORSDOF 4
ENDMDL
MODEL 9
REMARK VINA RESULT:    -6.600      1.450      2.111
REMARK INTER + INTRA:          -9.022
REMARK INTER:                  -8.226
REMARK INTRA:                  -0.796
REMARK UNBOUND:                -0.879
REMARK  Name = /home/qwerty/github/datacon2025hack/step_04_hit_selection/docking/ligands/lig_590.pdb
REMARK  7 active torsions:
REMARK  status: ('A' for Active; 'I' for Inactive)
REMARK    1  A    between atoms: C1_1  and  O1_2
REMARK    2  A    between atoms: O1_2  and  C2_3
REMARK    3  A    between atoms: C4_5  and  C5_6
REMARK    4  A    between atoms: C23_26  and  O2_27
REMARK    5  A    between atoms: O2_27  and  C24_28
REMARK    6  A    between atoms: C24_28  and  C25_29
REMARK    7  A    between atoms: C24_28  and  C26_30
REMARK                            x       y       z     vdW  Elec       q    Type
REMARK                         _______ _______ _______ _____ _____    ______ ____
ROOT
ATOM      1  C5  UNL     1      13.230   2.110  21.523  0.00  0.00    +0.072 A 
ATOM      2  C6  UNL     1      13.854   2.282  20.278  0.00  0.00    +0.029 A 
ATOM      3  C7  UNL     1      14.947   1.484  19.938  0.00  0.00    +0.012 A 
ATOM      4  C8  UNL     1      15.423   0.523  20.839  0.00  0.00    +0.001 A 
ATOM      5  C9  UNL     1      16.517  -0.281  20.507  0.00  0.00    +0.010 A 
ATOM      6  C10 UNL     1      16.988  -1.231  21.409  0.00  0.00    +0.009 A 
ATOM      7  C11 UNL     1      16.376  -1.394  22.660  0.00  0.00    -0.014 A 
ATOM      8  C12 UNL     1      16.875  -2.359  23.546  0.00  0.00    +0.009 A 
ATOM      9  C13 UNL     1      16.292  -2.544  24.796  0.00  0.00    +0.010 A 
ATOM     10  C14 UNL     1      15.197  -1.768  25.183  0.00  0.00    +0.001 A 
ATOM     11  C15 UNL     1      14.607  -1.949  26.443  0.00  0.00    +0.011 A 
ATOM     12  C16 UNL     1      13.516  -1.168  26.820  0.00  0.00    +0.020 A 
ATOM     13  C17 UNL     1      13.022  -0.211  25.936  0.00  0.00    +0.111 A 
ATOM     14  N1  UNL     1      13.603  -0.044  24.719  0.00  0.00    -0.254 NA
ATOM     15  C18 UNL     1      14.672  -0.786  24.307  0.00  0.00    +0.081 A 
ATOM     16  C19 UNL     1      15.260  -0.589  23.026  0.00  0.00    +0.034 A 
ATOM     17  C20 UNL     1      14.786   0.377  22.094  0.00  0.00    +0.081 A 
ATOM     18  N2  UNL     1      13.721   1.175  22.383  0.00  0.00    -0.246 NA
ENDROOT
BRANCH   1  21
ATOM     19  C2  UNL     1      10.889   4.305  23.599  0.00  0.00    +0.162 A 
ATOM     20  C3  UNL     1      11.996   3.518  23.215  0.00  0.00    +0.059 A 
ATOM     21  C4  UNL     1      12.065   2.933  21.938  0.00  0.00    +0.004 A 
ATOM     22  C21 UNL     1      11.019   3.160  21.034  0.00  0.00    +0.014 A 
ATOM     23  C22 UNL     1       9.924   3.941  21.400  0.00  0.00    +0.050 A 
ATOM     24  C23 UNL     1       9.846   4.530  22.666  0.00  0.00    +0.162 A 
BRANCH  19  26
ATOM     25  C1  UNL     1      10.165   4.232  26.001  0.00  0.00    +0.277 C 
ATOM     26  O1  UNL     1      10.807   4.849  24.890  0.00  0.00    -0.491 OA
ENDBRANCH  19  26
BRANCH  24  27
ATOM     27  O2  UNL     1       8.701   5.310  22.923  0.00  0.00    -0.486 OA
BRANCH  27  28
ATOM     28  C24 UNL     1       8.472   6.676  22.568  0.00  0.00    +0.167 C 
ATOM     29  C25 UNL     1       7.590   6.708  21.321  0.00  0.00    +0.051 C 
ATOM     30  C26 UNL     1       9.800   7.390  22.289  0.00  0.00    +0.051 C 
ENDBRANCH  27  28
ENDBRANCH  24  27
ENDBRANCH   1  21
TORSDOF 4
ENDMDL
