REMARK  Name = /home/qwerty/github/datacon2025hack/step_04_hit_selection/docking/ligands/lig_41.pdb
REMARK  6 active torsions:
REMARK  status: ('A' for Active; 'I' for Inactive)
REMARK    1  A    between atoms: C1_1  and  O1_2
REMARK    2  A    between atoms: O1_2  and  C2_3
REMARK    3  A    between atoms: C7_8  and  C8_9
REMARK    4  A    between atoms: C8_9  and  N1_10
REMARK    5  A    between atoms: N2_13  and  C10_14
REMARK    6  A    between atoms: C21_29  and  C22_30
REMARK                            x       y       z     vdW  Elec       q    Type
REMARK                         _______ _______ _______ _____ _____    ______ ____
ROOT
ATOM      1  N1  UNL     1       0.646  -0.042  -2.355  0.00  0.00    -0.295 N 
ATOM      2  C9  UNL     1      -0.001   0.585  -1.239  0.00  0.00    +0.304 C 
ATOM      3  O2  UNL     1       0.496   1.622  -0.723  0.00  0.00    -0.252 OA
ATOM      4  N2  UNL     1      -1.236   0.047  -0.743  0.00  0.00    -0.269 N 
ATOM      5  H8  UNL     1       0.187  -0.862  -2.811  0.00  0.00    +0.151 HD
ATOM      6  H9  UNL     1      -1.755  -0.620  -1.356  0.00  0.00    +0.156 HD
ENDROOT
BRANCH   4   7
ATOM      7  C10 UNL     1      -1.834   0.437   0.506  0.00  0.00    +0.040 A 
ATOM      8  C11 UNL     1      -1.051   0.757   1.637  0.00  0.00    +0.024 A 
ATOM      9  C12 UNL     1      -1.663   1.114   2.852  0.00  0.00    +0.002 A 
ATOM     10  C13 UNL     1      -3.061   1.147   2.959  0.00  0.00    +0.005 A 
ATOM     11  C14 UNL     1      -3.823   0.809   1.842  0.00  0.00    -0.024 A 
ATOM     12  C15 UNL     1      -3.230   0.454   0.650  0.00  0.00    -0.004 A 
ATOM     13  C16 UNL     1      -4.263   0.151  -0.375  0.00  0.00    +0.144 C 
ATOM     14  N3  UNL     1      -5.517   0.367   0.346  0.00  0.00    -0.301 N 
ATOM     15  C17 UNL     1      -6.816   0.197  -0.236  0.00  0.00    +0.161 A 
ATOM     16  N4  UNL     1      -7.964   0.400   0.445  0.00  0.00    -0.233 NA
ATOM     17  C18 UNL     1      -9.055   0.171  -0.335  0.00  0.00    +0.120 A 
ATOM     18  C19 UNL     1      -8.777  -0.215  -1.641  0.00  0.00    +0.068 A 
ATOM     19  S1  UNL     1      -7.106  -0.271  -1.826  0.00  0.00    -0.061 S 
ATOM     20  C20 UNL     1      -5.301   0.776   1.733  0.00  0.00    +0.142 C 
ENDBRANCH   4   7
BRANCH   1  21
ATOM     21  C8  UNL     1       1.939   0.407  -2.867  0.00  0.00    +0.145 C 
BRANCH  21  27
ATOM     22  C2  UNL     1       3.417  -1.278  -1.668  0.00  0.00    +0.125 A 
ATOM     23  C3  UNL     1       4.428  -1.572  -0.722  0.00  0.00    +0.053 A 
ATOM     24  C4  UNL     1       5.019  -0.521  -0.024  0.00  0.00    +0.001 A 
ATOM     25  C5  UNL     1       4.643   0.772  -0.235  0.00  0.00    +0.125 A 
ATOM     26  C6  UNL     1       3.656   1.107  -1.156  0.00  0.00    +0.054 A 
ATOM     27  C7  UNL     1       3.034   0.073  -1.887  0.00  0.00    +0.015 A 
ATOM     28  O3  UNL     1       5.351   1.641   0.565  0.00  0.00    -0.488 OA
ATOM     29  C21 UNL     1       6.280   0.922   1.378  0.00  0.00    +0.175 C 
ATOM     30  C22 UNL     1       6.006   1.202   2.854  0.00  0.00    +0.052 C 
ATOM     31  C23 UNL     1       6.081  -0.578   1.015  0.00  0.00    +0.083 C 
BRANCH  22  33
ATOM     32  C1  UNL     1       3.052  -3.680  -2.267  0.00  0.00    +0.277 C 
ATOM     33  O1  UNL     1       2.775  -2.290  -2.400  0.00  0.00    -0.495 OA
ENDBRANCH  22  33
ENDBRANCH  21  27
ENDBRANCH   1  21
TORSDOF 4
