REMARK  Name = /home/qwerty/github/datacon2025hack/step_04_hit_selection/docking/ligands/lig_431.pdb
REMARK  6 active torsions:
REMARK  status: ('A' for Active; 'I' for Inactive)
REMARK    1  A    between atoms: C1_1  and  C2_2
REMARK    2  A    between atoms: C2_2  and  C3_3
REMARK    3  A    between atoms: C2_2  and  C4_4
REMARK    4  A    between atoms: C6_6  and  C7_7
REMARK    5  A    between atoms: C10_12  and  N2_13
REMARK    6  A    between atoms: C11_14  and  C12_16
REMARK                            x       y       z     vdW  Elec       q    Type
REMARK                         _______ _______ _______ _____ _____    ______ ____
ROOT
ATOM      1  C7  UNL     1       1.158  -1.715  -1.353  0.00  0.00    +0.285 C 
ATOM      2  O1  UNL     1       1.238  -2.280  -2.477  0.00  0.00    -0.267 OA
ATOM      3  N1  UNL     1       0.140  -2.135  -0.424  0.00  0.00    -0.293 N 
ATOM      4  C8  UNL     1      -0.668  -3.323  -0.652  0.00  0.00    +0.110 C 
ATOM      5  C9  UNL     1      -1.707  -3.332   0.460  0.00  0.00    +0.043 C 
ATOM      6  C10 UNL     1      -1.777  -1.886   0.961  0.00  0.00    +0.092 C 
ATOM      7  C15 UNL     1      -0.402  -1.300   0.639  0.00  0.00    +0.130 C 
ENDROOT
BRANCH   1  10
ATOM      8  C4  UNL     1       3.430   0.821  -0.129  0.00  0.00    +0.087 A 
ATOM      9  C5  UNL     1       2.545  -0.191   0.179  0.00  0.00    +0.081 A 
ATOM     10  C6  UNL     1       2.106  -0.625  -1.057  0.00  0.00    +0.222 A 
ATOM     11  O3  UNL     1       2.710   0.080  -1.987  0.00  0.00    -0.350 OA
ATOM     12  N5  UNL     1       3.513   0.962  -1.467  0.00  0.00    -0.082 NA
BRANCH   8  14
ATOM     13  C1  UNL     1       3.970   3.120   0.672  0.00  0.00    +0.014 C 
ATOM     14  C2  UNL     1       4.231   1.623   0.860  0.00  0.00    +0.035 C 
ATOM     15  C3  UNL     1       5.722   1.305   0.718  0.00  0.00    +0.014 C 
ENDBRANCH   8  14
ENDBRANCH   1  10
BRANCH   6  16
ATOM     16  N2  UNL     1      -2.828  -1.137   0.260  0.00  0.00    -0.306 N 
ATOM     17  C11 UNL     1      -3.272   0.150   0.716  0.00  0.00    +0.264 C 
ATOM     18  O2  UNL     1      -2.774   0.659   1.757  0.00  0.00    -0.268 OA
ATOM     19  H14 UNL     1      -3.275  -1.550  -0.590  0.00  0.00    +0.149 HD
BRANCH  17  20
ATOM     20  C12 UNL     1      -4.308   0.887  -0.026  0.00  0.00    +0.147 A 
ATOM     21  C13 UNL     1      -4.819   2.128   0.308  0.00  0.00    +0.054 A 
ATOM     22  C14 UNL     1      -5.746   2.391  -0.677  0.00  0.00    +0.105 A 
ATOM     23  N3  UNL     1      -5.771   1.356  -1.535  0.00  0.00    -0.284 N 
ATOM     24  N4  UNL     1      -4.901   0.436  -1.149  0.00  0.00    -0.169 NA
ATOM     25  H17 UNL     1      -6.376   1.273  -2.381  0.00  0.00    +0.188 HD
ENDBRANCH  17  20
ENDBRANCH   6  16
TORSDOF 4
