REMARK  Name = /home/qwerty/github/datacon2025hack/step_04_hit_selection/docking/ligands/lig_812.pdb
REMARK  8 active torsions:
REMARK  status: ('A' for Active; 'I' for Inactive)
REMARK    1  A    between atoms: C1_1  and  C2_2
REMARK    2  A    between atoms: C2_2  and  C3_3
REMARK    3  A    between atoms: C2_2  and  C4_4
REMARK    4  A    between atoms: C6_6  and  C7_7
REMARK    5  A    between atoms: N1_9  and  C8_10
REMARK    6  A    between atoms: C8_10  and  C9_11
REMARK    7  A    between atoms: C9_11  and  N2_12
REMARK    8  A    between atoms: C10_13  and  C11_15
REMARK                            x       y       z     vdW  Elec       q    Type
REMARK                         _______ _______ _______ _____ _____    ______ ____
ROOT
ATOM      1  C8  UNL     1       0.871   0.007   0.412  0.00  0.00    +0.051 C 
ATOM      2  C16 UNL     1       1.113   1.277   1.221  0.00  0.00    +0.029 C 
ATOM      3  C17 UNL     1       1.118  -0.097   1.913  0.00  0.00    +0.029 C 
ENDROOT
BRANCH   1   6
ATOM      4  C7  UNL     1      -1.760   0.122   0.597  0.00  0.00    +0.283 C 
ATOM      5  O1  UNL     1      -1.785   0.679   1.726  0.00  0.00    -0.267 OA
ATOM      6  N1  UNL     1      -0.516  -0.242  -0.039  0.00  0.00    -0.302 N 
ATOM      7  H9  UNL     1      -0.603  -0.748  -0.949  0.00  0.00    +0.150 HD
BRANCH   4  10
ATOM      8  C4  UNL     1      -5.134  -0.351  -0.595  0.00  0.00    +0.087 A 
ATOM      9  C5  UNL     1      -4.299   0.112   0.404  0.00  0.00    +0.081 A 
ATOM     10  C6  UNL     1      -3.036  -0.167  -0.077  0.00  0.00    +0.222 A 
ATOM     11  O3  UNL     1      -3.148  -0.741  -1.252  0.00  0.00    -0.350 OA
ATOM     12  N4  UNL     1      -4.396  -0.869  -1.597  0.00  0.00    -0.082 NA
BRANCH   8  14
ATOM     13  C1  UNL     1      -7.210  -1.119   0.562  0.00  0.00    +0.014 C 
ATOM     14  C2  UNL     1      -6.638  -0.304  -0.602  0.00  0.00    +0.035 C 
ATOM     15  C3  UNL     1      -7.134   1.145  -0.553  0.00  0.00    +0.014 C 
ENDBRANCH   8  14
ENDBRANCH   4  10
ENDBRANCH   1   6
BRANCH   1  16
ATOM     16  C9  UNL     1       1.969  -0.493  -0.565  0.00  0.00    +0.130 C 
BRANCH  16  17
ATOM     17  N2  UNL     1       3.358  -0.219  -0.177  0.00  0.00    -0.309 N 
ATOM     18  C10 UNL     1       4.444  -0.571  -1.050  0.00  0.00    +0.246 C 
ATOM     19  O2  UNL     1       4.217  -1.278  -2.070  0.00  0.00    -0.270 OA
ATOM     20  H12 UNL     1       3.596   0.178   0.755  0.00  0.00    +0.149 HD
BRANCH  18  21
ATOM     21  C11 UNL     1       5.831  -0.132  -0.766  0.00  0.00    +0.055 A 
ATOM     22  C12 UNL     1       6.096   1.015   0.003  0.00  0.00    +0.016 A 
ATOM     23  C13 UNL     1       7.413   1.408   0.247  0.00  0.00    +0.020 A 
ATOM     24  C14 UNL     1       8.461   0.656  -0.283  0.00  0.00    +0.111 A 
ATOM     25  N3  UNL     1       8.196  -0.445  -1.034  0.00  0.00    -0.263 NA
ATOM     26  C15 UNL     1       6.922  -0.849  -1.288  0.00  0.00    +0.123 A 
ENDBRANCH  18  21
ENDBRANCH  16  17
ENDBRANCH   1  16
TORSDOF 6
