MODEL 1
REMARK VINA RESULT:    -7.513      0.000      0.000
REMARK INTER + INTRA:          -8.796
REMARK INTER:                  -8.392
REMARK INTRA:                  -0.404
REMARK UNBOUND:                -0.404
REMARK  Name = /home/qwerty/github/datacon2025hack/step_04_hit_selection/docking/ligands/lig_223.pdb
REMARK  3 active torsions:
REMARK  status: ('A' for Active; 'I' for Inactive)
REMARK    1  A    between atoms: C1_1  and  C2_2
REMARK    2  A    between atoms: N1_4  and  C3_5
REMARK    3  A    between atoms: C14_19  and  C15_20
REMARK                            x       y       z     vdW  Elec       q    Type
REMARK                         _______ _______ _______ _____ _____    ______ ____
ROOT
ATOM      1  C3  UNL     1      12.272  13.654  35.230  0.00  0.00    +0.037 A 
ATOM      2  C4  UNL     1      11.854  12.758  36.230  0.00  0.00    +0.023 A 
ATOM      3  C5  UNL     1      11.344  11.504  35.894  0.00  0.00    +0.002 A 
ATOM      4  C6  UNL     1      11.236  11.127  34.556  0.00  0.00    +0.005 A 
ATOM      5  C7  UNL     1      11.628  12.012  33.542  0.00  0.00    -0.025 A 
ATOM      6  C8  UNL     1      12.145  13.280  33.870  0.00  0.00    -0.020 A 
ATOM      7  C9  UNL     1      12.660  14.133  32.736  0.00  0.00    +0.056 C 
ATOM      8  C10 UNL     1      11.692  14.106  31.542  0.00  0.00    +0.114 C 
ATOM      9  N2  UNL     1      11.157  12.758  31.267  0.00  0.00    -0.281 N 
ATOM     10  C11 UNL     1      10.330  12.569  30.102  0.00  0.00    +0.308 C 
ATOM     11  O2  UNL     1      10.459  13.345  29.115  0.00  0.00    -0.252 OA
ATOM     12  N3  UNL     1       9.316  11.552  30.080  0.00  0.00    -0.251 N 
ATOM     13  C12 UNL     1       8.764  10.999  28.878  0.00  0.00    +0.169 A 
ATOM     14  C13 UNL     1       9.300  11.086  27.606  0.00  0.00    +0.097 A 
ATOM     15  C14 UNL     1       8.416  10.349  26.846  0.00  0.00    +0.176 A 
ATOM     16  O3  UNL     1       7.466   9.881  27.624  0.00  0.00    -0.352 OA
ATOM     17  N4  UNL     1       7.647  10.248  28.860  0.00  0.00    -0.062 NA
ATOM     18  C19 UNL     1      11.558  11.608  32.095  0.00  0.00    +0.144 C 
ATOM     19  H12 UNL     1       8.900  11.243  30.987  0.00  0.00    +0.158 HD
ENDROOT
BRANCH  15  20
ATOM     20  C15 UNL     1       8.499  10.104  25.401  0.00  0.00    +0.059 A 
ATOM     21  C16 UNL     1       7.414   9.958  24.544  0.00  0.00    +0.021 A 
ATOM     22  C17 UNL     1       7.788   9.732  23.214  0.00  0.00    +0.028 A 
ATOM     23  C18 UNL     1       9.163   9.702  23.033  0.00  0.00    +0.079 A 
ATOM     24 CL1  UNL     1       9.987   9.443  21.510  0.00  0.00    -0.076 Cl
ATOM     25  S1  UNL     1       9.922   9.953  24.511  0.00  0.00    -0.074 S 
ENDBRANCH  15  20
BRANCH   1  29
ATOM     26  C1  UNL     1      14.596  16.532  36.376  0.00  0.00    +0.109 C 
ATOM     27  C2  UNL     1      14.163  15.198  35.863  0.00  0.00    +0.214 C 
ATOM     28  O1  UNL     1      15.032  14.320  35.605  0.00  0.00    -0.276 OA
ATOM     29  N1  UNL     1      12.775  14.948  35.602  0.00  0.00    -0.285 N 
ATOM     30  H4  UNL     1      12.103  15.740  35.699  0.00  0.00    +0.155 HD
ENDBRANCH   1  29
TORSDOF 2
ENDMDL
MODEL 2
REMARK VINA RESULT:    -7.270     13.371     13.925
REMARK INTER + INTRA:          -8.524
REMARK INTER:                  -8.118
REMARK INTRA:                  -0.405
REMARK UNBOUND:                -0.404
REMARK  Name = /home/qwerty/github/datacon2025hack/step_04_hit_selection/docking/ligands/lig_223.pdb
REMARK  3 active torsions:
REMARK  status: ('A' for Active; 'I' for Inactive)
REMARK    1  A    between atoms: C1_1  and  C2_2
REMARK    2  A    between atoms: N1_4  and  C3_5
REMARK    3  A    between atoms: C14_19  and  C15_20
REMARK                            x       y       z     vdW  Elec       q    Type
REMARK                         _______ _______ _______ _____ _____    ______ ____
ROOT
ATOM      1  C3  UNL     1      23.606   6.331  34.251  0.00  0.00    +0.037 A 
ATOM      2  C4  UNL     1      24.405   7.329  33.666  0.00  0.00    +0.023 A 
ATOM      3  C5  UNL     1      24.282   7.635  32.310  0.00  0.00    +0.002 A 
ATOM      4  C6  UNL     1      23.368   6.944  31.516  0.00  0.00    +0.005 A 
ATOM      5  C7  UNL     1      22.576   5.932  32.074  0.00  0.00    -0.025 A 
ATOM      6  C8  UNL     1      22.690   5.616  33.441  0.00  0.00    -0.020 A 
ATOM      7  C9  UNL     1      21.722   4.601  34.001  0.00  0.00    +0.056 C 
ATOM      8  C10 UNL     1      21.578   3.396  33.057  0.00  0.00    +0.114 C 
ATOM      9  N2  UNL     1      21.498   3.787  31.636  0.00  0.00    -0.281 N 
ATOM     10  C11 UNL     1      21.242   2.764  30.654  0.00  0.00    +0.308 C 
ATOM     11  O2  UNL     1      20.631   1.714  30.993  0.00  0.00    -0.252 OA
ATOM     12  N3  UNL     1      21.736   2.898  29.311  0.00  0.00    -0.251 N 
ATOM     13  C12 UNL     1      21.190   2.199  28.185  0.00  0.00    +0.169 A 
ATOM     14  C13 UNL     1      19.961   1.568  28.120  0.00  0.00    +0.097 A 
ATOM     15  C14 UNL     1      19.914   1.113  26.818  0.00  0.00    +0.176 A 
ATOM     16  O3  UNL     1      21.019   1.463  26.201  0.00  0.00    -0.352 OA
ATOM     17  N4  UNL     1      21.811   2.126  26.993  0.00  0.00    -0.062 NA
ATOM     18  C19 UNL     1      21.554   5.206  31.243  0.00  0.00    +0.144 C 
ATOM     19  H12 UNL     1      22.586   3.482  29.149  0.00  0.00    +0.158 HD
ENDROOT
BRANCH  15  20
ATOM     20  C15 UNL     1      18.818   0.363  26.194  0.00  0.00    +0.059 A 
ATOM     21  C16 UNL     1      18.943  -0.487  25.100  0.00  0.00    +0.021 A 
ATOM     22  C17 UNL     1      17.731  -1.071  24.715  0.00  0.00    +0.028 A 
ATOM     23  C18 UNL     1      16.661  -0.679  25.506  0.00  0.00    +0.079 A 
ATOM     24 CL1  UNL     1      15.002  -1.208  25.317  0.00  0.00    -0.076 Cl
ATOM     25  S1  UNL     1      17.206   0.390  26.683  0.00  0.00    -0.074 S 
ENDBRANCH  15  20
BRANCH   1  29
ATOM     26  C1  UNL     1      23.463   6.490  38.118  0.00  0.00    +0.109 C 
ATOM     27  C2  UNL     1      23.145   6.785  36.688  0.00  0.00    +0.214 C 
ATOM     28  O1  UNL     1      22.285   7.666  36.413  0.00  0.00    -0.276 OA
ATOM     29  N1  UNL     1      23.765   6.020  35.645  0.00  0.00    -0.285 N 
ATOM     30  H4  UNL     1      24.367   5.212  35.916  0.00  0.00    +0.155 HD
ENDBRANCH   1  29
TORSDOF 2
ENDMDL
MODEL 3
REMARK VINA RESULT:    -7.219      4.236     11.159
REMARK INTER + INTRA:          -8.468
REMARK INTER:                  -8.059
REMARK INTRA:                  -0.409
REMARK UNBOUND:                -0.404
REMARK  Name = /home/qwerty/github/datacon2025hack/step_04_hit_selection/docking/ligands/lig_223.pdb
REMARK  3 active torsions:
REMARK  status: ('A' for Active; 'I' for Inactive)
REMARK    1  A    between atoms: C1_1  and  C2_2
REMARK    2  A    between atoms: N1_4  and  C3_5
REMARK    3  A    between atoms: C14_19  and  C15_20
REMARK                            x       y       z     vdW  Elec       q    Type
REMARK                         _______ _______ _______ _____ _____    ______ ____
ROOT
ATOM      1  C3  UNL     1       8.757   9.161  22.220  0.00  0.00    +0.037 A 
ATOM      2  C4  UNL     1       9.682   9.644  21.277  0.00  0.00    +0.023 A 
ATOM      3  C5  UNL     1      10.858  10.269  21.691  0.00  0.00    +0.002 A 
ATOM      4  C6  UNL     1      11.126  10.430  23.050  0.00  0.00    +0.005 A 
ATOM      5  C7  UNL     1      10.208   9.975  24.006  0.00  0.00    -0.025 A 
ATOM      6  C8  UNL     1       9.019   9.341  23.600  0.00  0.00    -0.020 A 
ATOM      7  C9  UNL     1       8.135   8.767  24.682  0.00  0.00    +0.056 C 
ATOM      8  C10 UNL     1       7.990   9.751  25.854  0.00  0.00    +0.114 C 
ATOM      9  N2  UNL     1       9.261  10.410  26.212  0.00  0.00    -0.281 N 
ATOM     10  C11 UNL     1       9.291  11.266  27.371  0.00  0.00    +0.308 C 
ATOM     11  O2  UNL     1       8.461  11.083  28.302  0.00  0.00    -0.252 OA
ATOM     12  N3  UNL     1      10.210  12.368  27.443  0.00  0.00    -0.251 N 
ATOM     13  C12 UNL     1      10.624  12.985  28.669  0.00  0.00    +0.169 A 
ATOM     14  C13 UNL     1      10.493  12.462  29.942  0.00  0.00    +0.097 A 
ATOM     15  C14 UNL     1      11.092  13.420  30.735  0.00  0.00    +0.176 A 
ATOM     16  O3  UNL     1      11.528  14.397  29.972  0.00  0.00    -0.352 OA
ATOM     17  N4  UNL     1      11.269  14.165  28.717  0.00  0.00    -0.062 NA
ATOM     18  C19 UNL     1      10.499  10.102  25.476  0.00  0.00    +0.144 C 
ATOM     19  H12 UNL     1      10.546  12.797  26.552  0.00  0.00    +0.158 HD
ENDROOT
BRANCH  15  20
ATOM     20  C15 UNL     1      11.239  13.380  32.195  0.00  0.00    +0.059 A 
ATOM     21  C16 UNL     1      11.078  14.464  33.051  0.00  0.00    +0.021 A 
ATOM     22  C17 UNL     1      11.278  14.137  34.397  0.00  0.00    +0.028 A 
ATOM     23  C18 UNL     1      11.594  12.800  34.592  0.00  0.00    +0.079 A 
ATOM     24 CL1  UNL     1      11.909  12.039  36.137  0.00  0.00    -0.076 Cl
ATOM     25  S1  UNL     1      11.628  12.017  33.105  0.00  0.00    -0.074 S 
ENDBRANCH  15  20
BRANCH   1  29
ATOM     26  C1  UNL     1       6.212   6.611  20.798  0.00  0.00    +0.109 C 
ATOM     27  C2  UNL     1       7.472   7.158  21.386  0.00  0.00    +0.214 C 
ATOM     28  O1  UNL     1       8.444   6.383  21.600  0.00  0.00    -0.276 OA
ATOM     29  N1  UNL     1       7.543   8.539  21.769  0.00  0.00    -0.285 N 
ATOM     30  H4  UNL     1       6.676   9.115  21.702  0.00  0.00    +0.155 HD
ENDBRANCH   1  29
TORSDOF 2
ENDMDL
MODEL 4
REMARK VINA RESULT:    -6.939     13.956     17.318
REMARK INTER + INTRA:          -8.154
REMARK INTER:                  -7.740
REMARK INTRA:                  -0.414
REMARK UNBOUND:                -0.404
REMARK  Name = /home/qwerty/github/datacon2025hack/step_04_hit_selection/docking/ligands/lig_223.pdb
REMARK  3 active torsions:
REMARK  status: ('A' for Active; 'I' for Inactive)
REMARK    1  A    between atoms: C1_1  and  C2_2
REMARK    2  A    between atoms: N1_4  and  C3_5
REMARK    3  A    between atoms: C14_19  and  C15_20
REMARK                            x       y       z     vdW  Elec       q    Type
REMARK                         _______ _______ _______ _____ _____    ______ ____
ROOT
ATOM      1  C3  UNL     1      16.932  -1.270  23.810  0.00  0.00    +0.037 A 
ATOM      2  C4  UNL     1      15.958  -2.098  24.395  0.00  0.00    +0.023 A 
ATOM      3  C5  UNL     1      15.577  -1.918  25.725  0.00  0.00    +0.002 A 
ATOM      4  C6  UNL     1      16.167  -0.915  26.493  0.00  0.00    +0.005 A 
ATOM      5  C7  UNL     1      17.154  -0.091  25.936  0.00  0.00    -0.025 A 
ATOM      6  C8  UNL     1      17.545  -0.263  24.595  0.00  0.00    -0.020 A 
ATOM      7  C9  UNL     1      18.523   0.737  24.024  0.00  0.00    +0.056 C 
ATOM      8  C10 UNL     1      19.667   1.015  25.014  0.00  0.00    +0.114 C 
ATOM      9  N2  UNL     1      19.200   1.151  26.407  0.00  0.00    -0.281 N 
ATOM     10  C11 UNL     1      20.153   1.531  27.419  0.00  0.00    +0.308 C 
ATOM     11  O2  UNL     1      21.178   2.190  27.093  0.00  0.00    -0.252 OA
ATOM     12  N3  UNL     1      19.983   1.108  28.781  0.00  0.00    -0.251 N 
ATOM     13  C12 UNL     1      20.588   1.764  29.904  0.00  0.00    +0.169 A 
ATOM     14  C13 UNL     1      21.135   3.033  29.923  0.00  0.00    +0.097 A 
ATOM     15  C14 UNL     1      21.520   3.186  31.239  0.00  0.00    +0.176 A 
ATOM     16  O3  UNL     1      21.210   2.097  31.906  0.00  0.00    -0.352 OA
ATOM     17  N4  UNL     1      20.640   1.218  31.133  0.00  0.00    -0.062 NA
ATOM     18  C19 UNL     1      17.770   1.023  26.736  0.00  0.00    +0.144 C 
ATOM     19  H12 UNL     1      19.448   0.231  28.968  0.00  0.00    +0.158 HD
ENDROOT
BRANCH  15  20
ATOM     20  C15 UNL     1      22.166   4.364  31.830  0.00  0.00    +0.059 A 
ATOM     21  C16 UNL     1      23.212   4.335  32.746  0.00  0.00    +0.021 A 
ATOM     22  C17 UNL     1      23.633   5.610  33.142  0.00  0.00    +0.028 A 
ATOM     23  C18 UNL     1      22.918   6.633  32.536  0.00  0.00    +0.079 A 
ATOM     24 CL1  UNL     1      23.169   8.347  32.791  0.00  0.00    -0.076 Cl
ATOM     25  S1  UNL     1      21.764   5.968  31.510  0.00  0.00    -0.074 S 
ENDBRANCH  15  20
BRANCH   1  29
ATOM     26  C1  UNL     1      17.004  -1.281  19.937  0.00  0.00    +0.109 C 
ATOM     27  C2  UNL     1      16.629  -0.903  21.333  0.00  0.00    +0.214 C 
ATOM     28  O1  UNL     1      15.744  -0.023  21.522  0.00  0.00    -0.276 OA
ATOM     29  N1  UNL     1      17.322  -1.488  22.444  0.00  0.00    -0.285 N 
ATOM     30  H4  UNL     1      18.137  -2.109  22.246  0.00  0.00    +0.155 HD
ENDBRANCH   1  29
TORSDOF 2
ENDMDL
MODEL 5
REMARK VINA RESULT:    -6.742     11.691     12.415
REMARK INTER + INTRA:          -7.935
REMARK INTER:                  -7.532
REMARK INTRA:                  -0.403
REMARK UNBOUND:                -0.404
REMARK  Name = /home/qwerty/github/datacon2025hack/step_04_hit_selection/docking/ligands/lig_223.pdb
REMARK  3 active torsions:
REMARK  status: ('A' for Active; 'I' for Inactive)
REMARK    1  A    between atoms: C1_1  and  C2_2
REMARK    2  A    between atoms: N1_4  and  C3_5
REMARK    3  A    between atoms: C14_19  and  C15_20
REMARK                            x       y       z     vdW  Elec       q    Type
REMARK                         _______ _______ _______ _____ _____    ______ ____
ROOT
ATOM      1  C3  UNL     1      21.357   8.065  36.868  0.00  0.00    +0.037 A 
ATOM      2  C4  UNL     1      22.201   7.257  37.651  0.00  0.00    +0.023 A 
ATOM      3  C5  UNL     1      23.100   6.377  37.049  0.00  0.00    +0.002 A 
ATOM      4  C6  UNL     1      23.166   6.282  35.660  0.00  0.00    +0.005 A 
ATOM      5  C7  UNL     1      22.320   7.063  34.861  0.00  0.00    -0.025 A 
ATOM      6  C8  UNL     1      21.409   7.956  35.457  0.00  0.00    -0.020 A 
ATOM      7  C9  UNL     1      20.615   8.854  34.537  0.00  0.00    +0.056 C 
ATOM      8  C10 UNL     1      20.074   8.067  33.332  0.00  0.00    +0.114 C 
ATOM      9  N2  UNL     1      21.061   7.123  32.772  0.00  0.00    -0.281 N 
ATOM     10  C11 UNL     1      20.723   6.409  31.566  0.00  0.00    +0.308 C 
ATOM     11  O2  UNL     1      19.886   6.903  30.763  0.00  0.00    -0.252 OA
ATOM     12  N3  UNL     1      21.278   5.109  31.305  0.00  0.00    -0.251 N 
ATOM     13  C12 UNL     1      21.368   4.526  29.999  0.00  0.00    +0.169 A 
ATOM     14  C13 UNL     1      21.257   5.186  28.790  0.00  0.00    +0.097 A 
ATOM     15  C14 UNL     1      21.472   4.183  27.867  0.00  0.00    +0.176 A 
ATOM     16  O3  UNL     1      21.691   3.055  28.502  0.00  0.00    -0.352 OA
ATOM     17  N4  UNL     1      21.642   3.224  29.793  0.00  0.00    -0.062 NA
ATOM     18  C19 UNL     1      22.405   7.006  33.361  0.00  0.00    +0.144 C 
ATOM     19  H12 UNL     1      21.570   4.520  32.117  0.00  0.00    +0.158 HD
ENDROOT
BRANCH  15  20
ATOM     20  C15 UNL     1      21.469   4.325  26.406  0.00  0.00    +0.059 A 
ATOM     21  C16 UNL     1      22.372   5.081  25.667  0.00  0.00    +0.021 A 
ATOM     22  C17 UNL     1      22.132   5.036  24.289  0.00  0.00    +0.028 A 
ATOM     23  C18 UNL     1      21.043   4.246  23.952  0.00  0.00    +0.079 A 
ATOM     24 CL1  UNL     1      20.452   3.960  22.329  0.00  0.00    -0.076 Cl
ATOM     25  S1  UNL     1      20.373   3.601  25.352  0.00  0.00    -0.074 S 
ENDBRANCH  15  20
BRANCH   1  29
ATOM     26  C1  UNL     1      18.104   9.624  38.279  0.00  0.00    +0.109 C 
ATOM     27  C2  UNL     1      19.048   8.606  37.729  0.00  0.00    +0.214 C 
ATOM     28  O1  UNL     1      18.641   7.430  37.518  0.00  0.00    -0.276 OA
ATOM     29  N1  UNL     1      20.424   8.949  37.511  0.00  0.00    -0.285 N 
ATOM     30  H4  UNL     1      20.754   9.889  37.823  0.00  0.00    +0.155 HD
ENDBRANCH   1  29
TORSDOF 2
ENDMDL
MODEL 6
REMARK VINA RESULT:    -6.599     13.215     13.722
REMARK INTER + INTRA:          -7.774
REMARK INTER:                  -7.375
REMARK INTRA:                  -0.400
REMARK UNBOUND:                -0.404
REMARK  Name = /home/qwerty/github/datacon2025hack/step_04_hit_selection/docking/ligands/lig_223.pdb
REMARK  3 active torsions:
REMARK  status: ('A' for Active; 'I' for Inactive)
REMARK    1  A    between atoms: C1_1  and  C2_2
REMARK    2  A    between atoms: N1_4  and  C3_5
REMARK    3  A    between atoms: C14_19  and  C15_20
REMARK                            x       y       z     vdW  Elec       q    Type
REMARK                         _______ _______ _______ _____ _____    ______ ____
ROOT
ATOM      1  C3  UNL     1      21.632   2.509  32.335  0.00  0.00    +0.037 A 
ATOM      2  C4  UNL     1      20.767   2.139  33.380  0.00  0.00    +0.023 A 
ATOM      3  C5  UNL     1      19.634   1.366  33.125  0.00  0.00    +0.002 A 
ATOM      4  C6  UNL     1      19.342   0.958  31.824  0.00  0.00    +0.005 A 
ATOM      5  C7  UNL     1      20.180   1.332  30.765  0.00  0.00    -0.025 A 
ATOM      6  C8  UNL     1      21.327   2.111  31.011  0.00  0.00    -0.020 A 
ATOM      7  C9  UNL     1      22.249   2.375  29.844  0.00  0.00    +0.056 C 
ATOM      8  C10 UNL     1      21.451   2.756  28.586  0.00  0.00    +0.114 C 
ATOM      9  N2  UNL     1      20.243   1.929  28.400  0.00  0.00    -0.281 N 
ATOM     10  C11 UNL     1      19.468   2.102  27.197  0.00  0.00    +0.308 C 
ATOM     11  O2  UNL     1      20.027   2.540  26.154  0.00  0.00    -0.252 OA
ATOM     12  N3  UNL     1      18.055   1.846  27.193  0.00  0.00    -0.251 N 
ATOM     13  C12 UNL     1      17.297   1.562  26.009  0.00  0.00    +0.169 A 
ATOM     14  C13 UNL     1      17.798   1.173  24.781  0.00  0.00    +0.097 A 
ATOM     15  C14 UNL     1      16.658   0.982  24.027  0.00  0.00    +0.176 A 
ATOM     16  O3  UNL     1      15.604   1.235  24.769  0.00  0.00    -0.352 OA
ATOM     17  N4  UNL     1      15.951   1.582  25.976  0.00  0.00    -0.062 NA
ATOM     18  C19 UNL     1      19.905   0.866  29.362  0.00  0.00    +0.144 C 
ATOM     19  H12 UNL     1      17.528   1.941  28.090  0.00  0.00    +0.158 HD
ENDROOT
BRANCH  15  20
ATOM     20  C15 UNL     1      16.600   0.558  22.623  0.00  0.00    +0.059 A 
ATOM     21  C16 UNL     1      16.246   1.370  21.550  0.00  0.00    +0.021 A 
ATOM     22  C17 UNL     1      16.276   0.702  20.321  0.00  0.00    +0.028 A 
ATOM     23  C18 UNL     1      16.653  -0.628  20.432  0.00  0.00    +0.079 A 
ATOM     24 CL1  UNL     1      16.798  -1.764  19.107  0.00  0.00    -0.076 Cl
ATOM     25  S1  UNL     1      16.950  -0.986  22.047  0.00  0.00    -0.074 S 
ENDBRANCH  15  20
BRANCH   1  29
ATOM     26  C1  UNL     1      23.991   5.542  32.823  0.00  0.00    +0.109 C 
ATOM     27  C2  UNL     1      22.731   4.757  32.655  0.00  0.00    +0.214 C 
ATOM     28  O1  UNL     1      21.624   5.360  32.609  0.00  0.00    -0.276 OA
ATOM     29  N1  UNL     1      22.781   3.323  32.620  0.00  0.00    -0.285 N 
ATOM     30  H4  UNL     1      23.698   2.857  32.797  0.00  0.00    +0.155 HD
ENDBRANCH   1  29
TORSDOF 2
ENDMDL
MODEL 7
REMARK VINA RESULT:    -6.526      5.380     11.754
REMARK INTER + INTRA:          -7.694
REMARK INTER:                  -7.288
REMARK INTRA:                  -0.406
REMARK UNBOUND:                -0.404
REMARK  Name = /home/qwerty/github/datacon2025hack/step_04_hit_selection/docking/ligands/lig_223.pdb
REMARK  3 active torsions:
REMARK  status: ('A' for Active; 'I' for Inactive)
REMARK    1  A    between atoms: C1_1  and  C2_2
REMARK    2  A    between atoms: N1_4  and  C3_5
REMARK    3  A    between atoms: C14_19  and  C15_20
REMARK                            x       y       z     vdW  Elec       q    Type
REMARK                         _______ _______ _______ _____ _____    ______ ____
ROOT
ATOM      1  C3  UNL     1       8.697   4.068  22.549  0.00  0.00    +0.037 A 
ATOM      2  C4  UNL     1       7.790   4.406  21.529  0.00  0.00    +0.023 A 
ATOM      3  C5  UNL     1       7.516   5.743  21.236  0.00  0.00    +0.002 A 
ATOM      4  C6  UNL     1       8.137   6.760  21.960  0.00  0.00    +0.005 A 
ATOM      5  C7  UNL     1       9.029   6.445  22.993  0.00  0.00    -0.025 A 
ATOM      6  C8  UNL     1       9.313   5.100  23.297  0.00  0.00    -0.020 A 
ATOM      7  C9  UNL     1      10.375   4.834  24.338  0.00  0.00    +0.056 C 
ATOM      8  C10 UNL     1      10.200   5.760  25.553  0.00  0.00    +0.114 C 
ATOM      9  N2  UNL     1       9.869   7.148  25.173  0.00  0.00    -0.281 N 
ATOM     10  C11 UNL     1       9.796   8.146  26.210  0.00  0.00    +0.308 C 
ATOM     11  O2  UNL     1      10.449   7.986  27.276  0.00  0.00    -0.252 OA
ATOM     12  N3  UNL     1       8.932   9.286  26.069  0.00  0.00    -0.251 N 
ATOM     13  C12 UNL     1       9.103  10.512  26.792  0.00  0.00    +0.169 A 
ATOM     14  C13 UNL     1      10.239  10.926  27.461  0.00  0.00    +0.097 A 
ATOM     15  C14 UNL     1       9.888  12.177  27.925  0.00  0.00    +0.176 A 
ATOM     16  O3  UNL     1       8.660  12.448  27.545  0.00  0.00    -0.352 OA
ATOM     17  N4  UNL     1       8.156  11.467  26.852  0.00  0.00    -0.062 NA
ATOM     18  C19 UNL     1       9.740   7.528  23.756  0.00  0.00    +0.144 C 
ATOM     19  H12 UNL     1       8.088   9.200  25.459  0.00  0.00    +0.158 HD
ENDROOT
BRANCH  15  20
ATOM     20  C15 UNL     1      10.731  13.085  28.714  0.00  0.00    +0.059 A 
ATOM     21  C16 UNL     1      11.605  14.032  28.191  0.00  0.00    +0.021 A 
ATOM     22  C17 UNL     1      12.283  14.758  29.176  0.00  0.00    +0.028 A 
ATOM     23  C18 UNL     1      11.939  14.381  30.466  0.00  0.00    +0.079 A 
ATOM     24 CL1  UNL     1      12.585  15.072  31.939  0.00  0.00    -0.076 Cl
ATOM     25  S1  UNL     1      10.798  13.149  30.396  0.00  0.00    -0.074 S 
ENDBRANCH  15  20
BRANCH   1  29
ATOM     26  C1  UNL     1      10.085   0.453  22.451  0.00  0.00    +0.109 C 
ATOM     27  C2  UNL     1       9.971   1.920  22.193  0.00  0.00    +0.214 C 
ATOM     28  O1  UNL     1      10.817   2.487  21.449  0.00  0.00    -0.276 OA
ATOM     29  N1  UNL     1       8.946   2.684  22.845  0.00  0.00    -0.285 N 
ATOM     30  H4  UNL     1       8.351   2.206  23.557  0.00  0.00    +0.155 HD
ENDBRANCH   1  29
TORSDOF 2
ENDMDL
MODEL 8
REMARK VINA RESULT:    -6.343     13.905     14.811
REMARK INTER + INTRA:          -7.489
REMARK INTER:                  -7.163
REMARK INTRA:                  -0.326
REMARK UNBOUND:                -0.404
REMARK  Name = /home/qwerty/github/datacon2025hack/step_04_hit_selection/docking/ligands/lig_223.pdb
REMARK  3 active torsions:
REMARK  status: ('A' for Active; 'I' for Inactive)
REMARK    1  A    between atoms: C1_1  and  C2_2
REMARK    2  A    between atoms: N1_4  and  C3_5
REMARK    3  A    between atoms: C14_19  and  C15_20
REMARK                            x       y       z     vdW  Elec       q    Type
REMARK                         _______ _______ _______ _____ _____    ______ ____
ROOT
ATOM      1  C3  UNL     1      21.129   1.932  30.497  0.00  0.00    +0.037 A 
ATOM      2  C4  UNL     1      21.304   0.544  30.349  0.00  0.00    +0.023 A 
ATOM      3  C5  UNL     1      21.807   0.014  29.160  0.00  0.00    +0.002 A 
ATOM      4  C6  UNL     1      22.135   0.858  28.100  0.00  0.00    +0.005 A 
ATOM      5  C7  UNL     1      21.950   2.242  28.219  0.00  0.00    -0.025 A 
ATOM      6  C8  UNL     1      21.445   2.788  29.415  0.00  0.00    -0.020 A 
ATOM      7  C9  UNL     1      21.386   4.294  29.518  0.00  0.00    +0.056 C 
ATOM      8  C10 UNL     1      20.833   4.914  28.225  0.00  0.00    +0.114 C 
ATOM      9  N2  UNL     1      21.372   4.279  27.007  0.00  0.00    -0.281 N 
ATOM     10  C11 UNL     1      21.028   4.842  25.726  0.00  0.00    +0.308 C 
ATOM     11  O2  UNL     1      20.720   6.063  25.645  0.00  0.00    -0.252 OA
ATOM     12  N3  UNL     1      20.965   4.013  24.554  0.00  0.00    -0.251 N 
ATOM     13  C12 UNL     1      21.071   4.513  23.215  0.00  0.00    +0.169 A 
ATOM     14  C13 UNL     1      21.555   5.749  22.829  0.00  0.00    +0.097 A 
ATOM     15  C14 UNL     1      21.487   5.694  21.452  0.00  0.00    +0.176 A 
ATOM     16  O3  UNL     1      21.011   4.524  21.092  0.00  0.00    -0.352 OA
ATOM     17  N4  UNL     1      20.754   3.781  22.130  0.00  0.00    -0.062 NA
ATOM     18  C19 UNL     1      22.339   3.172  27.103  0.00  0.00    +0.144 C 
ATOM     19  H12 UNL     1      20.760   2.996  24.673  0.00  0.00    +0.158 HD
ENDROOT
BRANCH  15  20
ATOM     20  C15 UNL     1      21.881   6.753  20.515  0.00  0.00    +0.059 A 
ATOM     21  C16 UNL     1      21.355   6.939  19.241  0.00  0.00    +0.021 A 
ATOM     22  C17 UNL     1      21.918   8.029  18.567  0.00  0.00    +0.028 A 
ATOM     23  C18 UNL     1      22.881   8.693  19.312  0.00  0.00    +0.079 A 
ATOM     24 CL1  UNL     1      23.790  10.095  18.789  0.00  0.00    -0.076 Cl
ATOM     25  S1  UNL     1      23.043   7.938  20.805  0.00  0.00    -0.074 S 
ENDBRANCH  15  20
BRANCH   1  29
ATOM     26  C1  UNL     1      20.796   3.372  34.077  0.00  0.00    +0.109 C 
ATOM     27  C2  UNL     1      21.413   2.975  32.776  0.00  0.00    +0.214 C 
ATOM     28  O1  UNL     1      22.647   3.161  32.591  0.00  0.00    -0.276 OA
ATOM     29  N1  UNL     1      20.590   2.452  31.724  0.00  0.00    -0.285 N 
ATOM     30  H4  UNL     1      19.557   2.439  31.865  0.00  0.00    +0.155 HD
ENDBRANCH   1  29
TORSDOF 2
ENDMDL
MODEL 9
REMARK VINA RESULT:    -6.273      3.149      4.045
REMARK INTER + INTRA:          -7.410
REMARK INTER:                  -7.141
REMARK INTRA:                  -0.269
REMARK UNBOUND:                -0.404
REMARK  Name = /home/qwerty/github/datacon2025hack/step_04_hit_selection/docking/ligands/lig_223.pdb
REMARK  3 active torsions:
REMARK  status: ('A' for Active; 'I' for Inactive)
REMARK    1  A    between atoms: C1_1  and  C2_2
REMARK    2  A    between atoms: N1_4  and  C3_5
REMARK    3  A    between atoms: C14_19  and  C15_20
REMARK                            x       y       z     vdW  Elec       q    Type
REMARK                         _______ _______ _______ _____ _____    ______ ____
ROOT
ATOM      1  C3  UNL     1      16.369  13.897  35.316  0.00  0.00    +0.037 A 
ATOM      2  C4  UNL     1      15.820  14.920  36.110  0.00  0.00    +0.023 A 
ATOM      3  C5  UNL     1      14.442  15.133  36.142  0.00  0.00    +0.002 A 
ATOM      4  C6  UNL     1      13.591  14.335  35.378  0.00  0.00    +0.005 A 
ATOM      5  C7  UNL     1      14.119  13.323  34.564  0.00  0.00    -0.025 A 
ATOM      6  C8  UNL     1      15.508  13.098  34.525  0.00  0.00    -0.020 A 
ATOM      7  C9  UNL     1      15.996  11.915  33.723  0.00  0.00    +0.056 C 
ATOM      8  C10 UNL     1      15.277  11.834  32.367  0.00  0.00    +0.114 C 
ATOM      9  N2  UNL     1      13.831  12.112  32.466  0.00  0.00    -0.281 N 
ATOM     10  C11 UNL     1      13.017  11.952  31.288  0.00  0.00    +0.308 C 
ATOM     11  O2  UNL     1      13.385  11.158  30.379  0.00  0.00    -0.252 OA
ATOM     12  N3  UNL     1      11.827  12.738  31.108  0.00  0.00    -0.251 N 
ATOM     13  C12 UNL     1      10.749  12.368  30.239  0.00  0.00    +0.169 A 
ATOM     14  C13 UNL     1      10.510  11.115  29.705  0.00  0.00    +0.097 A 
ATOM     15  C14 UNL     1       9.337  11.296  29.001  0.00  0.00    +0.176 A 
ATOM     16  O3  UNL     1       8.946  12.543  29.131  0.00  0.00    -0.352 OA
ATOM     17  N4  UNL     1       9.771  13.219  29.878  0.00  0.00    -0.062 NA
ATOM     18  C19 UNL     1      13.215  12.424  33.767  0.00  0.00    +0.144 C 
ATOM     19  H12 UNL     1      11.769  13.668  31.578  0.00  0.00    +0.158 HD
ENDROOT
BRANCH  15  20
ATOM     20  C15 UNL     1       8.617  10.277  28.226  0.00  0.00    +0.059 A 
ATOM     21  C16 UNL     1       8.157  10.432  26.923  0.00  0.00    +0.021 A 
ATOM     22  C17 UNL     1       7.502   9.297  26.432  0.00  0.00    +0.028 A 
ATOM     23  C18 UNL     1       7.452   8.257  27.349  0.00  0.00    +0.079 A 
ATOM     24 CL1  UNL     1       6.714   6.692  27.081  0.00  0.00    -0.076 Cl
ATOM     25  S1  UNL     1       8.213   8.735  28.769  0.00  0.00    -0.074 S 
ENDBRANCH  15  20
BRANCH   1  29
ATOM     26  C1  UNL     1      19.956  12.646  36.069  0.00  0.00    +0.109 C 
ATOM     27  C2  UNL     1      18.464  12.696  36.044  0.00  0.00    +0.214 C 
ATOM     28  O1  UNL     1      17.803  11.804  36.643  0.00  0.00    -0.276 OA
ATOM     29  N1  UNL     1      17.793  13.711  35.284  0.00  0.00    -0.285 N 
ATOM     30  H4  UNL     1      18.372  14.348  34.693  0.00  0.00    +0.155 HD
ENDBRANCH   1  29
TORSDOF 2
ENDMDL
