MODEL 1
REMARK VINA RESULT:    -6.415      0.000      0.000
REMARK INTER + INTRA:          -7.834
REMARK INTER:                  -7.353
REMARK INTRA:                  -0.481
REMARK UNBOUND:                -0.481
REMARK  Name = /home/qwerty/github/datacon2025hack/step_04_hit_selection/docking/ligands/lig_244.pdb
REMARK  4 active torsions:
REMARK  status: ('A' for Active; 'I' for Inactive)
REMARK    1  A    between atoms: C1_1  and  C2_2
REMARK    2  A    between atoms: C4_5  and  C5_7
REMARK    3  A    between atoms: C7_9  and  C8_10
REMARK    4  A    between atoms: C16_21  and  O2_22
REMARK                            x       y       z     vdW  Elec       q    Type
REMARK                         _______ _______ _______ _____ _____    ______ ____
ROOT
ATOM      1  C5  UNL     1      21.078   3.980  31.106  0.00  0.00    +0.121 A 
ATOM      2  C6  UNL     1      21.819   2.829  31.279  0.00  0.00    +0.062 A 
ATOM      3  C7  UNL     1      21.994   2.337  29.993  0.00  0.00    +0.093 A 
ATOM      4  N2  UNL     1      21.376   3.154  29.113  0.00  0.00    -0.173 NA
ATOM      5  N3  UNL     1      20.821   4.142  29.795  0.00  0.00    -0.272 N 
ATOM      6  H12 UNL     1      20.274   4.917  29.360  0.00  0.00    +0.189 HD
ENDROOT
BRANCH   1  11
ATOM      7  C1  UNL     1      24.201   8.334  32.046  0.00  0.00    +0.011 C 
ATOM      8  C2  UNL     1      23.633   6.985  32.508  0.00  0.00    +0.032 C 
ATOM      9  C3  UNL     1      22.191   6.806  31.972  0.00  0.00    +0.114 C 
ATOM     10  N1  UNL     1      21.438   5.845  32.790  0.00  0.00    -0.296 N 
ATOM     11  C4  UNL     1      20.580   4.874  32.168  0.00  0.00    +0.264 C 
ATOM     12  O1  UNL     1      19.385   4.762  32.552  0.00  0.00    -0.268 OA
ATOM     13  C14 UNL     1      21.335   6.053  34.240  0.00  0.00    +0.110 C 
ATOM     14  C15 UNL     1      22.379   7.063  34.741  0.00  0.00    +0.050 C 
ATOM     15  C16 UNL     1      23.736   6.828  34.056  0.00  0.00    +0.120 C 
BRANCH  15  16
ATOM     16  O2  UNL     1      24.204   5.538  34.360  0.00  0.00    -0.391 OA
ATOM     17  H18 UNL     1      24.536   5.563  35.296  0.00  0.00    +0.210 HD
ENDBRANCH  15  16
ENDBRANCH   1  11
BRANCH   3  18
ATOM     18  C8  UNL     1      22.723   1.106  29.600  0.00  0.00    +0.002 A 
ATOM     19  C9  UNL     1      24.131   1.074  29.554  0.00  0.00    +0.013 A 
ATOM     20  C10 UNL     1      24.800  -0.096  29.179  0.00  0.00    +0.039 A 
ATOM     21  C11 UNL     1      24.077  -1.243  28.846  0.00  0.00    +0.123 A 
ATOM     22  F1  UNL     1      24.729  -2.375  28.483  0.00  0.00    -0.205 F 
ATOM     23  C12 UNL     1      22.681  -1.222  28.887  0.00  0.00    +0.039 A 
ATOM     24  C13 UNL     1      22.006  -0.056  29.260  0.00  0.00    +0.013 A 
ENDBRANCH   3  18
TORSDOF 3
ENDMDL
MODEL 2
REMARK VINA RESULT:    -6.159     14.588     15.925
REMARK INTER + INTRA:          -7.540
REMARK INTER:                  -7.017
REMARK INTRA:                  -0.524
REMARK UNBOUND:                -0.481
REMARK  Name = /home/qwerty/github/datacon2025hack/step_04_hit_selection/docking/ligands/lig_244.pdb
REMARK  4 active torsions:
REMARK  status: ('A' for Active; 'I' for Inactive)
REMARK    1  A    between atoms: C1_1  and  C2_2
REMARK    2  A    between atoms: C4_5  and  C5_7
REMARK    3  A    between atoms: C7_9  and  C8_10
REMARK    4  A    between atoms: C16_21  and  O2_22
REMARK                            x       y       z     vdW  Elec       q    Type
REMARK                         _______ _______ _______ _____ _____    ______ ____
ROOT
ATOM      1  C5  UNL     1      11.820  14.203  31.705  0.00  0.00    +0.121 A 
ATOM      2  C6  UNL     1      11.886  12.997  32.372  0.00  0.00    +0.062 A 
ATOM      3  C7  UNL     1      11.441  13.289  33.654  0.00  0.00    +0.093 A 
ATOM      4  N2  UNL     1      11.139  14.603  33.735  0.00  0.00    -0.173 NA
ATOM      5  N3  UNL     1      11.376  15.148  32.554  0.00  0.00    -0.272 N 
ATOM      6  H12 UNL     1      11.232  16.160  32.338  0.00  0.00    +0.189 HD
ENDROOT
BRANCH   1  11
ATOM      7  C1  UNL     1       8.265  12.461  27.973  0.00  0.00    +0.011 C 
ATOM      8  C2  UNL     1       9.636  12.345  28.655  0.00  0.00    +0.032 C 
ATOM      9  C3  UNL     1      10.142  13.748  29.068  0.00  0.00    +0.114 C 
ATOM     10  N1  UNL     1      11.604  13.761  29.214  0.00  0.00    -0.296 N 
ATOM     11  C4  UNL     1      12.220  14.459  30.310  0.00  0.00    +0.264 C 
ATOM     12  O1  UNL     1      13.140  15.289  30.080  0.00  0.00    -0.268 OA
ATOM     13  C14 UNL     1      12.448  13.309  28.100  0.00  0.00    +0.110 C 
ATOM     14  C15 UNL     1      11.637  12.514  27.065  0.00  0.00    +0.050 C 
ATOM     15  C16 UNL     1      10.648  11.565  27.762  0.00  0.00    +0.120 C 
BRANCH  15  16
ATOM     16  O2  UNL     1      11.353  10.644  28.557  0.00  0.00    -0.391 OA
ATOM     17  H18 UNL     1      11.023  10.753  29.488  0.00  0.00    +0.210 HD
ENDBRANCH  15  16
ENDBRANCH   1  11
BRANCH   3  18
ATOM     18  C8  UNL     1      11.312  12.344  34.791  0.00  0.00    +0.002 A 
ATOM     19  C9  UNL     1      11.343  10.950  34.590  0.00  0.00    +0.013 A 
ATOM     20  C10 UNL     1      11.219  10.076  35.675  0.00  0.00    +0.039 A 
ATOM     21  C11 UNL     1      11.062  10.579  36.968  0.00  0.00    +0.123 A 
ATOM     22  F1  UNL     1      10.941   9.729  38.017  0.00  0.00    -0.205 F 
ATOM     23  C12 UNL     1      11.028  11.960  37.179  0.00  0.00    +0.039 A 
ATOM     24  C13 UNL     1      11.151  12.838  36.099  0.00  0.00    +0.013 A 
ENDBRANCH   3  18
TORSDOF 3
ENDMDL
MODEL 3
REMARK VINA RESULT:    -6.158     15.181     16.359
REMARK INTER + INTRA:          -7.539
REMARK INTER:                  -7.026
REMARK INTRA:                  -0.513
REMARK UNBOUND:                -0.481
REMARK  Name = /home/qwerty/github/datacon2025hack/step_04_hit_selection/docking/ligands/lig_244.pdb
REMARK  4 active torsions:
REMARK  status: ('A' for Active; 'I' for Inactive)
REMARK    1  A    between atoms: C1_1  and  C2_2
REMARK    2  A    between atoms: C4_5  and  C5_7
REMARK    3  A    between atoms: C7_9  and  C8_10
REMARK    4  A    between atoms: C16_21  and  O2_22
REMARK                            x       y       z     vdW  Elec       q    Type
REMARK                         _______ _______ _______ _____ _____    ______ ____
ROOT
ATOM      1  C5  UNL     1       7.853   9.584  25.643  0.00  0.00    +0.121 A 
ATOM      2  C6  UNL     1       9.055   9.502  24.971  0.00  0.00    +0.062 A 
ATOM      3  C7  UNL     1       8.763   9.946  23.689  0.00  0.00    +0.093 A 
ATOM      4  N2  UNL     1       7.453  10.262  23.612  0.00  0.00    -0.173 NA
ATOM      5  N3  UNL     1       6.910  10.036  24.796  0.00  0.00    -0.272 N 
ATOM      6  H12 UNL     1       5.901  10.193  25.016  0.00  0.00    +0.189 HD
ENDROOT
BRANCH   1  11
ATOM      7  C1  UNL     1       9.011  13.421  29.321  0.00  0.00    +0.011 C 
ATOM      8  C2  UNL     1       9.319  12.058  28.684  0.00  0.00    +0.032 C 
ATOM      9  C3  UNL     1       8.004  11.372  28.242  0.00  0.00    +0.114 C 
ATOM     10  N1  UNL     1       8.175   9.916  28.139  0.00  0.00    -0.296 N 
ATOM     11  C4  UNL     1       7.597   9.191  27.040  0.00  0.00    +0.264 C 
ATOM     12  O1  UNL     1       6.878   8.182  27.271  0.00  0.00    -0.268 OA
ATOM     13  C14 UNL     1       8.686   9.164  29.292  0.00  0.00    +0.110 C 
ATOM     14  C15 UNL     1       9.339  10.093  30.327  0.00  0.00    +0.050 C 
ATOM     15  C16 UNL     1      10.184  11.173  29.632  0.00  0.00    +0.120 C 
BRANCH  15  16
ATOM     16  O2  UNL     1      11.212  10.567  28.889  0.00  0.00    -0.391 OA
ATOM     17  H18 UNL     1      11.130   9.586  29.027  0.00  0.00    +0.210 HD
ENDBRANCH  15  16
ENDBRANCH   1  11
BRANCH   3  18
ATOM     18  C8  UNL     1       9.705  10.060  22.548  0.00  0.00    +0.002 A 
ATOM     19  C9  UNL     1       9.257   9.950  21.217  0.00  0.00    +0.013 A 
ATOM     20  C10 UNL     1      10.161  10.058  20.154  0.00  0.00    +0.039 A 
ATOM     21  C11 UNL     1      11.517  10.275  20.406  0.00  0.00    +0.123 A 
ATOM     22  F1  UNL     1      12.390  10.379  19.374  0.00  0.00    -0.205 F 
ATOM     23  C12 UNL     1      11.973  10.384  21.722  0.00  0.00    +0.039 A 
ATOM     24  C13 UNL     1      11.075  10.276  22.787  0.00  0.00    +0.013 A 
ENDBRANCH   3  18
TORSDOF 3
ENDMDL
MODEL 4
REMARK VINA RESULT:    -6.134     16.097     17.986
REMARK INTER + INTRA:          -7.512
REMARK INTER:                  -6.998
REMARK INTRA:                  -0.514
REMARK UNBOUND:                -0.481
REMARK  Name = /home/qwerty/github/datacon2025hack/step_04_hit_selection/docking/ligands/lig_244.pdb
REMARK  4 active torsions:
REMARK  status: ('A' for Active; 'I' for Inactive)
REMARK    1  A    between atoms: C1_1  and  C2_2
REMARK    2  A    between atoms: C4_5  and  C5_7
REMARK    3  A    between atoms: C7_9  and  C8_10
REMARK    4  A    between atoms: C16_21  and  O2_22
REMARK                            x       y       z     vdW  Elec       q    Type
REMARK                         _______ _______ _______ _____ _____    ______ ____
ROOT
ATOM      1  C5  UNL     1       8.631   9.649  22.411  0.00  0.00    +0.121 A 
ATOM      2  C6  UNL     1       8.958   9.326  23.712  0.00  0.00    +0.062 A 
ATOM      3  C7  UNL     1       8.002   9.977  24.478  0.00  0.00    +0.093 A 
ATOM      4  N2  UNL     1       7.163  10.656  23.666  0.00  0.00    -0.173 NA
ATOM      5  N3  UNL     1       7.554  10.456  22.419  0.00  0.00    -0.272 N 
ATOM      6  H12 UNL     1       7.082  10.871  21.584  0.00  0.00    +0.189 HD
ENDROOT
BRANCH   1  11
ATOM      7  C1  UNL     1       7.881   4.464  20.947  0.00  0.00    +0.011 C 
ATOM      8  C2  UNL     1       8.800   5.571  21.483  0.00  0.00    +0.032 C 
ATOM      9  C3  UNL     1       8.437   6.924  20.826  0.00  0.00    +0.114 C 
ATOM     10  N1  UNL     1       9.570   7.858  20.876  0.00  0.00    -0.296 N 
ATOM     11  C4  UNL     1       9.358   9.244  21.194  0.00  0.00    +0.264 C 
ATOM     12  O1  UNL     1       9.825  10.135  20.435  0.00  0.00    -0.268 OA
ATOM     13  C14 UNL     1      10.870   7.448  20.329  0.00  0.00    +0.110 C 
ATOM     14  C15 UNL     1      10.944   5.928  20.128  0.00  0.00    +0.050 C 
ATOM     15  C16 UNL     1      10.302   5.190  21.315  0.00  0.00    +0.120 C 
BRANCH  15  16
ATOM     16  O2  UNL     1      10.994   5.502  22.498  0.00  0.00    -0.391 OA
ATOM     17  H18 UNL     1      10.335   5.907  23.122  0.00  0.00    +0.210 HD
ENDBRANCH  15  16
ENDBRANCH   1  11
BRANCH   3  18
ATOM     18  C8  UNL     1       7.887   9.969  25.957  0.00  0.00    +0.002 A 
ATOM     19  C9  UNL     1       8.292  11.076  26.728  0.00  0.00    +0.013 A 
ATOM     20  C10 UNL     1       8.177  11.049  28.122  0.00  0.00    +0.039 A 
ATOM     21  C11 UNL     1       7.660   9.920  28.761  0.00  0.00    +0.123 A 
ATOM     22  F1  UNL     1       7.550   9.897  30.112  0.00  0.00    -0.205 F 
ATOM     23  C12 UNL     1       7.256   8.816  28.007  0.00  0.00    +0.039 A 
ATOM     24  C13 UNL     1       7.369   8.837  26.615  0.00  0.00    +0.013 A 
ENDBRANCH   3  18
TORSDOF 3
ENDMDL
MODEL 5
REMARK VINA RESULT:    -5.999      8.299     11.726
REMARK INTER + INTRA:          -7.357
REMARK INTER:                  -6.976
REMARK INTRA:                  -0.381
REMARK UNBOUND:                -0.481
REMARK  Name = /home/qwerty/github/datacon2025hack/step_04_hit_selection/docking/ligands/lig_244.pdb
REMARK  4 active torsions:
REMARK  status: ('A' for Active; 'I' for Inactive)
REMARK    1  A    between atoms: C1_1  and  C2_2
REMARK    2  A    between atoms: C4_5  and  C5_7
REMARK    3  A    between atoms: C7_9  and  C8_10
REMARK    4  A    between atoms: C16_21  and  O2_22
REMARK                            x       y       z     vdW  Elec       q    Type
REMARK                         _______ _______ _______ _____ _____    ______ ____
ROOT
ATOM      1  C5  UNL     1      19.994  10.884  35.403  0.00  0.00    +0.121 A 
ATOM      2  C6  UNL     1      18.633  10.964  35.189  0.00  0.00    +0.062 A 
ATOM      3  C7  UNL     1      18.236  12.078  35.914  0.00  0.00    +0.093 A 
ATOM      4  N2  UNL     1      19.309  12.617  36.530  0.00  0.00    -0.173 NA
ATOM      5  N3  UNL     1      20.366  11.887  36.220  0.00  0.00    -0.272 N 
ATOM      6  H12 UNL     1      21.332  12.080  36.567  0.00  0.00    +0.189 HD
ENDROOT
BRANCH   1  11
ATOM      7  C1  UNL     1      19.209   5.926  37.498  0.00  0.00    +0.011 C 
ATOM      8  C2  UNL     1      20.079   7.182  37.355  0.00  0.00    +0.032 C 
ATOM      9  C3  UNL     1      19.929   7.771  35.931  0.00  0.00    +0.114 C 
ATOM     10  N1  UNL     1      21.089   8.600  35.576  0.00  0.00    -0.296 N 
ATOM     11  C4  UNL     1      20.908   9.849  34.887  0.00  0.00    +0.264 C 
ATOM     12  O1  UNL     1      21.561  10.079  33.834  0.00  0.00    -0.268 OA
ATOM     13  C14 UNL     1      22.440   8.032  35.667  0.00  0.00    +0.110 C 
ATOM     14  C15 UNL     1      22.456   6.745  36.505  0.00  0.00    +0.050 C 
ATOM     15  C16 UNL     1      21.560   6.893  37.746  0.00  0.00    +0.120 C 
BRANCH  15  16
ATOM     16  O2  UNL     1      22.038   7.939  38.555  0.00  0.00    -0.391 OA
ATOM     17  H18 UNL     1      21.292   8.209  39.151  0.00  0.00    +0.210 HD
ENDBRANCH  15  16
ENDBRANCH   1  11
BRANCH   3  18
ATOM     18  C8  UNL     1      16.860  12.620  36.034  0.00  0.00    +0.002 A 
ATOM     19  C9  UNL     1      15.965  12.136  37.008  0.00  0.00    +0.013 A 
ATOM     20  C10 UNL     1      14.671  12.658  37.104  0.00  0.00    +0.039 A 
ATOM     21  C11 UNL     1      14.255  13.665  36.232  0.00  0.00    +0.123 A 
ATOM     22  F1  UNL     1      13.000  14.170  36.327  0.00  0.00    -0.205 F 
ATOM     23  C12 UNL     1      15.132  14.153  35.260  0.00  0.00    +0.039 A 
ATOM     24  C13 UNL     1      16.426  13.634  35.159  0.00  0.00    +0.013 A 
ENDBRANCH   3  18
TORSDOF 3
ENDMDL
MODEL 6
REMARK VINA RESULT:    -5.969      2.608      3.058
REMARK INTER + INTRA:          -7.323
REMARK INTER:                  -6.908
REMARK INTRA:                  -0.415
REMARK UNBOUND:                -0.481
REMARK  Name = /home/qwerty/github/datacon2025hack/step_04_hit_selection/docking/ligands/lig_244.pdb
REMARK  4 active torsions:
REMARK  status: ('A' for Active; 'I' for Inactive)
REMARK    1  A    between atoms: C1_1  and  C2_2
REMARK    2  A    between atoms: C4_5  and  C5_7
REMARK    3  A    between atoms: C7_9  and  C8_10
REMARK    4  A    between atoms: C16_21  and  O2_22
REMARK                            x       y       z     vdW  Elec       q    Type
REMARK                         _______ _______ _______ _____ _____    ______ ____
ROOT
ATOM      1  C5  UNL     1      21.692   3.473  31.797  0.00  0.00    +0.121 A 
ATOM      2  C6  UNL     1      21.148   3.692  30.548  0.00  0.00    +0.062 A 
ATOM      3  C7  UNL     1      21.712   2.707  29.751  0.00  0.00    +0.093 A 
ATOM      4  N2  UNL     1      22.553   1.956  30.494  0.00  0.00    -0.173 NA
ATOM      5  N3  UNL     1      22.538   2.429  31.728  0.00  0.00    -0.272 N 
ATOM      6  H12 UNL     1      23.105   2.035  32.512  0.00  0.00    +0.189 HD
ENDROOT
BRANCH   1  11
ATOM      7  C1  UNL     1      24.132   8.335  31.826  0.00  0.00    +0.011 C 
ATOM      8  C2  UNL     1      24.010   6.910  32.382  0.00  0.00    +0.032 C 
ATOM      9  C3  UNL     1      22.527   6.464  32.374  0.00  0.00    +0.114 C 
ATOM     10  N1  UNL     1      22.292   5.391  33.350  0.00  0.00    -0.296 N 
ATOM     11  C4  UNL     1      21.454   4.272  33.013  0.00  0.00    +0.264 C 
ATOM     12  O1  UNL     1      20.511   3.947  33.784  0.00  0.00    -0.268 OA
ATOM     13  C14 UNL     1      22.674   5.591  34.754  0.00  0.00    +0.110 C 
ATOM     14  C15 UNL     1      23.633   6.780  34.913  0.00  0.00    +0.050 C 
ATOM     15  C16 UNL     1      24.679   6.790  33.785  0.00  0.00    +0.120 C 
BRANCH  15  16
ATOM     16  O2  UNL     1      25.442   5.611  33.835  0.00  0.00    -0.391 OA
ATOM     17  H18 UNL     1      26.330   5.823  33.442  0.00  0.00    +0.210 HD
ENDBRANCH  15  16
ENDBRANCH   1  11
BRANCH   3  18
ATOM     18  C8  UNL     1      21.471   2.483  28.304  0.00  0.00    +0.002 A 
ATOM     19  C9  UNL     1      20.566   1.501  27.856  0.00  0.00    +0.013 A 
ATOM     20  C10 UNL     1      20.354   1.304  26.488  0.00  0.00    +0.039 A 
ATOM     21  C11 UNL     1      21.040   2.081  25.553  0.00  0.00    +0.123 A 
ATOM     22  F1  UNL     1      20.832   1.888  24.227  0.00  0.00    -0.205 F 
ATOM     23  C12 UNL     1      21.941   3.058  25.984  0.00  0.00    +0.039 A 
ATOM     24  C13 UNL     1      22.158   3.258  27.350  0.00  0.00    +0.013 A 
ENDBRANCH   3  18
TORSDOF 3
ENDMDL
MODEL 7
REMARK VINA RESULT:    -5.954     12.976     15.252
REMARK INTER + INTRA:          -7.306
REMARK INTER:                  -6.855
REMARK INTRA:                  -0.451
REMARK UNBOUND:                -0.481
REMARK  Name = /home/qwerty/github/datacon2025hack/step_04_hit_selection/docking/ligands/lig_244.pdb
REMARK  4 active torsions:
REMARK  status: ('A' for Active; 'I' for Inactive)
REMARK    1  A    between atoms: C1_1  and  C2_2
REMARK    2  A    between atoms: C4_5  and  C5_7
REMARK    3  A    between atoms: C7_9  and  C8_10
REMARK    4  A    between atoms: C16_21  and  O2_22
REMARK                            x       y       z     vdW  Elec       q    Type
REMARK                         _______ _______ _______ _____ _____    ______ ____
ROOT
ATOM      1  C5  UNL     1      11.423  13.882  31.093  0.00  0.00    +0.121 A 
ATOM      2  C6  UNL     1      11.273  12.758  31.878  0.00  0.00    +0.062 A 
ATOM      3  C7  UNL     1      11.438  13.220  33.175  0.00  0.00    +0.093 A 
ATOM      4  N2  UNL     1      11.683  14.548  33.150  0.00  0.00    -0.173 NA
ATOM      5  N3  UNL     1      11.676  14.939  31.887  0.00  0.00    -0.272 N 
ATOM      6  H12 UNL     1      11.844  15.922  31.578  0.00  0.00    +0.189 HD
ENDROOT
BRANCH   1  11
ATOM      7  C1  UNL     1      16.094  12.561  28.637  0.00  0.00    +0.011 C 
ATOM      8  C2  UNL     1      15.040  13.616  29.003  0.00  0.00    +0.032 C 
ATOM      9  C3  UNL     1      13.633  12.972  29.028  0.00  0.00    +0.114 C 
ATOM     10  N1  UNL     1      12.585  13.984  28.837  0.00  0.00    -0.296 N 
ATOM     11  C4  UNL     1      11.379  13.940  29.620  0.00  0.00    +0.264 C 
ATOM     12  O1  UNL     1      10.260  13.978  29.042  0.00  0.00    -0.268 OA
ATOM     13  C14 UNL     1      12.634  14.866  27.664  0.00  0.00    +0.110 C 
ATOM     14  C15 UNL     1      14.019  14.845  27.001  0.00  0.00    +0.050 C 
ATOM     15  C16 UNL     1      15.131  14.857  28.064  0.00  0.00    +0.120 C 
BRANCH  15  16
ATOM     16  O2  UNL     1      15.040  16.029  28.834  0.00  0.00    -0.391 OA
ATOM     17  H18 UNL     1      14.989  16.791  28.199  0.00  0.00    +0.210 HD
ENDBRANCH  15  16
ENDBRANCH   1  11
BRANCH   3  18
ATOM     18  C8  UNL     1      11.378  12.419  34.423  0.00  0.00    +0.002 A 
ATOM     19  C9  UNL     1      11.335  13.038  35.688  0.00  0.00    +0.013 A 
ATOM     20  C10 UNL     1      11.280  12.265  36.853  0.00  0.00    +0.039 A 
ATOM     21  C11 UNL     1      11.268  10.871  36.770  0.00  0.00    +0.123 A 
ATOM     22  F1  UNL     1      11.215  10.125  37.901  0.00  0.00    -0.205 F 
ATOM     23  C12 UNL     1      11.312  10.247  35.521  0.00  0.00    +0.039 A 
ATOM     24  C13 UNL     1      11.368  11.013  34.354  0.00  0.00    +0.013 A 
ENDBRANCH   3  18
TORSDOF 3
ENDMDL
MODEL 8
REMARK VINA RESULT:    -5.934     13.886     15.434
REMARK INTER + INTRA:          -7.283
REMARK INTER:                  -6.758
REMARK INTRA:                  -0.525
REMARK UNBOUND:                -0.481
REMARK  Name = /home/qwerty/github/datacon2025hack/step_04_hit_selection/docking/ligands/lig_244.pdb
REMARK  4 active torsions:
REMARK  status: ('A' for Active; 'I' for Inactive)
REMARK    1  A    between atoms: C1_1  and  C2_2
REMARK    2  A    between atoms: C4_5  and  C5_7
REMARK    3  A    between atoms: C7_9  and  C8_10
REMARK    4  A    between atoms: C16_21  and  O2_22
REMARK                            x       y       z     vdW  Elec       q    Type
REMARK                         _______ _______ _______ _____ _____    ______ ____
ROOT
ATOM      1  C5  UNL     1      12.014   6.366  20.701  0.00  0.00    +0.121 A 
ATOM      2  C6  UNL     1      12.153   5.025  20.403  0.00  0.00    +0.062 A 
ATOM      3  C7  UNL     1      13.499   4.764  20.615  0.00  0.00    +0.093 A 
ATOM      4  N2  UNL     1      14.119   5.897  21.007  0.00  0.00    -0.173 NA
ATOM      5  N3  UNL     1      13.215   6.861  21.052  0.00  0.00    -0.272 N 
ATOM      6  H12 UNL     1      13.426   7.848  21.322  0.00  0.00    +0.189 HD
ENDROOT
BRANCH   1  11
ATOM      7  C1  UNL     1       8.248   5.193  24.447  0.00  0.00    +0.011 C 
ATOM      8  C2  UNL     1       8.710   5.183  22.983  0.00  0.00    +0.032 C 
ATOM      9  C3  UNL     1       9.561   6.443  22.689  0.00  0.00    +0.114 C 
ATOM     10  N1  UNL     1       9.567   6.754  21.253  0.00  0.00    -0.296 N 
ATOM     11  C4  UNL     1      10.781   7.166  20.602  0.00  0.00    +0.264 C 
ATOM     12  O1  UNL     1      10.789   8.219  19.910  0.00  0.00    -0.268 OA
ATOM     13  C14 UNL     1       8.292   6.921  20.543  0.00  0.00    +0.110 C 
ATOM     14  C15 UNL     1       7.117   6.353  21.353  0.00  0.00    +0.050 C 
ATOM     15  C16 UNL     1       7.504   5.017  22.010  0.00  0.00    +0.120 C 
BRANCH  15  16
ATOM     16  O2  UNL     1       7.836   4.079  21.017  0.00  0.00    -0.391 OA
ATOM     17  H18 UNL     1       8.773   4.263  20.745  0.00  0.00    +0.210 HD
ENDBRANCH  15  16
ENDBRANCH   1  11
BRANCH   3  18
ATOM     18  C8  UNL     1      14.194   3.465  20.439  0.00  0.00    +0.002 A 
ATOM     19  C9  UNL     1      13.522   2.243  20.641  0.00  0.00    +0.013 A 
ATOM     20  C10 UNL     1      14.195   1.028  20.471  0.00  0.00    +0.039 A 
ATOM     21  C11 UNL     1      15.541   1.018  20.101  0.00  0.00    +0.123 A 
ATOM     22  F1  UNL     1      16.191  -0.161  19.937  0.00  0.00    -0.205 F 
ATOM     23  C12 UNL     1      16.218   2.223  19.899  0.00  0.00    +0.039 A 
ATOM     24  C13 UNL     1      15.551   3.439  20.068  0.00  0.00    +0.013 A 
ENDBRANCH   3  18
TORSDOF 3
ENDMDL
MODEL 9
REMARK VINA RESULT:    -5.861      6.887      9.052
REMARK INTER + INTRA:          -7.199
REMARK INTER:                  -6.754
REMARK INTRA:                  -0.445
REMARK UNBOUND:                -0.481
REMARK  Name = /home/qwerty/github/datacon2025hack/step_04_hit_selection/docking/ligands/lig_244.pdb
REMARK  4 active torsions:
REMARK  status: ('A' for Active; 'I' for Inactive)
REMARK    1  A    between atoms: C1_1  and  C2_2
REMARK    2  A    between atoms: C4_5  and  C5_7
REMARK    3  A    between atoms: C7_9  and  C8_10
REMARK    4  A    between atoms: C16_21  and  O2_22
REMARK                            x       y       z     vdW  Elec       q    Type
REMARK                         _______ _______ _______ _____ _____    ______ ____
ROOT
ATOM      1  C5  UNL     1      18.615   9.052  36.643  0.00  0.00    +0.121 A 
ATOM      2  C6  UNL     1      19.356   8.344  35.719  0.00  0.00    +0.062 A 
ATOM      3  C7  UNL     1      20.671   8.521  36.124  0.00  0.00    +0.093 A 
ATOM      4  N2  UNL     1      20.699   9.304  37.224  0.00  0.00    -0.173 NA
ATOM      5  N3  UNL     1      19.453   9.624  37.528  0.00  0.00    -0.272 N 
ATOM      6  H12 UNL     1      19.185  10.229  38.336  0.00  0.00    +0.189 HD
ENDROOT
BRANCH   1  11
ATOM      7  C1  UNL     1      16.841  13.450  33.978  0.00  0.00    +0.011 C 
ATOM      8  C2  UNL     1      17.055  12.696  35.298  0.00  0.00    +0.032 C 
ATOM      9  C3  UNL     1      16.882  11.175  35.072  0.00  0.00    +0.114 C 
ATOM     10  N1  UNL     1      16.545  10.488  36.327  0.00  0.00    -0.296 N 
ATOM     11  C4  UNL     1      17.152   9.225  36.651  0.00  0.00    +0.264 C 
ATOM     12  O1  UNL     1      16.422   8.251  36.976  0.00  0.00    -0.268 OA
ATOM     13  C14 UNL     1      15.391  10.941  37.113  0.00  0.00    +0.110 C 
ATOM     14  C15 UNL     1      14.929  12.341  36.682  0.00  0.00    +0.050 C 
ATOM     15  C16 UNL     1      16.137  13.258  36.426  0.00  0.00    +0.120 C 
BRANCH  15  16
ATOM     16  O2  UNL     1      16.886  13.396  37.607  0.00  0.00    -0.391 OA
ATOM     17  H18 UNL     1      16.816  12.535  38.098  0.00  0.00    +0.210 HD
ENDBRANCH  15  16
ENDBRANCH   1  11
BRANCH   3  18
ATOM     18  C8  UNL     1      21.886   7.970  35.476  0.00  0.00    +0.002 A 
ATOM     19  C9  UNL     1      22.573   6.869  36.024  0.00  0.00    +0.013 A 
ATOM     20  C10 UNL     1      23.718   6.365  35.399  0.00  0.00    +0.039 A 
ATOM     21  C11 UNL     1      24.191   6.952  34.224  0.00  0.00    +0.123 A 
ATOM     22  F1  UNL     1      25.302   6.461  33.620  0.00  0.00    -0.205 F 
ATOM     23  C12 UNL     1      23.520   8.045  33.671  0.00  0.00    +0.039 A 
ATOM     24  C13 UNL     1      22.376   8.553  34.292  0.00  0.00    +0.013 A 
ENDBRANCH   3  18
TORSDOF 3
ENDMDL
