MODEL 1
REMARK VINA RESULT:    -5.937      0.000      0.000
REMARK INTER + INTRA:          -7.906
REMARK INTER:                  -7.325
REMARK INTRA:                  -0.581
REMARK UNBOUND:                -0.581
REMARK  Name = /home/qwerty/github/datacon2025hack/step_04_hit_selection/docking/ligands/lig_234.pdb
REMARK  8 active torsions:
REMARK  status: ('A' for Active; 'I' for Inactive)
REMARK    1  A    between atoms: C1_1  and  C2_2
REMARK    2  A    between atoms: C2_2  and  C3_3
REMARK    3  A    between atoms: C2_2  and  O1_4
REMARK    4  A    between atoms: O1_4  and  C4_5
REMARK    5  A    between atoms: C7_8  and  N1_9
REMARK    6  A    between atoms: C8_10  and  C9_12
REMARK    7  A    between atoms: C12_17  and  C13_18
REMARK    8  A    between atoms: C15_20  and  C16_21
REMARK                            x       y       z     vdW  Elec       q    Type
REMARK                         _______ _______ _______ _____ _____    ______ ____
ROOT
ATOM      1  N1  UNL     1      17.060  10.541  36.869  0.00  0.00    -0.276 N 
ATOM      2  C8  UNL     1      16.194  10.545  35.723  0.00  0.00    +0.303 C 
ATOM      3  O2  UNL     1      16.172   9.553  34.944  0.00  0.00    -0.265 OA
ATOM      4  H10 UNL     1      16.843  11.192  37.658  0.00  0.00    +0.155 HD
ENDROOT
BRANCH   2   5
ATOM      5  C9  UNL     1      15.274  11.678  35.487  0.00  0.00    +0.302 C 
ATOM      6  O3  UNL     1      15.537  12.498  34.568  0.00  0.00    -0.265 OA
ATOM      7  N2  UNL     1      14.106  11.888  36.311  0.00  0.00    -0.294 N 
ATOM      8  C10 UNL     1      13.790  13.244  36.762  0.00  0.00    +0.108 C 
ATOM      9  C11 UNL     1      12.902  13.956  35.740  0.00  0.00    +0.022 C 
ATOM     10  C12 UNL     1      11.462  13.406  35.708  0.00  0.00    -0.012 C 
ATOM     11  C13 UNL     1      10.645  14.200  34.678  0.00  0.00    +0.007 C 
ATOM     12  C14 UNL     1      11.401  11.892  35.368  0.00  0.00    +0.008 C 
ATOM     13  C15 UNL     1      11.774  10.921  36.521  0.00  0.00    +0.004 C 
ATOM     14  C16 UNL     1      11.000  11.194  37.822  0.00  0.00    +0.009 C 
ATOM     15  C17 UNL     1      13.298  10.749  36.770  0.00  0.00    +0.111 C 
ENDBRANCH   2   5
BRANCH   1  19
ATOM     16  C4  UNL     1      20.276   7.819  37.325  0.00  0.00    +0.215 A 
ATOM     17  C5  UNL     1      20.454   9.002  36.585  0.00  0.00    +0.069 A 
ATOM     18  C6  UNL     1      19.389   9.893  36.443  0.00  0.00    +0.030 A 
ATOM     19  C7  UNL     1      18.155   9.624  37.045  0.00  0.00    +0.052 A 
ATOM     20  C18 UNL     1      18.009   8.424  37.757  0.00  0.00    +0.138 A 
ATOM     21  N3  UNL     1      19.058   7.570  37.879  0.00  0.00    -0.219 NA
BRANCH  16  22
ATOM     22  O1  UNL     1      21.287   6.861  37.528  0.00  0.00    -0.474 OA
BRANCH  22  24
ATOM     23  C1  UNL     1      23.251   6.399  36.105  0.00  0.00    +0.051 C 
ATOM     24  C2  UNL     1      22.710   6.996  37.409  0.00  0.00    +0.169 C 
ATOM     25  C3  UNL     1      23.453   6.507  38.658  0.00  0.00    +0.051 C 
ENDBRANCH  22  24
ENDBRANCH  16  22
ENDBRANCH   1  19
TORSDOF 4
ENDMDL
MODEL 2
REMARK VINA RESULT:    -5.846     16.010     16.938
REMARK INTER + INTRA:          -7.794
REMARK INTER:                  -7.246
REMARK INTRA:                  -0.548
REMARK UNBOUND:                -0.581
REMARK  Name = /home/qwerty/github/datacon2025hack/step_04_hit_selection/docking/ligands/lig_234.pdb
REMARK  8 active torsions:
REMARK  status: ('A' for Active; 'I' for Inactive)
REMARK    1  A    between atoms: C1_1  and  C2_2
REMARK    2  A    between atoms: C2_2  and  C3_3
REMARK    3  A    between atoms: C2_2  and  O1_4
REMARK    4  A    between atoms: O1_4  and  C4_5
REMARK    5  A    between atoms: C7_8  and  N1_9
REMARK    6  A    between atoms: C8_10  and  C9_12
REMARK    7  A    between atoms: C12_17  and  C13_18
REMARK    8  A    between atoms: C15_20  and  C16_21
REMARK                            x       y       z     vdW  Elec       q    Type
REMARK                         _______ _______ _______ _____ _____    ______ ____
ROOT
ATOM      1  N1  UNL     1      12.349   4.628  20.909  0.00  0.00    -0.276 N 
ATOM      2  C8  UNL     1      12.195   5.589  21.967  0.00  0.00    +0.303 C 
ATOM      3  O2  UNL     1      13.163   5.844  22.734  0.00  0.00    -0.265 OA
ATOM      4  H10 UNL     1      11.679   4.662  20.108  0.00  0.00    +0.155 HD
ENDROOT
BRANCH   2   5
ATOM      5  C9  UNL     1      10.927   6.334  22.120  0.00  0.00    +0.302 C 
ATOM      6  O3  UNL     1      10.144   6.023  23.057  0.00  0.00    -0.265 OA
ATOM      7  N2  UNL     1      10.548   7.378  21.199  0.00  0.00    -0.294 N 
ATOM      8  C10 UNL     1       9.166   7.436  20.718  0.00  0.00    +0.108 C 
ATOM      9  C11 UNL     1       8.307   8.283  21.658  0.00  0.00    +0.022 C 
ATOM     10  C12 UNL     1       8.621   9.789  21.567  0.00  0.00    -0.012 C 
ATOM     11  C13 UNL     1       7.691  10.554  22.521  0.00  0.00    +0.007 C 
ATOM     12  C14 UNL     1      10.101  10.119  21.904  0.00  0.00    +0.008 C 
ATOM     13  C15 UNL     1      11.137   9.808  20.790  0.00  0.00    +0.004 C 
ATOM     14  C16 UNL     1      10.765  10.416  19.426  0.00  0.00    +0.009 C 
ATOM     15  C17 UNL     1      11.552   8.316  20.673  0.00  0.00    +0.111 C 
ENDBRANCH   2   5
BRANCH   1  19
ATOM     16  C4  UNL     1      15.508   1.817  20.632  0.00  0.00    +0.215 A 
ATOM     17  C5  UNL     1      15.484   2.936  19.781  0.00  0.00    +0.069 A 
ATOM     18  C6  UNL     1      14.440   3.858  19.882  0.00  0.00    +0.030 A 
ATOM     19  C7  UNL     1      13.430   3.683  20.834  0.00  0.00    +0.052 A 
ATOM     20  C18 UNL     1      13.476   2.544  21.652  0.00  0.00    +0.138 A 
ATOM     21  N3  UNL     1      14.499   1.659  21.533  0.00  0.00    -0.219 NA
BRANCH  16  22
ATOM     22  O1  UNL     1      16.516   0.836  20.611  0.00  0.00    -0.474 OA
BRANCH  22  24
ATOM     23  C1  UNL     1      16.977  -1.284  21.792  0.00  0.00    +0.051 C 
ATOM     24  C2  UNL     1      16.397  -0.593  20.552  0.00  0.00    +0.169 C 
ATOM     25  C3  UNL     1      16.921  -1.171  19.232  0.00  0.00    +0.051 C 
ENDBRANCH  22  24
ENDBRANCH  16  22
ENDBRANCH   1  19
TORSDOF 4
ENDMDL
MODEL 3
REMARK VINA RESULT:    -5.826     16.236     16.996
REMARK INTER + INTRA:          -7.769
REMARK INTER:                  -7.113
REMARK INTRA:                  -0.656
REMARK UNBOUND:                -0.581
REMARK  Name = /home/qwerty/github/datacon2025hack/step_04_hit_selection/docking/ligands/lig_234.pdb
REMARK  8 active torsions:
REMARK  status: ('A' for Active; 'I' for Inactive)
REMARK    1  A    between atoms: C1_1  and  C2_2
REMARK    2  A    between atoms: C2_2  and  C3_3
REMARK    3  A    between atoms: C2_2  and  O1_4
REMARK    4  A    between atoms: O1_4  and  C4_5
REMARK    5  A    between atoms: C7_8  and  N1_9
REMARK    6  A    between atoms: C8_10  and  C9_12
REMARK    7  A    between atoms: C12_17  and  C13_18
REMARK    8  A    between atoms: C15_20  and  C16_21
REMARK                            x       y       z     vdW  Elec       q    Type
REMARK                         _______ _______ _______ _____ _____    ______ ____
ROOT
ATOM      1  N1  UNL     1      12.652   2.386  20.661  0.00  0.00    -0.276 N 
ATOM      2  C8  UNL     1      12.574   3.712  21.210  0.00  0.00    +0.303 C 
ATOM      3  O2  UNL     1      13.517   4.159  21.918  0.00  0.00    -0.265 OA
ATOM      4  H10 UNL     1      12.048   2.153  19.841  0.00  0.00    +0.155 HD
ENDROOT
BRANCH   2   5
ATOM      5  C9  UNL     1      11.423   4.584  20.894  0.00  0.00    +0.302 C 
ATOM      6  O3  UNL     1      11.287   5.013  19.717  0.00  0.00    -0.265 OA
ATOM      7  N2  UNL     1      10.476   4.985  21.907  0.00  0.00    -0.294 N 
ATOM      8  C10 UNL     1      10.024   6.377  21.946  0.00  0.00    +0.108 C 
ATOM      9  C11 UNL     1       8.791   6.565  21.061  0.00  0.00    +0.022 C 
ATOM     10  C12 UNL     1       7.522   5.917  21.651  0.00  0.00    -0.012 C 
ATOM     11  C13 UNL     1       6.339   6.185  20.709  0.00  0.00    +0.007 C 
ATOM     12  C14 UNL     1       7.675   4.388  21.878  0.00  0.00    +0.008 C 
ATOM     13  C15 UNL     1       8.501   3.966  23.123  0.00  0.00    +0.004 C 
ATOM     14  C16 UNL     1       8.033   4.642  24.423  0.00  0.00    +0.009 C 
ATOM     15  C17 UNL     1      10.043   4.038  22.946  0.00  0.00    +0.111 C 
ENDBRANCH   2   5
BRANCH   1  19
ATOM     16  C4  UNL     1      15.422  -0.518  22.021  0.00  0.00    +0.215 A 
ATOM     17  C5  UNL     1      14.262  -0.247  22.768  0.00  0.00    +0.069 A 
ATOM     18  C6  UNL     1      13.355   0.710  22.310  0.00  0.00    +0.030 A 
ATOM     19  C7  UNL     1      13.584   1.385  21.107  0.00  0.00    +0.052 A 
ATOM     20  C18 UNL     1      14.763   1.103  20.399  0.00  0.00    +0.138 A 
ATOM     21  N3  UNL     1      15.633   0.171  20.866  0.00  0.00    -0.219 NA
BRANCH  16  22
ATOM     22  O1  UNL     1      16.394  -1.465  22.395  0.00  0.00    -0.474 OA
BRANCH  22  24
ATOM     23  C1  UNL     1      16.790  -2.215  24.714  0.00  0.00    +0.051 C 
ATOM     24  C2  UNL     1      17.313  -1.443  23.497  0.00  0.00    +0.169 C 
ATOM     25  C3  UNL     1      17.791  -0.026  23.834  0.00  0.00    +0.051 C 
ENDBRANCH  22  24
ENDBRANCH  16  22
ENDBRANCH   1  19
TORSDOF 4
ENDMDL
MODEL 4
REMARK VINA RESULT:    -5.824      2.000      9.033
REMARK INTER + INTRA:          -7.766
REMARK INTER:                  -7.258
REMARK INTRA:                  -0.508
REMARK UNBOUND:                -0.581
REMARK  Name = /home/qwerty/github/datacon2025hack/step_04_hit_selection/docking/ligands/lig_234.pdb
REMARK  8 active torsions:
REMARK  status: ('A' for Active; 'I' for Inactive)
REMARK    1  A    between atoms: C1_1  and  C2_2
REMARK    2  A    between atoms: C2_2  and  C3_3
REMARK    3  A    between atoms: C2_2  and  O1_4
REMARK    4  A    between atoms: O1_4  and  C4_5
REMARK    5  A    between atoms: C7_8  and  N1_9
REMARK    6  A    between atoms: C8_10  and  C9_12
REMARK    7  A    between atoms: C12_17  and  C13_18
REMARK    8  A    between atoms: C15_20  and  C16_21
REMARK                            x       y       z     vdW  Elec       q    Type
REMARK                         _______ _______ _______ _____ _____    ______ ____
ROOT
ATOM      1  N1  UNL     1      17.690  11.457  36.857  0.00  0.00    -0.276 N 
ATOM      2  C8  UNL     1      18.442  11.112  35.682  0.00  0.00    +0.303 C 
ATOM      3  O2  UNL     1      18.034  11.471  34.543  0.00  0.00    -0.265 OA
ATOM      4  H10 UNL     1      18.180  11.445  37.780  0.00  0.00    +0.155 HD
ENDROOT
BRANCH   2   5
ATOM      5  C9  UNL     1      19.730  10.397  35.803  0.00  0.00    +0.302 C 
ATOM      6  O3  UNL     1      20.776  11.058  36.043  0.00  0.00    -0.265 OA
ATOM      7  N2  UNL     1      19.823   8.969  35.615  0.00  0.00    -0.294 N 
ATOM      8  C10 UNL     1      20.933   8.426  34.829  0.00  0.00    +0.108 C 
ATOM      9  C11 UNL     1      22.138   8.145  35.727  0.00  0.00    +0.022 C 
ATOM     10  C12 UNL     1      21.928   6.931  36.655  0.00  0.00    -0.012 C 
ATOM     11  C13 UNL     1      23.198   6.713  37.490  0.00  0.00    +0.007 C 
ATOM     12  C14 UNL     1      20.704   7.097  37.597  0.00  0.00    +0.008 C 
ATOM     13  C15 UNL     1      19.312   6.875  36.946  0.00  0.00    +0.004 C 
ATOM     14  C16 UNL     1      19.202   5.546  36.179  0.00  0.00    +0.009 C 
ATOM     15  C17 UNL     1      18.771   8.075  36.122  0.00  0.00    +0.111 C 
ENDBRANCH   2   5
BRANCH   1  19
ATOM     16  C4  UNL     1      13.670  12.790  36.721  0.00  0.00    +0.215 A 
ATOM     17  C5  UNL     1      13.955  11.414  36.773  0.00  0.00    +0.069 A 
ATOM     18  C6  UNL     1      15.283  10.985  36.820  0.00  0.00    +0.030 A 
ATOM     19  C7  UNL     1      16.327  11.915  36.833  0.00  0.00    +0.052 A 
ATOM     20  C18 UNL     1      16.006  13.279  36.758  0.00  0.00    +0.138 A 
ATOM     21  N3  UNL     1      14.706  13.672  36.709  0.00  0.00    -0.219 NA
BRANCH  16  22
ATOM     22  O1  UNL     1      12.368  13.321  36.674  0.00  0.00    -0.474 OA
BRANCH  22  24
ATOM     23  C1  UNL     1      10.162  14.151  35.937  0.00  0.00    +0.051 C 
ATOM     24  C2  UNL     1      11.543  13.618  35.538  0.00  0.00    +0.169 C 
ATOM     25  C3  UNL     1      11.483  12.457  34.538  0.00  0.00    +0.051 C 
ENDBRANCH  22  24
ENDBRANCH  16  22
ENDBRANCH   1  19
TORSDOF 4
ENDMDL
MODEL 5
REMARK VINA RESULT:    -5.725     15.922     18.817
REMARK INTER + INTRA:          -7.644
REMARK INTER:                  -7.099
REMARK INTRA:                  -0.545
REMARK UNBOUND:                -0.581
REMARK  Name = /home/qwerty/github/datacon2025hack/step_04_hit_selection/docking/ligands/lig_234.pdb
REMARK  8 active torsions:
REMARK  status: ('A' for Active; 'I' for Inactive)
REMARK    1  A    between atoms: C1_1  and  C2_2
REMARK    2  A    between atoms: C2_2  and  C3_3
REMARK    3  A    between atoms: C2_2  and  O1_4
REMARK    4  A    between atoms: O1_4  and  C4_5
REMARK    5  A    between atoms: C7_8  and  N1_9
REMARK    6  A    between atoms: C8_10  and  C9_12
REMARK    7  A    between atoms: C12_17  and  C13_18
REMARK    8  A    between atoms: C15_20  and  C16_21
REMARK                            x       y       z     vdW  Elec       q    Type
REMARK                         _______ _______ _______ _____ _____    ______ ____
ROOT
ATOM      1  N1  UNL     1      12.021   1.747  22.332  0.00  0.00    -0.276 N 
ATOM      2  C8  UNL     1      13.061   2.071  23.270  0.00  0.00    +0.303 C 
ATOM      3  O2  UNL     1      12.856   2.934  24.166  0.00  0.00    -0.265 OA
ATOM      4  H10 UNL     1      12.079   0.836  21.822  0.00  0.00    +0.155 HD
ENDROOT
BRANCH   2   5
ATOM      5  C9  UNL     1      14.349   1.347  23.235  0.00  0.00    +0.302 C 
ATOM      6  O3  UNL     1      15.380   1.952  22.836  0.00  0.00    -0.265 OA
ATOM      7  N2  UNL     1      14.445  -0.044  23.607  0.00  0.00    -0.294 N 
ATOM      8  C10 UNL     1      15.252  -0.947  22.783  0.00  0.00    +0.108 C 
ATOM      9  C11 UNL     1      16.702  -0.963  23.269  0.00  0.00    +0.022 C 
ATOM     10  C12 UNL     1      16.877  -1.698  24.614  0.00  0.00    -0.012 C 
ATOM     11  C13 UNL     1      18.363  -1.687  25.001  0.00  0.00    +0.007 C 
ATOM     12  C14 UNL     1      16.034  -1.071  25.758  0.00  0.00    +0.008 C 
ATOM     13  C15 UNL     1      14.517  -1.402  25.744  0.00  0.00    +0.004 C 
ATOM     14  C16 UNL     1      14.224  -2.909  25.647  0.00  0.00    +0.009 C 
ATOM     15  C17 UNL     1      13.671  -0.573  24.740  0.00  0.00    +0.111 C 
ENDBRANCH   2   5
BRANCH   1  19
ATOM     16  C4  UNL     1       8.600   4.177  21.739  0.00  0.00    +0.215 A 
ATOM     17  C5  UNL     1       9.719   4.319  20.900  0.00  0.00    +0.069 A 
ATOM     18  C6  UNL     1      10.841   3.512  21.102  0.00  0.00    +0.030 A 
ATOM     19  C7  UNL     1      10.849   2.554  22.121  0.00  0.00    +0.052 A 
ATOM     20  C18 UNL     1       9.723   2.456  22.952  0.00  0.00    +0.138 A 
ATOM     21  N3  UNL     1       8.645   3.254  22.739  0.00  0.00    -0.219 NA
BRANCH  16  22
ATOM     22  O1  UNL     1       7.423   4.939  21.616  0.00  0.00    -0.474 OA
BRANCH  22  24
ATOM     23  C1  UNL     1       7.734   7.385  21.488  0.00  0.00    +0.051 C 
ATOM     24  C2  UNL     1       7.176   6.116  20.833  0.00  0.00    +0.169 C 
ATOM     25  C3  UNL     1       5.708   6.242  20.411  0.00  0.00    +0.051 C 
ENDBRANCH  22  24
ENDBRANCH  16  22
ENDBRANCH   1  19
TORSDOF 4
ENDMDL
MODEL 6
REMARK VINA RESULT:    -5.553     11.032     14.461
REMARK INTER + INTRA:          -7.433
REMARK INTER:                  -6.874
REMARK INTRA:                  -0.558
REMARK UNBOUND:                -0.581
REMARK  Name = /home/qwerty/github/datacon2025hack/step_04_hit_selection/docking/ligands/lig_234.pdb
REMARK  8 active torsions:
REMARK  status: ('A' for Active; 'I' for Inactive)
REMARK    1  A    between atoms: C1_1  and  C2_2
REMARK    2  A    between atoms: C2_2  and  C3_3
REMARK    3  A    between atoms: C2_2  and  O1_4
REMARK    4  A    between atoms: O1_4  and  C4_5
REMARK    5  A    between atoms: C7_8  and  N1_9
REMARK    6  A    between atoms: C8_10  and  C9_12
REMARK    7  A    between atoms: C12_17  and  C13_18
REMARK    8  A    between atoms: C15_20  and  C16_21
REMARK                            x       y       z     vdW  Elec       q    Type
REMARK                         _______ _______ _______ _____ _____    ______ ____
ROOT
ATOM      1  N1  UNL     1      10.308   9.348  25.567  0.00  0.00    -0.276 N 
ATOM      2  C8  UNL     1       9.851   9.192  26.921  0.00  0.00    +0.303 C 
ATOM      3  O2  UNL     1       8.971   8.332  27.196  0.00  0.00    -0.265 OA
ATOM      4  H10 UNL     1      11.232   9.809  25.406  0.00  0.00    +0.155 HD
ENDROOT
BRANCH   2   5
ATOM      5  C9  UNL     1      10.458   9.989  28.009  0.00  0.00    +0.302 C 
ATOM      6  O3  UNL     1      11.678   9.824  28.280  0.00  0.00    -0.265 OA
ATOM      7  N2  UNL     1       9.678  10.918  28.791  0.00  0.00    -0.294 N 
ATOM      8  C10 UNL     1       9.864  10.956  30.244  0.00  0.00    +0.108 C 
ATOM      9  C11 UNL     1      10.972  11.942  30.616  0.00  0.00    +0.022 C 
ATOM     10  C12 UNL     1      10.557  13.414  30.422  0.00  0.00    -0.012 C 
ATOM     11  C13 UNL     1      11.720  14.323  30.850  0.00  0.00    +0.007 C 
ATOM     12  C14 UNL     1      10.152  13.738  28.958  0.00  0.00    +0.008 C 
ATOM     13  C15 UNL     1       8.742  13.256  28.522  0.00  0.00    +0.004 C 
ATOM     14  C16 UNL     1       7.623  13.696  29.482  0.00  0.00    +0.009 C 
ATOM     15  C17 UNL     1       8.644  11.749  28.158  0.00  0.00    +0.111 C 
ENDBRANCH   2   5
BRANCH   1  19
ATOM     16  C4  UNL     1       8.226   7.771  22.231  0.00  0.00    +0.215 A 
ATOM     17  C5  UNL     1       7.882   9.034  22.743  0.00  0.00    +0.069 A 
ATOM     18  C6  UNL     1       8.576   9.546  23.841  0.00  0.00    +0.030 A 
ATOM     19  C7  UNL     1       9.619   8.817  24.421  0.00  0.00    +0.052 A 
ATOM     20  C18 UNL     1       9.920   7.551  23.897  0.00  0.00    +0.138 A 
ATOM     21  N3  UNL     1       9.228   7.072  22.830  0.00  0.00    -0.219 NA
BRANCH  16  22
ATOM     22  O1  UNL     1       7.590   7.171  21.128  0.00  0.00    -0.474 OA
BRANCH  22  24
ATOM     23  C1  UNL     1       7.592   4.768  20.557  0.00  0.00    +0.051 C 
ATOM     24  C2  UNL     1       6.798   5.975  21.070  0.00  0.00    +0.169 C 
ATOM     25  C3  UNL     1       5.469   6.187  20.336  0.00  0.00    +0.051 C 
ENDBRANCH  22  24
ENDBRANCH  16  22
ENDBRANCH   1  19
TORSDOF 4
ENDMDL
MODEL 7
REMARK VINA RESULT:    -5.501     15.947     18.895
REMARK INTER + INTRA:          -7.368
REMARK INTER:                  -6.803
REMARK INTRA:                  -0.565
REMARK UNBOUND:                -0.581
REMARK  Name = /home/qwerty/github/datacon2025hack/step_04_hit_selection/docking/ligands/lig_234.pdb
REMARK  8 active torsions:
REMARK  status: ('A' for Active; 'I' for Inactive)
REMARK    1  A    between atoms: C1_1  and  C2_2
REMARK    2  A    between atoms: C2_2  and  C3_3
REMARK    3  A    between atoms: C2_2  and  O1_4
REMARK    4  A    between atoms: O1_4  and  C4_5
REMARK    5  A    between atoms: C7_8  and  N1_9
REMARK    6  A    between atoms: C8_10  and  C9_12
REMARK    7  A    between atoms: C12_17  and  C13_18
REMARK    8  A    between atoms: C15_20  and  C16_21
REMARK                            x       y       z     vdW  Elec       q    Type
REMARK                         _______ _______ _______ _____ _____    ______ ____
ROOT
ATOM      1  N1  UNL     1      10.787   3.431  21.574  0.00  0.00    -0.276 N 
ATOM      2  C8  UNL     1      11.685   2.950  22.589  0.00  0.00    +0.303 C 
ATOM      3  O2  UNL     1      11.622   3.415  23.760  0.00  0.00    -0.265 OA
ATOM      4  H10 UNL     1      10.627   2.835  20.731  0.00  0.00    +0.155 HD
ENDROOT
BRANCH   2   5
ATOM      5  C9  UNL     1      12.636   1.860  22.287  0.00  0.00    +0.302 C 
ATOM      6  O3  UNL     1      12.198   0.687  22.144  0.00  0.00    -0.265 OA
ATOM      7  N2  UNL     1      14.057   2.100  22.193  0.00  0.00    -0.294 N 
ATOM      8  C10 UNL     1      14.981   1.154  22.821  0.00  0.00    +0.108 C 
ATOM      9  C11 UNL     1      15.348   0.036  21.844  0.00  0.00    +0.022 C 
ATOM     10  C12 UNL     1      16.276   0.510  20.707  0.00  0.00    -0.012 C 
ATOM     11  C13 UNL     1      16.610  -0.685  19.802  0.00  0.00    +0.007 C 
ATOM     12  C14 UNL     1      15.655   1.652  19.858  0.00  0.00    +0.008 C 
ATOM     13  C15 UNL     1      15.676   3.065  20.501  0.00  0.00    +0.004 C 
ATOM     14  C16 UNL     1      17.069   3.486  21.001  0.00  0.00    +0.009 C 
ATOM     15  C17 UNL     1      14.570   3.324  21.560  0.00  0.00    +0.111 C 
ENDBRANCH   2   5
BRANCH   1  19
ATOM     16  C4  UNL     1       8.492   6.982  21.859  0.00  0.00    +0.215 A 
ATOM     17  C5  UNL     1       7.878   5.730  22.041  0.00  0.00    +0.069 A 
ATOM     18  C6  UNL     1       8.644   4.566  21.948  0.00  0.00    +0.030 A 
ATOM     19  C7  UNL     1      10.017   4.640  21.692  0.00  0.00    +0.052 A 
ATOM     20  C18 UNL     1      10.590   5.905  21.494  0.00  0.00    +0.138 A 
ATOM     21  N3  UNL     1       9.825   7.024  21.586  0.00  0.00    -0.219 NA
BRANCH  16  22
ATOM     22  O1  UNL     1       7.809   8.210  21.936  0.00  0.00    -0.474 OA
BRANCH  22  24
ATOM     23  C1  UNL     1       7.586   9.874  23.748  0.00  0.00    +0.051 C 
ATOM     24  C2  UNL     1       8.264   9.477  22.431  0.00  0.00    +0.169 C 
ATOM     25  C3  UNL     1       8.212  10.577  21.363  0.00  0.00    +0.051 C 
ENDBRANCH  22  24
ENDBRANCH  16  22
ENDBRANCH   1  19
TORSDOF 4
ENDMDL
MODEL 8
REMARK VINA RESULT:    -5.400      8.769     10.084
REMARK INTER + INTRA:          -7.243
REMARK INTER:                  -6.649
REMARK INTRA:                  -0.594
REMARK UNBOUND:                -0.581
REMARK  Name = /home/qwerty/github/datacon2025hack/step_04_hit_selection/docking/ligands/lig_234.pdb
REMARK  8 active torsions:
REMARK  status: ('A' for Active; 'I' for Inactive)
REMARK    1  A    between atoms: C1_1  and  C2_2
REMARK    2  A    between atoms: C2_2  and  C3_3
REMARK    3  A    between atoms: C2_2  and  O1_4
REMARK    4  A    between atoms: O1_4  and  C4_5
REMARK    5  A    between atoms: C7_8  and  N1_9
REMARK    6  A    between atoms: C8_10  and  C9_12
REMARK    7  A    between atoms: C12_17  and  C13_18
REMARK    8  A    between atoms: C15_20  and  C16_21
REMARK                            x       y       z     vdW  Elec       q    Type
REMARK                         _______ _______ _______ _____ _____    ______ ____
ROOT
ATOM      1  N1  UNL     1      14.922  15.792  29.215  0.00  0.00    -0.276 N 
ATOM      2  C8  UNL     1      14.527  14.708  30.073  0.00  0.00    +0.303 C 
ATOM      3  O2  UNL     1      15.401  14.033  30.682  0.00  0.00    -0.265 OA
ATOM      4  H10 UNL     1      14.215  16.525  28.984  0.00  0.00    +0.155 HD
ENDROOT
BRANCH   2   5
ATOM      5  C9  UNL     1      13.094  14.423  30.301  0.00  0.00    +0.302 C 
ATOM      6  O3  UNL     1      12.476  15.069  31.189  0.00  0.00    -0.265 OA
ATOM      7  N2  UNL     1      12.400  13.397  29.561  0.00  0.00    -0.294 N 
ATOM      8  C10 UNL     1      11.491  12.497  30.274  0.00  0.00    +0.108 C 
ATOM      9  C11 UNL     1      10.080  13.085  30.317  0.00  0.00    +0.022 C 
ATOM     10  C12 UNL     1       9.373  13.053  28.947  0.00  0.00    -0.012 C 
ATOM     11  C13 UNL     1       7.959  13.634  29.099  0.00  0.00    +0.007 C 
ATOM     12  C14 UNL     1      10.145  13.836  27.850  0.00  0.00    +0.008 C 
ATOM     13  C15 UNL     1      11.389  13.122  27.255  0.00  0.00    +0.004 C 
ATOM     14  C16 UNL     1      11.095  11.693  26.766  0.00  0.00    +0.009 C 
ATOM     15  C17 UNL     1      12.670  13.191  28.130  0.00  0.00    +0.111 C 
ENDBRANCH   2   5
BRANCH   1  19
ATOM     16  C4  UNL     1      18.856  16.420  27.768  0.00  0.00    +0.215 A 
ATOM     17  C5  UNL     1      18.408  17.104  28.912  0.00  0.00    +0.069 A 
ATOM     18  C6  UNL     1      17.111  16.888  29.382  0.00  0.00    +0.030 A 
ATOM     19  C7  UNL     1      16.264  15.985  28.733  0.00  0.00    +0.052 A 
ATOM     20  C18 UNL     1      16.737  15.337  27.582  0.00  0.00    +0.138 A 
ATOM     21  N3  UNL     1      18.002  15.566  27.141  0.00  0.00    -0.219 NA
BRANCH  16  22
ATOM     22  O1  UNL     1      20.143  16.566  27.219  0.00  0.00    -0.474 OA
BRANCH  22  24
ATOM     23  C1  UNL     1      21.668  15.246  28.644  0.00  0.00    +0.051 C 
ATOM     24  C2  UNL     1      21.248  15.650  27.226  0.00  0.00    +0.169 C 
ATOM     25  C3  UNL     1      22.416  16.133  26.358  0.00  0.00    +0.051 C 
ENDBRANCH  22  24
ENDBRANCH  16  22
ENDBRANCH   1  19
TORSDOF 4
ENDMDL
MODEL 9
REMARK VINA RESULT:    -5.377     13.716     16.612
REMARK INTER + INTRA:          -7.215
REMARK INTER:                  -6.644
REMARK INTRA:                  -0.570
REMARK UNBOUND:                -0.581
REMARK  Name = /home/qwerty/github/datacon2025hack/step_04_hit_selection/docking/ligands/lig_234.pdb
REMARK  8 active torsions:
REMARK  status: ('A' for Active; 'I' for Inactive)
REMARK    1  A    between atoms: C1_1  and  C2_2
REMARK    2  A    between atoms: C2_2  and  C3_3
REMARK    3  A    between atoms: C2_2  and  O1_4
REMARK    4  A    between atoms: O1_4  and  C4_5
REMARK    5  A    between atoms: C7_8  and  N1_9
REMARK    6  A    between atoms: C8_10  and  C9_12
REMARK    7  A    between atoms: C12_17  and  C13_18
REMARK    8  A    between atoms: C15_20  and  C16_21
REMARK                            x       y       z     vdW  Elec       q    Type
REMARK                         _______ _______ _______ _____ _____    ______ ____
ROOT
ATOM      1  N1  UNL     1      21.404   4.416  22.625  0.00  0.00    -0.276 N 
ATOM      2  C8  UNL     1      20.227   3.851  23.227  0.00  0.00    +0.303 C 
ATOM      3  O2  UNL     1      19.083   4.225  22.850  0.00  0.00    -0.265 OA
ATOM      4  H10 UNL     1      22.303   3.888  22.703  0.00  0.00    +0.155 HD
ENDROOT
BRANCH   2   5
ATOM      5  C9  UNL     1      20.348   2.781  24.240  0.00  0.00    +0.302 C 
ATOM      6  O3  UNL     1      20.431   1.584  23.858  0.00  0.00    -0.265 OA
ATOM      7  N2  UNL     1      20.333   3.073  25.654  0.00  0.00    -0.294 N 
ATOM      8  C10 UNL     1      19.546   2.220  26.548  0.00  0.00    +0.108 C 
ATOM      9  C11 UNL     1      20.387   1.043  27.043  0.00  0.00    +0.022 C 
ATOM     10  C12 UNL     1      21.471   1.462  28.057  0.00  0.00    -0.012 C 
ATOM     11  C13 UNL     1      22.238   0.213  28.516  0.00  0.00    +0.007 C 
ATOM     12  C14 UNL     1      22.466   2.505  27.479  0.00  0.00    +0.008 C 
ATOM     13  C15 UNL     1      21.946   3.965  27.392  0.00  0.00    +0.004 C 
ATOM     14  C16 UNL     1      21.359   4.483  28.716  0.00  0.00    +0.009 C 
ATOM     15  C17 UNL     1      21.018   4.262  26.182  0.00  0.00    +0.111 C 
ENDBRANCH   2   5
BRANCH   1  19
ATOM     16  C4  UNL     1      21.468   7.947  20.284  0.00  0.00    +0.215 A 
ATOM     17  C5  UNL     1      21.471   6.687  19.659  0.00  0.00    +0.069 A 
ATOM     18  C6  UNL     1      21.447   5.530  20.439  0.00  0.00    +0.030 A 
ATOM     19  C7  UNL     1      21.403   5.618  21.834  0.00  0.00    +0.052 A 
ATOM     20  C18 UNL     1      21.423   6.891  22.423  0.00  0.00    +0.138 A 
ATOM     21  N3  UNL     1      21.450   8.003  21.643  0.00  0.00    -0.219 NA
BRANCH  16  22
ATOM     22  O1  UNL     1      21.486   9.170  19.587  0.00  0.00    -0.474 OA
BRANCH  22  24
ATOM     23  C1  UNL     1      20.566  11.336  18.840  0.00  0.00    +0.051 C 
ATOM     24  C2  UNL     1      20.444   9.808  18.836  0.00  0.00    +0.169 C 
ATOM     25  C3  UNL     1      19.048   9.307  19.227  0.00  0.00    +0.051 C 
ENDBRANCH  22  24
ENDBRANCH  16  22
ENDBRANCH   1  19
TORSDOF 4
ENDMDL
