REMARK  Name = /home/qwerty/github/datacon2025hack/step_04_hit_selection/docking/ligands/lig_436.pdb
REMARK  5 active torsions:
REMARK  status: ('A' for Active; 'I' for Inactive)
REMARK    1  A    between atoms: C1_1  and  C2_2
REMARK    2  A    between atoms: C5_5  and  C6_6
REMARK    3  A    between atoms: C7_8  and  C8_9
REMARK    4  A    between atoms: C8_9  and  N2_10
REMARK    5  A    between atoms: C11_13  and  C12_14
REMARK                            x       y       z     vdW  Elec       q    Type
REMARK                         _______ _______ _______ _____ _____    ______ ____
ROOT
ATOM      1  C6  UNL     1       1.311  -0.898  -0.643  0.00  0.00    +0.109 A 
ATOM      2  N1  UNL     1       0.669  -1.175   0.514  0.00  0.00    -0.243 NA
ATOM      3  C7  UNL     1      -0.042  -2.333   0.449  0.00  0.00    +0.063 A 
ATOM      4  C14 UNL     1       0.033  -3.002  -0.770  0.00  0.00    +0.071 A 
ATOM      5  S1  UNL     1       1.016  -2.097  -1.789  0.00  0.00    -0.075 S 
ENDROOT
BRANCH   1  10
ATOM      6  C1  UNL     1       4.476   3.897  -1.433  0.00  0.00    +0.044 C 
ATOM      7  C2  UNL     1       3.638   2.669  -1.241  0.00  0.00    -0.050 A 
ATOM      8  C3  UNL     1       2.966   2.453  -0.029  0.00  0.00    +0.004 A 
ATOM      9  C4  UNL     1       2.210   1.293   0.162  0.00  0.00    +0.011 A 
ATOM     10  C5  UNL     1       2.124   0.322  -0.851  0.00  0.00    +0.007 A 
ATOM     11  C15 UNL     1       2.814   0.535  -2.058  0.00  0.00    +0.011 A 
ATOM     12  C16 UNL     1       3.570   1.695  -2.247  0.00  0.00    +0.004 A 
ENDBRANCH   1  10
BRANCH   3  13
ATOM     13  C8  UNL     1      -0.870  -2.823   1.610  0.00  0.00    +0.140 C 
BRANCH  13  14
ATOM     14  N2  UNL     1      -2.186  -2.151   1.737  0.00  0.00    -0.296 NA
ATOM     15  C9  UNL     1      -3.039  -2.303   0.551  0.00  0.00    +0.085 C 
ATOM     16  C10 UNL     1      -2.973  -1.010  -0.247  0.00  0.00    +0.029 C 
ATOM     17  C11 UNL     1      -2.423   0.042   0.715  0.00  0.00    +0.090 C 
ATOM     18  C13 UNL     1      -2.090  -0.710   2.008  0.00  0.00    +0.097 C 
BRANCH  17  19
ATOM     19  C12 UNL     1      -3.396   1.170   0.955  0.00  0.00    +0.215 C 
ATOM     20  N3  UNL     1      -2.979   2.528   0.805  0.00  0.00    -0.329 N 
ATOM     21  O1  UNL     1      -4.578   0.921   1.315  0.00  0.00    -0.276 OA
ATOM     22  H13 UNL     1      -3.654   3.306   0.979  0.00  0.00    +0.145 HD
ATOM     23  H14 UNL     1      -2.000   2.761   0.528  0.00  0.00    +0.145 HD
ENDBRANCH  17  19
ENDBRANCH  13  14
ENDBRANCH   3  13
TORSDOF 4
