REMARK  Name = /home/qwerty/github/datacon2025hack/step_04_hit_selection/docking/ligands/lig_98.pdb
REMARK  3 active torsions:
REMARK  status: ('A' for Active; 'I' for Inactive)
REMARK    1  A    between atoms: C1_2  and  C13_18
REMARK    2  A    between atoms: N1_3  and  C2_4
REMARK    3  A    between atoms: C6_9  and  C7_10
REMARK                            x       y       z     vdW  Elec       q    Type
REMARK                         _______ _______ _______ _____ _____    ______ ____
ROOT
ATOM      1  O1  UNL     1       0.804  -1.675  -0.533  0.00  0.00    -0.270 OA
ATOM      2  C1  UNL     1       1.434  -0.627  -0.224  0.00  0.00    +0.248 C 
ATOM      3  N1  UNL     1       0.741   0.634  -0.150  0.00  0.00    -0.281 N 
ATOM      4  H1  UNL     1       1.290   1.511  -0.018  0.00  0.00    +0.155 HD
ENDROOT
BRANCH   2   5
ATOM      5  C13 UNL     1       2.888  -0.721   0.050  0.00  0.00    +0.038 A 
ATOM      6  C14 UNL     1       3.418  -1.908   0.588  0.00  0.00    +0.015 A 
ATOM      7  C15 UNL     1       4.784  -2.024   0.853  0.00  0.00    +0.027 A 
ATOM      8  C16 UNL     1       5.651  -0.958   0.576  0.00  0.00    +0.049 A 
ATOM      9  N4  UNL     1       6.988  -1.065   0.832  0.00  0.00    -0.322 N 
ATOM     10  C17 UNL     1       7.848  -0.042   0.561  0.00  0.00    +0.249 A 
ATOM     11  O3  UNL     1       9.077  -0.170   0.808  0.00  0.00    -0.268 OA
ATOM     12  C18 UNL     1       7.371   1.151   0.010  0.00  0.00    +0.071 A 
ATOM     13  C19 UNL     1       6.009   1.288  -0.262  0.00  0.00    +0.015 A 
ATOM     14  C20 UNL     1       5.132   0.233   0.021  0.00  0.00    -0.001 A 
ATOM     15  C21 UNL     1       3.759   0.345  -0.242  0.00  0.00    +0.023 A 
ATOM     16  H11 UNL     1       7.370  -1.948   1.242  0.00  0.00    +0.169 HD
ENDBRANCH   2   5
BRANCH   3  17
ATOM     17  C2  UNL     1      -0.681   0.777  -0.311  0.00  0.00    +0.036 A 
ATOM     18  C3  UNL     1      -1.188   1.932  -0.962  0.00  0.00    +0.025 A 
ATOM     19  C4  UNL     1      -2.574   2.122  -1.116  0.00  0.00    +0.029 A 
ATOM     20  C5  UNL     1      -3.419   1.148  -0.595  0.00  0.00    +0.067 A 
ATOM     21  N2  UNL     1      -4.757   1.115  -0.607  0.00  0.00    -0.335 N 
ATOM     22  C6  UNL     1      -5.057  -0.035   0.050  0.00  0.00    +0.175 A 
ATOM     23  N3  UNL     1      -3.964  -0.723   0.474  0.00  0.00    -0.225 NA
ATOM     24  C11 UNL     1      -2.946   0.046   0.050  0.00  0.00    +0.091 A 
ATOM     25  C12 UNL     1      -1.582  -0.177   0.222  0.00  0.00    +0.053 A 
ATOM     26  H4  UNL     1      -5.409   1.817  -1.021  0.00  0.00    +0.167 HD
BRANCH  22  27
ATOM     27  C7  UNL     1      -6.429  -0.503   0.292  0.00  0.00    +0.170 A 
ATOM     28  C8  UNL     1      -7.592   0.131  -0.101  0.00  0.00    +0.053 A 
ATOM     29  C9  UNL     1      -8.620  -0.674   0.343  0.00  0.00    +0.042 A 
ATOM     30  C10 UNL     1      -8.022  -1.745   0.976  0.00  0.00    +0.196 A 
ATOM     31  O2  UNL     1      -6.716  -1.615   0.929  0.00  0.00    -0.460 OA
ENDBRANCH  22  27
ENDBRANCH   3  17
TORSDOF 3
