MODEL 1
REMARK VINA RESULT:    -7.020      0.000      0.000
REMARK INTER + INTRA:         -10.153
REMARK INTER:                  -9.072
REMARK INTRA:                  -1.081
REMARK UNBOUND:                -1.081
REMARK  Name = /home/qwerty/github/datacon2025hack/step_04_hit_selection/docking/ligands/lig_293.pdb
REMARK  7 active torsions:
REMARK  status: ('A' for Active; 'I' for Inactive)
REMARK    1  A    between atoms: C1_1  and  N1_2
REMARK    2  A    between atoms: N1_2  and  C2_3
REMARK    3  A    between atoms: N1_2  and  S1_4
REMARK    4  A    between atoms: S1_4  and  C3_7
REMARK    5  A    between atoms: C6_10  and  N2_11
REMARK    6  A    between atoms: C11_17  and  C12_18
REMARK    7  A    between atoms: N3_20  and  C13_21
REMARK                            x       y       z     vdW  Elec       q    Type
REMARK                         _______ _______ _______ _____ _____    ______ ____
ROOT
ATOM      1  C3  UNL     1      11.883   5.842  21.377  0.00  0.00    +0.106 A 
ATOM      2  C4  UNL     1      11.662   4.482  21.615  0.00  0.00    +0.030 A 
ATOM      3  C5  UNL     1      12.723   3.578  21.568  0.00  0.00    +0.026 A 
ATOM      4  C6  UNL     1      14.027   4.019  21.294  0.00  0.00    +0.042 A 
ATOM      5  C11 UNL     1      14.262   5.400  21.080  0.00  0.00    +0.060 A 
ATOM      6  C25 UNL     1      13.180   6.296  21.108  0.00  0.00    +0.043 A 
ENDROOT
BRANCH   4   7
ATOM      7  N2  UNL     1      15.078   3.046  21.150  0.00  0.00    -0.325 N 
ATOM      8  C7  UNL     1      15.385   2.452  19.848  0.00  0.00    +0.133 C 
ATOM      9  C8  UNL     1      15.454   0.928  19.997  0.00  0.00    +0.178 C 
ATOM     10  O3  UNL     1      16.348   0.565  21.035  0.00  0.00    -0.377 OA
ATOM     11  C9  UNL     1      15.859   1.029  22.281  0.00  0.00    +0.178 C 
ATOM     12  C10 UNL     1      15.824   2.560  22.313  0.00  0.00    +0.133 C 
ENDBRANCH   4   7
BRANCH   5  13
ATOM     13  C12 UNL     1      15.618   5.931  20.838  0.00  0.00    +0.250 C 
ATOM     14  O4  UNL     1      16.399   6.083  21.817  0.00  0.00    -0.270 OA
ATOM     15  N3  UNL     1      16.040   6.268  19.506  0.00  0.00    -0.281 N 
ATOM     16  H17 UNL     1      15.366   6.116  18.723  0.00  0.00    +0.155 HD
BRANCH  15  17
ATOM     17  C13 UNL     1      17.259   6.964  19.201  0.00  0.00    +0.034 A 
ATOM     18  C14 UNL     1      18.390   6.217  18.784  0.00  0.00    +0.025 A 
ATOM     19  C15 UNL     1      19.610   6.854  18.491  0.00  0.00    +0.028 A 
ATOM     20  C16 UNL     1      19.675   8.238  18.637  0.00  0.00    +0.048 A 
ATOM     21  N4  UNL     1      20.746   9.031  18.414  0.00  0.00    -0.354 N 
ATOM     22  C17 UNL     1      20.317  10.278  18.706  0.00  0.00    +0.047 A 
ATOM     23  C18 UNL     1      21.052  11.461  18.633  0.00  0.00    +0.026 A 
ATOM     24  C19 UNL     1      20.405  12.661  18.981  0.00  0.00    +0.002 A 
ATOM     25  C20 UNL     1      19.053  12.657  19.390  0.00  0.00    +0.001 A 
ATOM     26  C21 UNL     1      18.330  11.451  19.456  0.00  0.00    +0.010 A 
ATOM     27  C22 UNL     1      18.996  10.279  19.106  0.00  0.00    +0.007 A 
ATOM     28  C23 UNL     1      18.583   8.966  19.060  0.00  0.00    +0.009 A 
ATOM     29  C24 UNL     1      17.364   8.366  19.359  0.00  0.00    +0.034 A 
ATOM     30  H20 UNL     1      21.697   8.743  18.091  0.00  0.00    +0.166 HD
ENDBRANCH  15  17
ENDBRANCH   5  13
BRANCH   1  31
ATOM     31  S1  UNL     1      10.533   6.980  21.403  0.00  0.00    +0.060 S 
ATOM     32  O1  UNL     1       9.597   6.664  20.269  0.00  0.00    -0.153 OA
ATOM     33  O2  UNL     1       9.773   6.816  22.689  0.00  0.00    -0.153 OA
BRANCH  31  35
ATOM     34  C1  UNL     1      10.315   9.493  22.163  0.00  0.00    +0.131 C 
ATOM     35  N1  UNL     1      11.083   8.631  21.256  0.00  0.00    -0.183 NA
ATOM     36  C2  UNL     1      10.925   9.087  19.870  0.00  0.00    +0.131 C 
ENDBRANCH  31  35
ENDBRANCH   1  31
TORSDOF 5
ENDMDL
MODEL 2
REMARK VINA RESULT:    -6.963      9.797     13.994
REMARK INTER + INTRA:         -10.079
REMARK INTER:                  -8.728
REMARK INTRA:                  -1.351
REMARK UNBOUND:                -1.081
REMARK  Name = /home/qwerty/github/datacon2025hack/step_04_hit_selection/docking/ligands/lig_293.pdb
REMARK  7 active torsions:
REMARK  status: ('A' for Active; 'I' for Inactive)
REMARK    1  A    between atoms: C1_1  and  N1_2
REMARK    2  A    between atoms: N1_2  and  C2_3
REMARK    3  A    between atoms: N1_2  and  S1_4
REMARK    4  A    between atoms: S1_4  and  C3_7
REMARK    5  A    between atoms: C6_10  and  N2_11
REMARK    6  A    between atoms: C11_17  and  C12_18
REMARK    7  A    between atoms: N3_20  and  C13_21
REMARK                            x       y       z     vdW  Elec       q    Type
REMARK                         _______ _______ _______ _____ _____    ______ ____
ROOT
ATOM      1  C3  UNL     1      12.435  12.915  34.136  0.00  0.00    +0.106 A 
ATOM      2  C4  UNL     1      13.746  13.367  33.955  0.00  0.00    +0.030 A 
ATOM      3  C5  UNL     1      14.253  13.559  32.670  0.00  0.00    +0.026 A 
ATOM      4  C6  UNL     1      13.455  13.312  31.543  0.00  0.00    +0.042 A 
ATOM      5  C11 UNL     1      12.118  12.881  31.720  0.00  0.00    +0.060 A 
ATOM      6  C25 UNL     1      11.626  12.672  33.019  0.00  0.00    +0.043 A 
ENDROOT
BRANCH   4   7
ATOM      7  N2  UNL     1      14.045  13.420  30.233  0.00  0.00    -0.325 N 
ATOM      8  C7  UNL     1      14.031  14.688  29.501  0.00  0.00    +0.133 C 
ATOM      9  C8  UNL     1      13.519  14.437  28.078  0.00  0.00    +0.178 C 
ATOM     10  O3  UNL     1      14.259  13.404  27.452  0.00  0.00    -0.377 OA
ATOM     11  C9  UNL     1      14.053  12.178  28.132  0.00  0.00    +0.178 C 
ATOM     12  C10 UNL     1      14.609  12.250  29.558  0.00  0.00    +0.133 C 
ENDBRANCH   4   7
BRANCH   5  13
ATOM     13  C12 UNL     1      11.213  12.655  30.574  0.00  0.00    +0.250 C 
ATOM     14  O4  UNL     1      10.589  13.635  30.085  0.00  0.00    -0.270 OA
ATOM     15  N3  UNL     1      11.052  11.336  30.025  0.00  0.00    -0.281 N 
ATOM     16  H17 UNL     1      11.597  10.555  30.453  0.00  0.00    +0.155 HD
BRANCH  15  17
ATOM     17  C13 UNL     1      10.060  10.990  29.046  0.00  0.00    +0.034 A 
ATOM     18  C14 UNL     1       8.726  10.761  29.469  0.00  0.00    +0.025 A 
ATOM     19  C15 UNL     1       7.725  10.404  28.548  0.00  0.00    +0.028 A 
ATOM     20  C16 UNL     1       8.088  10.267  27.210  0.00  0.00    +0.048 A 
ATOM     21  N4  UNL     1       7.284   9.927  26.178  0.00  0.00    -0.354 N 
ATOM     22  C17 UNL     1       8.097   9.914  25.099  0.00  0.00    +0.047 A 
ATOM     23  C18 UNL     1       7.744   9.621  23.782  0.00  0.00    +0.026 A 
ATOM     24  C19 UNL     1       8.754   9.670  22.804  0.00  0.00    +0.002 A 
ATOM     25  C20 UNL     1      10.081  10.006  23.155  0.00  0.00    +0.001 A 
ATOM     26  C21 UNL     1      10.415  10.298  24.491  0.00  0.00    +0.010 A 
ATOM     27  C22 UNL     1       9.395  10.241  25.438  0.00  0.00    +0.007 A 
ATOM     28  C23 UNL     1       9.388  10.469  26.796  0.00  0.00    +0.009 A 
ATOM     29  C24 UNL     1      10.401  10.823  27.683  0.00  0.00    +0.034 A 
ATOM     30  H20 UNL     1       6.262   9.717  26.209  0.00  0.00    +0.166 HD
ENDBRANCH  15  17
ENDBRANCH   5  13
BRANCH   1  31
ATOM     31  S1  UNL     1      11.806  12.641  35.763  0.00  0.00    +0.060 S 
ATOM     32  O1  UNL     1      12.847  13.044  36.771  0.00  0.00    -0.153 OA
ATOM     33  O2  UNL     1      10.596  13.507  35.977  0.00  0.00    -0.153 OA
BRANCH  31  35
ATOM     34  C1  UNL     1      11.092  10.732  37.432  0.00  0.00    +0.131 C 
ATOM     35  N1  UNL     1      11.377  10.967  36.012  0.00  0.00    -0.183 NA
ATOM     36  C2  UNL     1      12.474  10.100  35.566  0.00  0.00    +0.131 C 
ENDBRANCH  31  35
ENDBRANCH   1  31
TORSDOF 5
ENDMDL
MODEL 3
REMARK VINA RESULT:    -6.921      7.611     11.546
REMARK INTER + INTRA:         -10.025
REMARK INTER:                  -9.000
REMARK INTRA:                  -1.025
REMARK UNBOUND:                -1.081
REMARK  Name = /home/qwerty/github/datacon2025hack/step_04_hit_selection/docking/ligands/lig_293.pdb
REMARK  7 active torsions:
REMARK  status: ('A' for Active; 'I' for Inactive)
REMARK    1  A    between atoms: C1_1  and  N1_2
REMARK    2  A    between atoms: N1_2  and  C2_3
REMARK    3  A    between atoms: N1_2  and  S1_4
REMARK    4  A    between atoms: S1_4  and  C3_7
REMARK    5  A    between atoms: C6_10  and  N2_11
REMARK    6  A    between atoms: C11_17  and  C12_18
REMARK    7  A    between atoms: N3_20  and  C13_21
REMARK                            x       y       z     vdW  Elec       q    Type
REMARK                         _______ _______ _______ _____ _____    ______ ____
ROOT
ATOM      1  C3  UNL     1      20.553   2.408  30.649  0.00  0.00    +0.106 A 
ATOM      2  C4  UNL     1      21.101   3.675  30.422  0.00  0.00    +0.030 A 
ATOM      3  C5  UNL     1      21.277   4.142  29.119  0.00  0.00    +0.026 A 
ATOM      4  C6  UNL     1      20.897   3.355  28.020  0.00  0.00    +0.042 A 
ATOM      5  C11 UNL     1      20.315   2.083  28.245  0.00  0.00    +0.060 A 
ATOM      6  C25 UNL     1      20.164   1.617  29.561  0.00  0.00    +0.043 A 
ENDROOT
BRANCH   4   7
ATOM      7  N2  UNL     1      21.190   3.825  26.691  0.00  0.00    -0.325 N 
ATOM      8  C7  UNL     1      22.518   3.645  26.102  0.00  0.00    +0.133 C 
ATOM      9  C8  UNL     1      22.994   4.983  25.525  0.00  0.00    +0.178 C 
ATOM     10  O3  UNL     1      22.026   5.522  24.641  0.00  0.00    -0.377 OA
ATOM     11  C9  UNL     1      20.841   5.835  25.352  0.00  0.00    +0.178 C 
ATOM     12  C10 UNL     1      20.194   4.565  25.914  0.00  0.00    +0.133 C 
ENDBRANCH   4   7
BRANCH   5  13
ATOM     13  C12 UNL     1      19.849   1.232  27.132  0.00  0.00    +0.250 C 
ATOM     14  O4  UNL     1      20.694   0.563  26.477  0.00  0.00    -0.270 OA
ATOM     15  N3  UNL     1      18.451   1.168  26.803  0.00  0.00    -0.281 N 
ATOM     16  H17 UNL     1      17.784   1.729  27.378  0.00  0.00    +0.155 HD
BRANCH  15  17
ATOM     17  C13 UNL     1      17.931   0.525  25.629  0.00  0.00    +0.034 A 
ATOM     18  C14 UNL     1      17.809  -0.888  25.616  0.00  0.00    +0.025 A 
ATOM     19  C15 UNL     1      17.320  -1.562  24.482  0.00  0.00    +0.028 A 
ATOM     20  C16 UNL     1      16.974  -0.800  23.369  0.00  0.00    +0.048 A 
ATOM     21  N4  UNL     1      16.496  -1.253  22.188  0.00  0.00    -0.354 N 
ATOM     22  C17 UNL     1      16.331  -0.143  21.436  0.00  0.00    +0.047 A 
ATOM     23  C18 UNL     1      15.856  -0.076  20.127  0.00  0.00    +0.026 A 
ATOM     24  C19 UNL     1      15.758   1.193  19.527  0.00  0.00    +0.002 A 
ATOM     25  C20 UNL     1      16.133   2.356  20.236  0.00  0.00    +0.001 A 
ATOM     26  C21 UNL     1      16.611   2.264  21.557  0.00  0.00    +0.010 A 
ATOM     27  C22 UNL     1      16.697   0.996  22.126  0.00  0.00    +0.007 A 
ATOM     28  C23 UNL     1      17.109   0.572  23.369  0.00  0.00    +0.009 A 
ATOM     29  C24 UNL     1      17.590   1.268  24.474  0.00  0.00    +0.034 A 
ATOM     30  H20 UNL     1      16.300  -2.243  21.917  0.00  0.00    +0.166 HD
ENDBRANCH  15  17
ENDBRANCH   5  13
BRANCH   1  31
ATOM     31  S1  UNL     1      20.362   1.806  32.297  0.00  0.00    +0.060 S 
ATOM     32  O1  UNL     1      20.578   0.317  32.309  0.00  0.00    -0.153 OA
ATOM     33  O2  UNL     1      21.407   2.432  33.177  0.00  0.00    -0.153 OA
BRANCH  31  35
ATOM     34  C1  UNL     1      18.869   2.471  34.364  0.00  0.00    +0.131 C 
ATOM     35  N1  UNL     1      18.775   2.164  32.932  0.00  0.00    -0.183 NA
ATOM     36  C2  UNL     1      17.883   1.018  32.719  0.00  0.00    +0.131 C 
ENDBRANCH  31  35
ENDBRANCH   1  31
TORSDOF 5
ENDMDL
MODEL 4
REMARK VINA RESULT:    -6.915      8.474     11.267
REMARK INTER + INTRA:         -10.017
REMARK INTER:                  -8.721
REMARK INTRA:                  -1.295
REMARK UNBOUND:                -1.081
REMARK  Name = /home/qwerty/github/datacon2025hack/step_04_hit_selection/docking/ligands/lig_293.pdb
REMARK  7 active torsions:
REMARK  status: ('A' for Active; 'I' for Inactive)
REMARK    1  A    between atoms: C1_1  and  N1_2
REMARK    2  A    between atoms: N1_2  and  C2_3
REMARK    3  A    between atoms: N1_2  and  S1_4
REMARK    4  A    between atoms: S1_4  and  C3_7
REMARK    5  A    between atoms: C6_10  and  N2_11
REMARK    6  A    between atoms: C11_17  and  C12_18
REMARK    7  A    between atoms: N3_20  and  C13_21
REMARK                            x       y       z     vdW  Elec       q    Type
REMARK                         _______ _______ _______ _____ _____    ______ ____
ROOT
ATOM      1  C3  UNL     1      17.701  -0.135  24.681  0.00  0.00    +0.106 A 
ATOM      2  C4  UNL     1      17.504   0.737  23.606  0.00  0.00    +0.030 A 
ATOM      3  C5  UNL     1      18.138   1.979  23.582  0.00  0.00    +0.026 A 
ATOM      4  C6  UNL     1      18.990   2.367  24.627  0.00  0.00    +0.042 A 
ATOM      5  C11 UNL     1      19.216   1.477  25.705  0.00  0.00    +0.060 A 
ATOM      6  C25 UNL     1      18.555   0.238  25.728  0.00  0.00    +0.043 A 
ENDROOT
BRANCH   4   7
ATOM      7  N2  UNL     1      19.544   3.697  24.620  0.00  0.00    -0.325 N 
ATOM      8  C7  UNL     1      20.843   3.969  24.002  0.00  0.00    +0.133 C 
ATOM      9  C8  UNL     1      21.705   4.770  24.984  0.00  0.00    +0.178 C 
ATOM     10  O3  UNL     1      21.014   5.922  25.436  0.00  0.00    -0.377 OA
ATOM     11  C9  UNL     1      19.872   5.542  26.183  0.00  0.00    +0.178 C 
ATOM     12  C10 UNL     1      18.865   4.803  25.295  0.00  0.00    +0.133 C 
ENDBRANCH   4   7
BRANCH   5  13
ATOM     13  C12 UNL     1      20.142   1.807  26.808  0.00  0.00    +0.250 C 
ATOM     14  O4  UNL     1      21.368   1.542  26.678  0.00  0.00    -0.270 OA
ATOM     15  N3  UNL     1      19.649   2.423  28.010  0.00  0.00    -0.281 N 
ATOM     16  H17 UNL     1      18.629   2.635  28.072  0.00  0.00    +0.155 HD
BRANCH  15  17
ATOM     17  C13 UNL     1      20.434   2.603  29.200  0.00  0.00    +0.034 A 
ATOM     18  C14 UNL     1      20.696   1.482  30.027  0.00  0.00    +0.025 A 
ATOM     19  C15 UNL     1      21.445   1.614  31.210  0.00  0.00    +0.028 A 
ATOM     20  C16 UNL     1      21.909   2.882  31.550  0.00  0.00    +0.048 A 
ATOM     21  N4  UNL     1      22.634   3.220  32.639  0.00  0.00    -0.354 N 
ATOM     22  C17 UNL     1      22.822   4.553  32.528  0.00  0.00    +0.047 A 
ATOM     23  C18 UNL     1      23.516   5.383  33.408  0.00  0.00    +0.026 A 
ATOM     24  C19 UNL     1      23.594   6.753  33.098  0.00  0.00    +0.002 A 
ATOM     25  C20 UNL     1      22.984   7.262  31.930  0.00  0.00    +0.001 A 
ATOM     26  C21 UNL     1      22.287   6.407  31.056  0.00  0.00    +0.010 A 
ATOM     27  C22 UNL     1      22.226   5.055  31.389  0.00  0.00    +0.007 A 
ATOM     28  C23 UNL     1      21.641   3.980  30.759  0.00  0.00    +0.009 A 
ATOM     29  C24 UNL     1      20.901   3.882  29.584  0.00  0.00    +0.034 A 
ATOM     30  H20 UNL     1      22.973   2.589  33.400  0.00  0.00    +0.166 HD
ENDBRANCH  15  17
ENDBRANCH   5  13
BRANCH   1  31
ATOM     31  S1  UNL     1      16.871  -1.693  24.726  0.00  0.00    +0.060 S 
ATOM     32  O1  UNL     1      16.359  -2.020  23.351  0.00  0.00    -0.153 OA
ATOM     33  O2  UNL     1      17.849  -2.763  25.122  0.00  0.00    -0.153 OA
BRANCH  31  35
ATOM     34  C1  UNL     1      14.606  -2.767  25.536  0.00  0.00    +0.131 C 
ATOM     35  N1  UNL     1      15.537  -1.677  25.852  0.00  0.00    -0.183 NA
ATOM     36  C2  UNL     1      14.844  -0.384  25.785  0.00  0.00    +0.131 C 
ENDBRANCH  31  35
ENDBRANCH   1  31
TORSDOF 5
ENDMDL
MODEL 5
REMARK VINA RESULT:    -6.899      7.320     11.560
REMARK INTER + INTRA:          -9.996
REMARK INTER:                  -8.650
REMARK INTRA:                  -1.346
REMARK UNBOUND:                -1.081
REMARK  Name = /home/qwerty/github/datacon2025hack/step_04_hit_selection/docking/ligands/lig_293.pdb
REMARK  7 active torsions:
REMARK  status: ('A' for Active; 'I' for Inactive)
REMARK    1  A    between atoms: C1_1  and  N1_2
REMARK    2  A    between atoms: N1_2  and  C2_3
REMARK    3  A    between atoms: N1_2  and  S1_4
REMARK    4  A    between atoms: S1_4  and  C3_7
REMARK    5  A    between atoms: C6_10  and  N2_11
REMARK    6  A    between atoms: C11_17  and  C12_18
REMARK    7  A    between atoms: N3_20  and  C13_21
REMARK                            x       y       z     vdW  Elec       q    Type
REMARK                         _______ _______ _______ _____ _____    ______ ____
ROOT
ATOM      1  C3  UNL     1       9.143   8.893  23.233  0.00  0.00    +0.106 A 
ATOM      2  C4  UNL     1       8.810   7.549  23.430  0.00  0.00    +0.030 A 
ATOM      3  C5  UNL     1       8.613   7.056  24.720  0.00  0.00    +0.026 A 
ATOM      4  C6  UNL     1       8.735   7.899  25.835  0.00  0.00    +0.042 A 
ATOM      5  C11 UNL     1       9.044   9.268  25.639  0.00  0.00    +0.060 A 
ATOM      6  C25 UNL     1       9.261   9.747  24.337  0.00  0.00    +0.043 A 
ENDROOT
BRANCH   4   7
ATOM      7  N2  UNL     1       8.627   7.333  27.154  0.00  0.00    -0.325 N 
ATOM      8  C7  UNL     1       7.332   7.227  27.827  0.00  0.00    +0.133 C 
ATOM      9  C8  UNL     1       7.457   7.796  29.245  0.00  0.00    +0.178 C 
ATOM     10  O3  UNL     1       8.532   7.186  29.938  0.00  0.00    -0.377 OA
ATOM     11  C9  UNL     1       9.760   7.507  29.309  0.00  0.00    +0.178 C 
ATOM     12  C10 UNL     1       9.817   6.914  27.897  0.00  0.00    +0.133 C 
ENDBRANCH   4   7
BRANCH   5  13
ATOM     13  C12 UNL     1       9.135  10.215  26.768  0.00  0.00    +0.250 C 
ATOM     14  O4  UNL     1       8.076  10.726  27.225  0.00  0.00    -0.270 OA
ATOM     15  N3  UNL     1      10.412  10.547  27.337  0.00  0.00    -0.281 N 
ATOM     16  H17 UNL     1      11.263  10.093  26.936  0.00  0.00    +0.155 HD
BRANCH  15  17
ATOM     17  C13 UNL     1      10.615  11.593  28.300  0.00  0.00    +0.034 A 
ATOM     18  C14 UNL     1      10.667  12.938  27.854  0.00  0.00    +0.025 A 
ATOM     19  C15 UNL     1      10.880  13.994  28.759  0.00  0.00    +0.028 A 
ATOM     20  C16 UNL     1      11.053  13.676  30.104  0.00  0.00    +0.048 A 
ATOM     21  N4  UNL     1      11.275  14.535  31.122  0.00  0.00    -0.354 N 
ATOM     22  C17 UNL     1      11.388  13.750  32.216  0.00  0.00    +0.047 A 
ATOM     23  C18 UNL     1      11.621  14.162  33.528  0.00  0.00    +0.026 A 
ATOM     24  C19 UNL     1      11.700  13.171  34.524  0.00  0.00    +0.002 A 
ATOM     25  C20 UNL     1      11.547  11.806  34.195  0.00  0.00    +0.001 A 
ATOM     26  C21 UNL     1      11.313  11.413  32.864  0.00  0.00    +0.010 A 
ATOM     27  C22 UNL     1      11.240  12.415  31.899  0.00  0.00    +0.007 A 
ATOM     28  C23 UNL     1      11.024  12.368  30.540  0.00  0.00    +0.009 A 
ATOM     29  C24 UNL     1      10.816  11.301  29.670  0.00  0.00    +0.034 A 
ATOM     30  H20 UNL     1      11.347  15.576  31.074  0.00  0.00    +0.166 HD
ENDBRANCH  15  17
ENDBRANCH   5  13
BRANCH   1  31
ATOM     31  S1  UNL     1       9.425   9.508  21.602  0.00  0.00    +0.060 S 
ATOM     32  O1  UNL     1       9.123   8.423  20.604  0.00  0.00    -0.153 OA
ATOM     33  O2  UNL     1       8.489  10.654  21.337  0.00  0.00    -0.153 OA
BRANCH  31  35
ATOM     34  C1  UNL     1      11.301  10.425  19.994  0.00  0.00    +0.131 C 
ATOM     35  N1  UNL     1      11.075  10.042  21.394  0.00  0.00    -0.183 NA
ATOM     36  C2  UNL     1      11.999   8.969  21.780  0.00  0.00    +0.131 C 
ENDBRANCH  31  35
ENDBRANCH   1  31
TORSDOF 5
ENDMDL
MODEL 6
REMARK VINA RESULT:    -6.876      6.301      9.932
REMARK INTER + INTRA:          -9.967
REMARK INTER:                  -8.723
REMARK INTRA:                  -1.245
REMARK UNBOUND:                -1.081
REMARK  Name = /home/qwerty/github/datacon2025hack/step_04_hit_selection/docking/ligands/lig_293.pdb
REMARK  7 active torsions:
REMARK  status: ('A' for Active; 'I' for Inactive)
REMARK    1  A    between atoms: C1_1  and  N1_2
REMARK    2  A    between atoms: N1_2  and  C2_3
REMARK    3  A    between atoms: N1_2  and  S1_4
REMARK    4  A    between atoms: S1_4  and  C3_7
REMARK    5  A    between atoms: C6_10  and  N2_11
REMARK    6  A    between atoms: C11_17  and  C12_18
REMARK    7  A    between atoms: N3_20  and  C13_21
REMARK                            x       y       z     vdW  Elec       q    Type
REMARK                         _______ _______ _______ _____ _____    ______ ____
ROOT
ATOM      1  C3  UNL     1       8.278  11.591  28.538  0.00  0.00    +0.106 A 
ATOM      2  C4  UNL     1       7.569  10.803  29.450  0.00  0.00    +0.030 A 
ATOM      3  C5  UNL     1       7.524   9.417  29.296  0.00  0.00    +0.026 A 
ATOM      4  C6  UNL     1       8.196   8.794  28.233  0.00  0.00    +0.042 A 
ATOM      5  C11 UNL     1       8.939   9.584  27.323  0.00  0.00    +0.060 A 
ATOM      6  C25 UNL     1       8.959  10.980  27.477  0.00  0.00    +0.043 A 
ENDROOT
BRANCH   4   7
ATOM      7  N2  UNL     1       8.041   7.375  28.046  0.00  0.00    -0.325 N 
ATOM      8  C7  UNL     1       8.886   6.421  28.767  0.00  0.00    +0.133 C 
ATOM      9  C8  UNL     1       9.461   5.409  27.770  0.00  0.00    +0.178 C 
ATOM     10  O3  UNL     1       8.427   4.817  27.003  0.00  0.00    -0.377 OA
ATOM     11  C9  UNL     1       7.795   5.797  26.200  0.00  0.00    +0.178 C 
ATOM     12  C10 UNL     1       7.088   6.839  27.073  0.00  0.00    +0.133 C 
ENDBRANCH   4   7
BRANCH   5  13
ATOM     13  C12 UNL     1       9.710   8.982  26.216  0.00  0.00    +0.250 C 
ATOM     14  O4  UNL     1      10.840   8.480  26.460  0.00  0.00    -0.270 OA
ATOM     15  N3  UNL     1       9.175   8.968  24.882  0.00  0.00    -0.281 N 
ATOM     16  H17 UNL     1       8.230   9.384  24.726  0.00  0.00    +0.155 HD
BRANCH  15  17
ATOM     17  C13 UNL     1       9.925   8.581  23.720  0.00  0.00    +0.034 A 
ATOM     18  C14 UNL     1      10.360   9.584  22.817  0.00  0.00    +0.025 A 
ATOM     19  C15 UNL     1      11.083   9.250  21.658  0.00  0.00    +0.028 A 
ATOM     20  C16 UNL     1      11.345   7.903  21.417  0.00  0.00    +0.048 A 
ATOM     21  N4  UNL     1      12.012   7.378  20.365  0.00  0.00    -0.354 N 
ATOM     22  C17 UNL     1      11.989   6.044  20.576  0.00  0.00    +0.047 A 
ATOM     23  C18 UNL     1      12.549   5.054  19.768  0.00  0.00    +0.026 A 
ATOM     24  C19 UNL     1      12.412   3.715  20.178  0.00  0.00    +0.002 A 
ATOM     25  C20 UNL     1      11.727   3.394  21.371  0.00  0.00    +0.001 A 
ATOM     26  C21 UNL     1      11.169   4.410  22.171  0.00  0.00    +0.010 A 
ATOM     27  C22 UNL     1      11.320   5.726  21.740  0.00  0.00    +0.007 A 
ATOM     28  C23 UNL     1      10.907   6.922  22.281  0.00  0.00    +0.009 A 
ATOM     29  C24 UNL     1      10.189   7.220  23.436  0.00  0.00    +0.034 A 
ATOM     30  H20 UNL     1      12.446   7.891  19.565  0.00  0.00    +0.166 HD
ENDBRANCH  15  17
ENDBRANCH   5  13
BRANCH   1  31
ATOM     31  S1  UNL     1       8.307  13.348  28.716  0.00  0.00    +0.060 S 
ATOM     32  O1  UNL     1       7.885  13.983  27.419  0.00  0.00    -0.153 OA
ATOM     33  O2  UNL     1       7.319  13.754  29.773  0.00  0.00    -0.153 OA
BRANCH  31  35
ATOM     34  C1  UNL     1      10.720  14.072  27.944  0.00  0.00    +0.131 C 
ATOM     35  N1  UNL     1       9.897  13.923  29.151  0.00  0.00    -0.183 NA
ATOM     36  C2  UNL     1      10.530  12.981  30.081  0.00  0.00    +0.131 C 
ENDBRANCH  31  35
ENDBRANCH   1  31
TORSDOF 5
ENDMDL
MODEL 7
REMARK VINA RESULT:    -6.856     10.362     13.313
REMARK INTER + INTRA:          -9.941
REMARK INTER:                  -8.802
REMARK INTRA:                  -1.139
REMARK UNBOUND:                -1.081
REMARK  Name = /home/qwerty/github/datacon2025hack/step_04_hit_selection/docking/ligands/lig_293.pdb
REMARK  7 active torsions:
REMARK  status: ('A' for Active; 'I' for Inactive)
REMARK    1  A    between atoms: C1_1  and  N1_2
REMARK    2  A    between atoms: N1_2  and  C2_3
REMARK    3  A    between atoms: N1_2  and  S1_4
REMARK    4  A    between atoms: S1_4  and  C3_7
REMARK    5  A    between atoms: C6_10  and  N2_11
REMARK    6  A    between atoms: C11_17  and  C12_18
REMARK    7  A    between atoms: N3_20  and  C13_21
REMARK                            x       y       z     vdW  Elec       q    Type
REMARK                         _______ _______ _______ _____ _____    ______ ____
ROOT
ATOM      1  C3  UNL     1      22.578   5.955  32.946  0.00  0.00    +0.106 A 
ATOM      2  C4  UNL     1      22.235   5.111  34.006  0.00  0.00    +0.030 A 
ATOM      3  C5  UNL     1      21.469   3.968  33.776  0.00  0.00    +0.026 A 
ATOM      4  C6  UNL     1      21.043   3.643  32.479  0.00  0.00    +0.042 A 
ATOM      5  C11 UNL     1      21.412   4.479  31.397  0.00  0.00    +0.060 A 
ATOM      6  C25 UNL     1      22.165   5.638  31.646  0.00  0.00    +0.043 A 
ENDROOT
BRANCH   4   7
ATOM      7  N2  UNL     1      20.168   2.514  32.294  0.00  0.00    -0.325 N 
ATOM      8  C7  UNL     1      20.704   1.161  32.139  0.00  0.00    +0.133 C 
ATOM      9  C8  UNL     1      20.056   0.503  30.916  0.00  0.00    +0.178 C 
ATOM     10  O3  UNL     1      18.643   0.571  30.997  0.00  0.00    -0.377 OA
ATOM     11  C9  UNL     1      18.219   1.922  30.950  0.00  0.00    +0.178 C 
ATOM     12  C10 UNL     1      18.719   2.691  32.177  0.00  0.00    +0.133 C 
ENDBRANCH   4   7
BRANCH   5  13
ATOM     13  C12 UNL     1      21.038   4.161  30.003  0.00  0.00    +0.250 C 
ATOM     14  O4  UNL     1      20.002   4.688  29.513  0.00  0.00    -0.270 OA
ATOM     15  N3  UNL     1      21.845   3.267  29.220  0.00  0.00    -0.281 N 
ATOM     16  H17 UNL     1      22.701   2.862  29.661  0.00  0.00    +0.155 HD
BRANCH  15  17
ATOM     17  C13 UNL     1      21.460   2.754  27.935  0.00  0.00    +0.034 A 
ATOM     18  C14 UNL     1      22.270   3.046  26.808  0.00  0.00    +0.025 A 
ATOM     19  C15 UNL     1      21.923   2.580  25.527  0.00  0.00    +0.028 A 
ATOM     20  C16 UNL     1      20.753   1.834  25.398  0.00  0.00    +0.048 A 
ATOM     21  N4  UNL     1      20.245   1.305  24.263  0.00  0.00    -0.354 N 
ATOM     22  C17 UNL     1      19.104   0.693  24.651  0.00  0.00    +0.047 A 
ATOM     23  C18 UNL     1      18.208  -0.007  23.844  0.00  0.00    +0.026 A 
ATOM     24  C19 UNL     1      17.076  -0.574  24.456  0.00  0.00    +0.002 A 
ATOM     25  C20 UNL     1      16.861  -0.432  25.845  0.00  0.00    +0.001 A 
ATOM     26  C21 UNL     1      17.779   0.281  26.640  0.00  0.00    +0.010 A 
ATOM     27  C22 UNL     1      18.891   0.831  26.007  0.00  0.00    +0.007 A 
ATOM     28  C23 UNL     1      19.953   1.564  26.488  0.00  0.00    +0.009 A 
ATOM     29  C24 UNL     1      20.267   2.012  27.767  0.00  0.00    +0.034 A 
ATOM     30  H20 UNL     1      20.645   1.360  23.300  0.00  0.00    +0.166 HD
ENDBRANCH  15  17
ENDBRANCH   5  13
BRANCH   1  31
ATOM     31  S1  UNL     1      23.519   7.419  33.245  0.00  0.00    +0.060 S 
ATOM     32  O1  UNL     1      24.766   7.060  34.005  0.00  0.00    -0.153 OA
ATOM     33  O2  UNL     1      23.935   8.017  31.930  0.00  0.00    -0.153 OA
BRANCH  31  35
ATOM     34  C1  UNL     1      22.498   8.165  35.557  0.00  0.00    +0.131 C 
ATOM     35  N1  UNL     1      22.605   8.595  34.157  0.00  0.00    -0.183 NA
ATOM     36  C2  UNL     1      21.268   8.749  33.571  0.00  0.00    +0.131 C 
ENDBRANCH  31  35
ENDBRANCH   1  31
TORSDOF 5
ENDMDL
MODEL 8
REMARK VINA RESULT:    -6.808      8.717     11.825
REMARK INTER + INTRA:          -9.880
REMARK INTER:                  -8.857
REMARK INTRA:                  -1.023
REMARK UNBOUND:                -1.081
REMARK  Name = /home/qwerty/github/datacon2025hack/step_04_hit_selection/docking/ligands/lig_293.pdb
REMARK  7 active torsions:
REMARK  status: ('A' for Active; 'I' for Inactive)
REMARK    1  A    between atoms: C1_1  and  N1_2
REMARK    2  A    between atoms: N1_2  and  C2_3
REMARK    3  A    between atoms: N1_2  and  S1_4
REMARK    4  A    between atoms: S1_4  and  C3_7
REMARK    5  A    between atoms: C6_10  and  N2_11
REMARK    6  A    between atoms: C11_17  and  C12_18
REMARK    7  A    between atoms: N3_20  and  C13_21
REMARK                            x       y       z     vdW  Elec       q    Type
REMARK                         _______ _______ _______ _____ _____    ______ ____
ROOT
ATOM      1  C3  UNL     1      11.367  12.830  29.329  0.00  0.00    +0.106 A 
ATOM      2  C4  UNL     1      11.060  12.119  30.494  0.00  0.00    +0.030 A 
ATOM      3  C5  UNL     1      10.208  11.016  30.440  0.00  0.00    +0.026 A 
ATOM      4  C6  UNL     1       9.657  10.597  29.220  0.00  0.00    +0.042 A 
ATOM      5  C11 UNL     1       9.987  11.296  28.033  0.00  0.00    +0.060 A 
ATOM      6  C25 UNL     1      10.829  12.418  28.104  0.00  0.00    +0.043 A 
ENDROOT
BRANCH   4   7
ATOM      7  N2  UNL     1       8.700   9.520  29.218  0.00  0.00    -0.325 N 
ATOM      8  C7  UNL     1       7.304   9.750  29.595  0.00  0.00    +0.133 C 
ATOM      9  C8  UNL     1       6.885   8.695  30.625  0.00  0.00    +0.178 C 
ATOM     10  O3  UNL     1       7.159   7.390  30.148  0.00  0.00    -0.377 OA
ATOM     11  C9  UNL     1       8.556   7.211  29.995  0.00  0.00    +0.178 C 
ATOM     12  C10 UNL     1       9.107   8.147  28.915  0.00  0.00    +0.133 C 
ENDBRANCH   4   7
BRANCH   5  13
ATOM     13  C12 UNL     1       9.480  10.871  26.712  0.00  0.00    +0.250 C 
ATOM     14  O4  UNL     1       8.264  11.055  26.436  0.00  0.00    -0.270 OA
ATOM     15  N3  UNL     1      10.363  10.259  25.757  0.00  0.00    -0.281 N 
ATOM     16  H17 UNL     1      11.366  10.136  26.022  0.00  0.00    +0.155 HD
BRANCH  15  17
ATOM     17  C13 UNL     1       9.924   9.646  24.534  0.00  0.00    +0.034 A 
ATOM     18  C14 UNL     1       9.953  10.404  23.337  0.00  0.00    +0.025 A 
ATOM     19  C15 UNL     1       9.518   9.851  22.119  0.00  0.00    +0.028 A 
ATOM     20  C16 UNL     1       9.043   8.541  22.130  0.00  0.00    +0.048 A 
ATOM     21  N4  UNL     1       8.576   7.835  21.076  0.00  0.00    -0.354 N 
ATOM     22  C17 UNL     1       8.228   6.636  21.594  0.00  0.00    +0.047 A 
ATOM     23  C18 UNL     1       7.691   5.547  20.909  0.00  0.00    +0.026 A 
ATOM     24  C19 UNL     1       7.402   4.384  21.645  0.00  0.00    +0.002 A 
ATOM     25  C20 UNL     1       7.651   4.331  23.035  0.00  0.00    +0.001 A 
ATOM     26  C21 UNL     1       8.193   5.443  23.706  0.00  0.00    +0.010 A 
ATOM     27  C22 UNL     1       8.469   6.581  22.952  0.00  0.00    +0.007 A 
ATOM     28  C23 UNL     1       8.995   7.806  23.296  0.00  0.00    +0.009 A 
ATOM     29  C24 UNL     1       9.418   8.325  24.516  0.00  0.00    +0.034 A 
ATOM     30  H20 UNL     1       8.499   8.148  20.083  0.00  0.00    +0.166 HD
ENDBRANCH  15  17
ENDBRANCH   5  13
BRANCH   1  31
ATOM     31  S1  UNL     1      12.419  14.246  29.404  0.00  0.00    +0.060 S 
ATOM     32  O1  UNL     1      11.912  15.291  28.448  0.00  0.00    -0.153 OA
ATOM     33  O2  UNL     1      12.371  14.826  30.790  0.00  0.00    -0.153 OA
BRANCH  31  35
ATOM     34  C1  UNL     1      14.962  14.236  30.094  0.00  0.00    +0.131 C 
ATOM     35  N1  UNL     1      14.069  13.842  28.998  0.00  0.00    -0.183 NA
ATOM     36  C2  UNL     1      14.458  14.525  27.758  0.00  0.00    +0.131 C 
ENDBRANCH  31  35
ENDBRANCH   1  31
TORSDOF 5
ENDMDL
MODEL 9
REMARK VINA RESULT:    -6.650     11.547     13.996
REMARK INTER + INTRA:          -9.674
REMARK INTER:                  -8.767
REMARK INTRA:                  -0.907
REMARK UNBOUND:                -1.081
REMARK  Name = /home/qwerty/github/datacon2025hack/step_04_hit_selection/docking/ligands/lig_293.pdb
REMARK  7 active torsions:
REMARK  status: ('A' for Active; 'I' for Inactive)
REMARK    1  A    between atoms: C1_1  and  N1_2
REMARK    2  A    between atoms: N1_2  and  C2_3
REMARK    3  A    between atoms: N1_2  and  S1_4
REMARK    4  A    between atoms: S1_4  and  C3_7
REMARK    5  A    between atoms: C6_10  and  N2_11
REMARK    6  A    between atoms: C11_17  and  C12_18
REMARK    7  A    between atoms: N3_20  and  C13_21
REMARK                            x       y       z     vdW  Elec       q    Type
REMARK                         _______ _______ _______ _____ _____    ______ ____
ROOT
ATOM      1  C3  UNL     1      10.186  13.428  28.633  0.00  0.00    +0.106 A 
ATOM      2  C4  UNL     1      10.896  13.331  27.432  0.00  0.00    +0.030 A 
ATOM      3  C5  UNL     1      12.284  13.468  27.423  0.00  0.00    +0.026 A 
ATOM      4  C6  UNL     1      12.988  13.694  28.615  0.00  0.00    +0.042 A 
ATOM      5  C11 UNL     1      12.278  13.764  29.838  0.00  0.00    +0.060 A 
ATOM      6  C25 UNL     1      10.878  13.646  29.831  0.00  0.00    +0.043 A 
ENDROOT
BRANCH   4   7
ATOM      7  N2  UNL     1      14.407  13.934  28.554  0.00  0.00    -0.325 N 
ATOM      8  C7  UNL     1      14.937  15.292  28.418  0.00  0.00    +0.133 C 
ATOM      9  C8  UNL     1      15.966  15.315  27.282  0.00  0.00    +0.178 C 
ATOM     10  O3  UNL     1      16.951  14.315  27.475  0.00  0.00    -0.377 OA
ATOM     11  C9  UNL     1      16.359  13.030  27.402  0.00  0.00    +0.178 C 
ATOM     12  C10 UNL     1      15.363  12.826  28.548  0.00  0.00    +0.133 C 
ENDBRANCH   4   7
BRANCH   5  13
ATOM     13  C12 UNL     1      12.968  13.947  31.132  0.00  0.00    +0.250 C 
ATOM     14  O4  UNL     1      13.069  15.109  31.612  0.00  0.00    -0.270 OA
ATOM     15  N3  UNL     1      13.514  12.816  31.830  0.00  0.00    -0.281 N 
ATOM     16  H17 UNL     1      13.398  11.870  31.402  0.00  0.00    +0.155 HD
BRANCH  15  17
ATOM     17  C13 UNL     1      14.360  12.917  32.986  0.00  0.00    +0.034 A 
ATOM     18  C14 UNL     1      13.828  13.460  34.182  0.00  0.00    +0.025 A 
ATOM     19  C15 UNL     1      14.624  13.595  35.334  0.00  0.00    +0.028 A 
ATOM     20  C16 UNL     1      15.955  13.191  35.258  0.00  0.00    +0.048 A 
ATOM     21  N4  UNL     1      16.880  13.244  36.242  0.00  0.00    -0.354 N 
ATOM     22  C17 UNL     1      18.008  12.758  35.679  0.00  0.00    +0.047 A 
ATOM     23  C18 UNL     1      19.254  12.603  36.287  0.00  0.00    +0.026 A 
ATOM     24  C19 UNL     1      20.302  12.070  35.514  0.00  0.00    +0.002 A 
ATOM     25  C20 UNL     1      20.089  11.707  34.165  0.00  0.00    +0.001 A 
ATOM     26  C21 UNL     1      18.823  11.873  33.572  0.00  0.00    +0.010 A 
ATOM     27  C22 UNL     1      17.805  12.403  34.360  0.00  0.00    +0.007 A 
ATOM     28  C23 UNL     1      16.484  12.681  34.091  0.00  0.00    +0.009 A 
ATOM     29  C24 UNL     1      15.722  12.536  32.935  0.00  0.00    +0.034 A 
ATOM     30  H20 UNL     1      16.752  13.587  37.220  0.00  0.00    +0.166 HD
ENDBRANCH  15  17
ENDBRANCH   5  13
BRANCH   1  31
ATOM     31  S1  UNL     1       8.426  13.288  28.639  0.00  0.00    +0.060 S 
ATOM     32  O1  UNL     1       7.882  13.931  29.885  0.00  0.00    -0.153 OA
ATOM     33  O2  UNL     1       7.867  14.026  27.456  0.00  0.00    -0.153 OA
BRANCH  31  35
ATOM     34  C1  UNL     1       8.547  10.865  29.670  0.00  0.00    +0.131 C 
ATOM     35  N1  UNL     1       7.915  11.618  28.580  0.00  0.00    -0.183 NA
ATOM     36  C2  UNL     1       8.277  11.033  27.284  0.00  0.00    +0.131 C 
ENDBRANCH  31  35
ENDBRANCH   1  31
TORSDOF 5
ENDMDL
