REMARK  Name = /home/qwerty/github/datacon2025hack/step_04_hit_selection/docking/ligands/lig_747.pdb
REMARK  5 active torsions:
REMARK  status: ('A' for Active; 'I' for Inactive)
REMARK    1  A    between atoms: C1_1  and  C2_2
REMARK    2  A    between atoms: C4_5  and  C5_6
REMARK    3  A    between atoms: C5_6  and  N2_7
REMARK    4  A    between atoms: C7_9  and  N3_10
REMARK    5  A    between atoms: C8_11  and  C9_13
REMARK                            x       y       z     vdW  Elec       q    Type
REMARK                         _______ _______ _______ _____ _____    ______ ____
ROOT
ATOM      1  N3  UNL     1      -0.833  -1.564  -0.407  0.00  0.00    -0.306 N 
ATOM      2  C8  UNL     1      -2.076  -1.647  -1.122  0.00  0.00    +0.246 C 
ATOM      3  O1  UNL     1      -2.137  -2.321  -2.186  0.00  0.00    -0.270 OA
ATOM      4  H10 UNL     1      -0.834  -1.214   0.576  0.00  0.00    +0.149 HD
ENDROOT
BRANCH   2   5
ATOM      5  C9  UNL     1      -3.292  -0.962  -0.624  0.00  0.00    +0.057 A 
ATOM      6  C10 UNL     1      -4.581  -1.409  -1.032  0.00  0.00    +0.126 A 
ATOM      7  N4  UNL     1      -5.713  -0.782  -0.590  0.00  0.00    -0.235 NA
ATOM      8  C11 UNL     1      -5.586   0.279   0.242  0.00  0.00    +0.158 A 
ATOM      9  N5  UNL     1      -6.569   1.018   0.764  0.00  0.00    -0.329 N 
ATOM     10  C12 UNL     1      -5.908   1.947   1.499  0.00  0.00    +0.198 A 
ATOM     11  N6  UNL     1      -4.554   1.816   1.455  0.00  0.00    -0.234 NA
ATOM     12  C13 UNL     1      -4.385   0.750   0.652  0.00  0.00    +0.108 A 
ATOM     13  C14 UNL     1      -3.199   0.158   0.238  0.00  0.00    +0.046 A 
ATOM     14  H12 UNL     1      -7.599   0.910   0.634  0.00  0.00    +0.168 HD
ENDBRANCH   2   5
BRANCH   1  17
ATOM     15  N2  UNL     1       2.141  -0.784  -1.264  0.00  0.00    -0.293 NA
ATOM     16  C6  UNL     1       1.652  -1.676  -0.199  0.00  0.00    +0.108 C 
ATOM     17  C7  UNL     1       0.412  -2.072  -0.988  0.00  0.00    +0.101 C 
ATOM     18  C15 UNL     1       0.963  -1.152  -2.066  0.00  0.00    +0.108 C 
BRANCH  15  19
ATOM     19  C5  UNL     1       2.090   0.635  -0.864  0.00  0.00    +0.147 C 
BRANCH  19  24
ATOM     20  C1  UNL     1       6.893   1.571   1.339  0.00  0.00    +0.053 C 
ATOM     21  C2  UNL     1       5.451   1.403   0.996  0.00  0.00    +0.006 A 
ATOM     22  C3  UNL     1       4.402   1.326   1.905  0.00  0.00    +0.122 A 
ATOM     23  N1  UNL     1       3.186   1.083   1.347  0.00  0.00    -0.251 NA
ATOM     24  C4  UNL     1       3.262   0.964   0.003  0.00  0.00    +0.092 A 
ATOM     25  S1  UNL     1       4.845   1.126  -0.548  0.00  0.00    -0.076 S 
ENDBRANCH  19  24
ENDBRANCH  15  19
ENDBRANCH   1  17
TORSDOF 4
