MODEL 1
REMARK VINA RESULT:    -6.260      0.000      0.000
REMARK INTER + INTRA:          -7.341
REMARK INTER:                  -6.992
REMARK INTRA:                  -0.349
REMARK UNBOUND:                -0.349
REMARK  Name = /home/qwerty/github/datacon2025hack/step_04_hit_selection/docking/ligands/lig_527.pdb
REMARK  2 active torsions:
REMARK  status: ('A' for Active; 'I' for Inactive)
REMARK    1  A    between atoms: C1_2  and  C11_16
REMARK    2  A    between atoms: N1_3  and  C2_4
REMARK                            x       y       z     vdW  Elec       q    Type
REMARK                         _______ _______ _______ _____ _____    ______ ____
ROOT
ATOM      1  C2  UNL     1      11.989   3.325  20.516  0.00  0.00    +0.056 A 
ATOM      2  C3  UNL     1      10.696   3.281  21.052  0.00  0.00    +0.074 A 
ATOM      3  C4  UNL     1       9.841   4.384  20.947  0.00  0.00    +0.164 A 
ATOM      4  C5  UNL     1      10.323   5.586  20.385  0.00  0.00    +0.163 A 
ATOM      5  C6  UNL     1      11.608   5.625  19.837  0.00  0.00    +0.071 A 
ATOM      6  C7  UNL     1      12.447   4.508  19.905  0.00  0.00    +0.066 A 
ATOM      7 CL1  UNL     1      14.096   4.652  19.308  0.00  0.00    -0.081 Cl
ATOM      8  O2  UNL     1       9.566   6.765  20.398  0.00  0.00    -0.488 OA
ATOM      9  C8  UNL     1       8.644   7.077  21.440  0.00  0.00    +0.232 C 
ATOM     10  C9  UNL     1       7.300   6.372  21.249  0.00  0.00    +0.082 C 
ATOM     11  C10 UNL     1       7.429   4.930  20.751  0.00  0.00    +0.232 C 
ATOM     12  O3  UNL     1       8.514   4.243  21.373  0.00  0.00    -0.488 OA
ENDROOT
BRANCH   1  15
ATOM     13  O1  UNL     1      14.021   2.958  22.471  0.00  0.00    -0.270 OA
ATOM     14  C1  UNL     1      13.875   2.062  21.596  0.00  0.00    +0.249 C 
ATOM     15  N1  UNL     1      12.825   2.166  20.622  0.00  0.00    -0.280 N 
ATOM     16  H1  UNL     1      12.749   1.441  19.875  0.00  0.00    +0.155 HD
BRANCH  14  17
ATOM     17  C11 UNL     1      14.771   0.891  21.607  0.00  0.00    +0.051 A 
ATOM     18  C12 UNL     1      15.622   0.680  20.509  0.00  0.00    +0.014 A 
ATOM     19  C13 UNL     1      16.498  -0.408  20.491  0.00  0.00    +0.001 A 
ATOM     20  C14 UNL     1      16.526  -1.302  21.562  0.00  0.00    +0.001 A 
ATOM     21  C15 UNL     1      15.669  -1.116  22.650  0.00  0.00    +0.016 A 
ATOM     22  C16 UNL     1      14.787  -0.029  22.681  0.00  0.00    +0.030 A 
ATOM     23 BR1  UNL     1      13.565   0.093  24.156  0.00  0.00    -0.050 Br
ENDBRANCH  14  17
ENDBRANCH   1  15
TORSDOF 2
ENDMDL
MODEL 2
REMARK VINA RESULT:    -6.200      2.153      2.885
REMARK INTER + INTRA:          -7.274
REMARK INTER:                  -6.732
REMARK INTRA:                  -0.541
REMARK UNBOUND:                -0.349
REMARK  Name = /home/qwerty/github/datacon2025hack/step_04_hit_selection/docking/ligands/lig_527.pdb
REMARK  2 active torsions:
REMARK  status: ('A' for Active; 'I' for Inactive)
REMARK    1  A    between atoms: C1_2  and  C11_16
REMARK    2  A    between atoms: N1_3  and  C2_4
REMARK                            x       y       z     vdW  Elec       q    Type
REMARK                         _______ _______ _______ _____ _____    ______ ____
ROOT
ATOM      1  C2  UNL     1      11.143   2.339  21.690  0.00  0.00    +0.056 A 
ATOM      2  C3  UNL     1      11.117   3.481  20.879  0.00  0.00    +0.074 A 
ATOM      3  C4  UNL     1      10.086   4.418  20.999  0.00  0.00    +0.164 A 
ATOM      4  C5  UNL     1       9.009   4.160  21.875  0.00  0.00    +0.163 A 
ATOM      5  C6  UNL     1       9.042   3.027  22.694  0.00  0.00    +0.071 A 
ATOM      6  C7  UNL     1      10.096   2.112  22.603  0.00  0.00    +0.066 A 
ATOM      7 CL1  UNL     1      10.025   0.645  23.571  0.00  0.00    -0.081 Cl
ATOM      8  O2  UNL     1       7.876   4.983  21.918  0.00  0.00    -0.488 OA
ATOM      9  C8  UNL     1       7.387   5.682  20.776  0.00  0.00    +0.232 C 
ATOM     10  C9  UNL     1       8.158   6.979  20.521  0.00  0.00    +0.082 C 
ATOM     11  C10 UNL     1       9.666   6.851  20.750  0.00  0.00    +0.232 C 
ATOM     12  O3  UNL     1      10.178   5.610  20.268  0.00  0.00    -0.488 OA
ENDROOT
BRANCH   1  15
ATOM     13  O1  UNL     1      13.519   2.380  23.252  0.00  0.00    -0.270 OA
ATOM     14  C1  UNL     1      13.430   1.520  22.335  0.00  0.00    +0.249 C 
ATOM     15  N1  UNL     1      12.230   1.415  21.555  0.00  0.00    -0.280 N 
ATOM     16  H1  UNL     1      12.192   0.730  20.767  0.00  0.00    +0.155 HD
BRANCH  14  17
ATOM     17  C11 UNL     1      14.561   0.603  22.096  0.00  0.00    +0.051 A 
ATOM     18  C12 UNL     1      14.703  -0.524  22.922  0.00  0.00    +0.014 A 
ATOM     19  C13 UNL     1      15.751  -1.425  22.715  0.00  0.00    +0.001 A 
ATOM     20  C14 UNL     1      16.673  -1.203  21.691  0.00  0.00    +0.001 A 
ATOM     21  C15 UNL     1      16.555  -0.073  20.877  0.00  0.00    +0.016 A 
ATOM     22  C16 UNL     1      15.509   0.836  21.073  0.00  0.00    +0.030 A 
ATOM     23 BR1  UNL     1      15.482   2.420  19.989  0.00  0.00    -0.050 Br
ENDBRANCH  14  17
ENDBRANCH   1  15
TORSDOF 2
ENDMDL
MODEL 3
REMARK VINA RESULT:    -6.100      2.076      2.933
REMARK INTER + INTRA:          -7.163
REMARK INTER:                  -6.674
REMARK INTRA:                  -0.489
REMARK UNBOUND:                -0.349
REMARK  Name = /home/qwerty/github/datacon2025hack/step_04_hit_selection/docking/ligands/lig_527.pdb
REMARK  2 active torsions:
REMARK  status: ('A' for Active; 'I' for Inactive)
REMARK    1  A    between atoms: C1_2  and  C11_16
REMARK    2  A    between atoms: N1_3  and  C2_4
REMARK                            x       y       z     vdW  Elec       q    Type
REMARK                         _______ _______ _______ _____ _____    ______ ____
ROOT
ATOM      1  C2  UNL     1      12.802   1.742  21.594  0.00  0.00    +0.056 A 
ATOM      2  C3  UNL     1      11.629   2.382  22.014  0.00  0.00    +0.074 A 
ATOM      3  C4  UNL     1      11.173   3.535  21.365  0.00  0.00    +0.164 A 
ATOM      4  C5  UNL     1      11.956   4.114  20.344  0.00  0.00    +0.163 A 
ATOM      5  C6  UNL     1      13.119   3.467  19.915  0.00  0.00    +0.071 A 
ATOM      6  C7  UNL     1      13.552   2.291  20.537  0.00  0.00    +0.066 A 
ATOM      7 CL1  UNL     1      15.085   1.587  20.037  0.00  0.00    -0.081 Cl
ATOM      8  O2  UNL     1      11.630   5.351  19.770  0.00  0.00    -0.488 OA
ATOM      9  C8  UNL     1      10.975   6.387  20.497  0.00  0.00    +0.232 C 
ATOM     10  C9  UNL     1       9.462   6.171  20.573  0.00  0.00    +0.082 C 
ATOM     11  C10 UNL     1       9.063   4.711  20.800  0.00  0.00    +0.232 C 
ATOM     12  O3  UNL     1       9.925   4.057  21.730  0.00  0.00    -0.488 OA
ENDROOT
BRANCH   1  15
ATOM     13  O1  UNL     1      14.477   1.675  23.891  0.00  0.00    -0.270 OA
ATOM     14  C1  UNL     1      14.116   0.576  23.391  0.00  0.00    +0.249 C 
ATOM     15  N1  UNL     1      13.223   0.550  22.268  0.00  0.00    -0.280 N 
ATOM     16  H1  UNL     1      12.974  -0.368  21.835  0.00  0.00    +0.155 HD
BRANCH  14  17
ATOM     17  C11 UNL     1      14.597  -0.681  23.994  0.00  0.00    +0.051 A 
ATOM     18  C12 UNL     1      13.888  -1.226  25.078  0.00  0.00    +0.014 A 
ATOM     19  C13 UNL     1      14.303  -2.425  25.664  0.00  0.00    +0.001 A 
ATOM     20  C14 UNL     1      15.434  -3.085  25.182  0.00  0.00    +0.001 A 
ATOM     21  C15 UNL     1      16.161  -2.542  24.119  0.00  0.00    +0.016 A 
ATOM     22  C16 UNL     1      15.755  -1.342  23.522  0.00  0.00    +0.030 A 
ATOM     23 BR1  UNL     1      16.869  -0.604  22.144  0.00  0.00    -0.050 Br
ENDBRANCH  14  17
ENDBRANCH   1  15
TORSDOF 2
ENDMDL
MODEL 4
REMARK VINA RESULT:    -6.055     17.317     17.876
REMARK INTER + INTRA:          -7.112
REMARK INTER:                  -6.590
REMARK INTRA:                  -0.522
REMARK UNBOUND:                -0.349
REMARK  Name = /home/qwerty/github/datacon2025hack/step_04_hit_selection/docking/ligands/lig_527.pdb
REMARK  2 active torsions:
REMARK  status: ('A' for Active; 'I' for Inactive)
REMARK    1  A    between atoms: C1_2  and  C11_16
REMARK    2  A    between atoms: N1_3  and  C2_4
REMARK                            x       y       z     vdW  Elec       q    Type
REMARK                         _______ _______ _______ _____ _____    ______ ____
ROOT
ATOM      1  C2  UNL     1      19.961   9.976  36.059  0.00  0.00    +0.056 A 
ATOM      2  C3  UNL     1      19.129  11.030  35.662  0.00  0.00    +0.074 A 
ATOM      3  C4  UNL     1      17.906  11.255  36.302  0.00  0.00    +0.164 A 
ATOM      4  C5  UNL     1      17.462  10.350  37.291  0.00  0.00    +0.163 A 
ATOM      5  C6  UNL     1      18.299   9.306  37.697  0.00  0.00    +0.071 A 
ATOM      6  C7  UNL     1      19.540   9.108  37.084  0.00  0.00    +0.066 A 
ATOM      7 CL1  UNL     1      20.498   7.708  37.552  0.00  0.00    -0.081 Cl
ATOM      8  O2  UNL     1      16.180  10.435  37.851  0.00  0.00    -0.488 OA
ATOM      9  C8  UNL     1      15.053  10.919  37.125  0.00  0.00    +0.232 C 
ATOM     10  C9  UNL     1      14.999  12.448  37.096  0.00  0.00    +0.082 C 
ATOM     11  C10 UNL     1      16.369  13.106  36.907  0.00  0.00    +0.232 C 
ATOM     12  O3  UNL     1      17.176  12.402  35.965  0.00  0.00    -0.488 OA
ENDROOT
BRANCH   1  15
ATOM     13  O1  UNL     1      20.355   8.398  33.726  0.00  0.00    -0.270 OA
ATOM     14  C1  UNL     1      21.366   8.938  34.251  0.00  0.00    +0.249 C 
ATOM     15  N1  UNL     1      21.218   9.793  35.395  0.00  0.00    -0.280 N 
ATOM     16  H1  UNL     1      22.070  10.192  35.847  0.00  0.00    +0.155 HD
BRANCH  14  17
ATOM     17  C11 UNL     1      22.696   8.706  33.658  0.00  0.00    +0.051 A 
ATOM     18  C12 UNL     1      23.157   9.588  32.666  0.00  0.00    +0.014 A 
ATOM     19  C13 UNL     1      24.419   9.411  32.092  0.00  0.00    +0.001 A 
ATOM     20  C14 UNL     1      25.227   8.348  32.494  0.00  0.00    +0.001 A 
ATOM     21  C15 UNL     1      24.771   7.450  33.464  0.00  0.00    +0.016 A 
ATOM     22  C16 UNL     1      23.509   7.617  34.047  0.00  0.00    +0.030 A 
ATOM     23 BR1  UNL     1      22.911   6.280  35.287  0.00  0.00    -0.050 Br
ENDBRANCH  14  17
ENDBRANCH   1  15
TORSDOF 2
ENDMDL
MODEL 5
REMARK VINA RESULT:    -5.888      8.679     11.407
REMARK INTER + INTRA:          -6.926
REMARK INTER:                  -6.456
REMARK INTRA:                  -0.470
REMARK UNBOUND:                -0.349
REMARK  Name = /home/qwerty/github/datacon2025hack/step_04_hit_selection/docking/ligands/lig_527.pdb
REMARK  2 active torsions:
REMARK  status: ('A' for Active; 'I' for Inactive)
REMARK    1  A    between atoms: C1_2  and  C11_16
REMARK    2  A    between atoms: N1_3  and  C2_4
REMARK                            x       y       z     vdW  Elec       q    Type
REMARK                         _______ _______ _______ _____ _____    ______ ____
ROOT
ATOM      1  C2  UNL     1      19.488   1.414  27.709  0.00  0.00    +0.056 A 
ATOM      2  C3  UNL     1      18.207   0.868  27.568  0.00  0.00    +0.074 A 
ATOM      3  C4  UNL     1      17.803   0.295  26.358  0.00  0.00    +0.164 A 
ATOM      4  C5  UNL     1      18.660   0.358  25.238  0.00  0.00    +0.163 A 
ATOM      5  C6  UNL     1      19.945   0.890  25.382  0.00  0.00    +0.071 A 
ATOM      6  C7  UNL     1      20.363   1.425  26.605  0.00  0.00    +0.066 A 
ATOM      7 CL1  UNL     1      21.945   2.189  26.696  0.00  0.00    -0.081 Cl
ATOM      8  O2  UNL     1      18.248  -0.057  23.965  0.00  0.00    -0.488 OA
ATOM      9  C8  UNL     1      16.897   0.048  23.521  0.00  0.00    +0.232 C 
ATOM     10  C9  UNL     1      16.031  -1.105  24.033  0.00  0.00    +0.082 C 
ATOM     11  C10 UNL     1      16.330  -1.500  25.482  0.00  0.00    +0.232 C 
ATOM     12  O3  UNL     1      16.566  -0.361  26.309  0.00  0.00    -0.488 OA
ENDROOT
BRANCH   1  15
ATOM     13  O1  UNL     1      21.235   0.164  29.572  0.00  0.00    -0.270 OA
ATOM     14  C1  UNL     1      20.715   1.265  29.897  0.00  0.00    +0.249 C 
ATOM     15  N1  UNL     1      19.873   1.970  28.972  0.00  0.00    -0.280 N 
ATOM     16  H1  UNL     1      19.412   2.856  29.276  0.00  0.00    +0.155 HD
BRANCH  14  17
ATOM     17  C11 UNL     1      21.009   1.836  31.225  0.00  0.00    +0.051 A 
ATOM     18  C12 UNL     1      22.057   2.764  31.346  0.00  0.00    +0.014 A 
ATOM     19  C13 UNL     1      22.354   3.339  32.584  0.00  0.00    +0.001 A 
ATOM     20  C14 UNL     1      21.616   2.986  33.715  0.00  0.00    +0.001 A 
ATOM     21  C15 UNL     1      20.586   2.047  33.612  0.00  0.00    +0.016 A 
ATOM     22  C16 UNL     1      20.278   1.465  32.377  0.00  0.00    +0.030 A 
ATOM     23 BR1  UNL     1      18.926   0.102  32.340  0.00  0.00    -0.050 Br
ENDBRANCH  14  17
ENDBRANCH   1  15
TORSDOF 2
ENDMDL
MODEL 6
REMARK VINA RESULT:    -5.869      3.283      7.913
REMARK INTER + INTRA:          -6.905
REMARK INTER:                  -6.394
REMARK INTRA:                  -0.511
REMARK UNBOUND:                -0.349
REMARK  Name = /home/qwerty/github/datacon2025hack/step_04_hit_selection/docking/ligands/lig_527.pdb
REMARK  2 active torsions:
REMARK  status: ('A' for Active; 'I' for Inactive)
REMARK    1  A    between atoms: C1_2  and  C11_16
REMARK    2  A    between atoms: N1_3  and  C2_4
REMARK                            x       y       z     vdW  Elec       q    Type
REMARK                         _______ _______ _______ _____ _____    ______ ____
ROOT
ATOM      1  C2  UNL     1      11.655   4.609  20.563  0.00  0.00    +0.056 A 
ATOM      2  C3  UNL     1      12.981   4.254  20.290  0.00  0.00    +0.074 A 
ATOM      3  C4  UNL     1      13.455   2.974  20.595  0.00  0.00    +0.164 A 
ATOM      4  C5  UNL     1      12.615   2.065  21.276  0.00  0.00    +0.163 A 
ATOM      5  C6  UNL     1      11.287   2.415  21.534  0.00  0.00    +0.071 A 
ATOM      6  C7  UNL     1      10.802   3.681  21.191  0.00  0.00    +0.066 A 
ATOM      7 CL1  UNL     1       9.158   4.109  21.648  0.00  0.00    -0.081 Cl
ATOM      8  O2  UNL     1      13.085   0.831  21.746  0.00  0.00    -0.488 OA
ATOM      9  C8  UNL     1      14.429   0.633  22.178  0.00  0.00    +0.232 C 
ATOM     10  C9  UNL     1      15.383   0.401  21.004  0.00  0.00    +0.082 C 
ATOM     11  C10 UNL     1      15.094   1.292  19.794  0.00  0.00    +0.232 C 
ATOM     12  O3  UNL     1      14.745   2.621  20.178  0.00  0.00    -0.488 OA
ENDROOT
BRANCH   1  15
ATOM     13  O1  UNL     1      11.871   6.905  22.228  0.00  0.00    -0.270 OA
ATOM     14  C1  UNL     1      11.285   7.033  21.118  0.00  0.00    +0.249 C 
ATOM     15  N1  UNL     1      11.200   5.922  20.212  0.00  0.00    -0.280 N 
ATOM     16  H1  UNL     1      10.669   6.032  19.320  0.00  0.00    +0.155 HD
BRANCH  14  17
ATOM     17  C11 UNL     1      10.719   8.344  20.750  0.00  0.00    +0.051 A 
ATOM     18  C12 UNL     1      11.434   9.163  19.861  0.00  0.00    +0.014 A 
ATOM     19  C13 UNL     1      10.922  10.405  19.475  0.00  0.00    +0.001 A 
ATOM     20  C14 UNL     1       9.698  10.845  19.981  0.00  0.00    +0.001 A 
ATOM     21  C15 UNL     1       8.988  10.048  20.884  0.00  0.00    +0.016 A 
ATOM     22  C16 UNL     1       9.490   8.802  21.277  0.00  0.00    +0.030 A 
ATOM     23 BR1  UNL     1       8.512   7.820  22.606  0.00  0.00    -0.050 Br
ENDBRANCH  14  17
ENDBRANCH   1  15
TORSDOF 2
ENDMDL
MODEL 7
REMARK VINA RESULT:    -5.850     11.295     13.888
REMARK INTER + INTRA:          -6.883
REMARK INTER:                  -6.403
REMARK INTRA:                  -0.479
REMARK UNBOUND:                -0.349
REMARK  Name = /home/qwerty/github/datacon2025hack/step_04_hit_selection/docking/ligands/lig_527.pdb
REMARK  2 active torsions:
REMARK  status: ('A' for Active; 'I' for Inactive)
REMARK    1  A    between atoms: C1_2  and  C11_16
REMARK    2  A    between atoms: N1_3  and  C2_4
REMARK                            x       y       z     vdW  Elec       q    Type
REMARK                         _______ _______ _______ _____ _____    ______ ____
ROOT
ATOM      1  C2  UNL     1      21.227   3.288  30.318  0.00  0.00    +0.056 A 
ATOM      2  C3  UNL     1      21.594   4.625  30.515  0.00  0.00    +0.074 A 
ATOM      3  C4  UNL     1      22.086   5.055  31.752  0.00  0.00    +0.164 A 
ATOM      4  C5  UNL     1      22.119   4.155  32.839  0.00  0.00    +0.163 A 
ATOM      5  C6  UNL     1      21.766   2.817  32.638  0.00  0.00    +0.071 A 
ATOM      6  C7  UNL     1      21.313   2.379  31.389  0.00  0.00    +0.066 A 
ATOM      7 CL1  UNL     1      20.770   0.713  31.225  0.00  0.00    -0.081 Cl
ATOM      8  O2  UNL     1      22.451   4.570  34.135  0.00  0.00    -0.488 OA
ATOM      9  C8  UNL     1      22.159   5.877  34.624  0.00  0.00    +0.232 C 
ATOM     10  C9  UNL     1      23.194   6.907  34.169  0.00  0.00    +0.082 C 
ATOM     11  C10 UNL     1      23.651   6.719  32.721  0.00  0.00    +0.232 C 
ATOM     12  O3  UNL     1      22.570   6.366  31.859  0.00  0.00    -0.488 OA
ENDROOT
BRANCH   1  15
ATOM     13  O1  UNL     1      22.810   2.024  28.322  0.00  0.00    -0.270 OA
ATOM     14  C1  UNL     1      21.612   2.297  28.040  0.00  0.00    +0.249 C 
ATOM     15  N1  UNL     1      20.750   2.881  29.029  0.00  0.00    -0.280 N 
ATOM     16  H1  UNL     1      19.776   3.146  28.763  0.00  0.00    +0.155 HD
BRANCH  14  17
ATOM     17  C11 UNL     1      21.099   1.980  26.694  0.00  0.00    +0.051 A 
ATOM     18  C12 UNL     1      20.313   0.828  26.524  0.00  0.00    +0.014 A 
ATOM     19  C13 UNL     1      19.794   0.504  25.268  0.00  0.00    +0.001 A 
ATOM     20  C14 UNL     1      20.065   1.319  24.168  0.00  0.00    +0.001 A 
ATOM     21  C15 UNL     1      20.864   2.455  24.319  0.00  0.00    +0.016 A 
ATOM     22  C16 UNL     1      21.388   2.791  25.573  0.00  0.00    +0.030 A 
ATOM     23 BR1  UNL     1      22.568   4.302  25.676  0.00  0.00    -0.050 Br
ENDBRANCH  14  17
ENDBRANCH   1  15
TORSDOF 2
ENDMDL
MODEL 8
REMARK VINA RESULT:    -5.738     13.444     15.203
REMARK INTER + INTRA:          -6.758
REMARK INTER:                  -6.244
REMARK INTRA:                  -0.514
REMARK UNBOUND:                -0.349
REMARK  Name = /home/qwerty/github/datacon2025hack/step_04_hit_selection/docking/ligands/lig_527.pdb
REMARK  2 active torsions:
REMARK  status: ('A' for Active; 'I' for Inactive)
REMARK    1  A    between atoms: C1_2  and  C11_16
REMARK    2  A    between atoms: N1_3  and  C2_4
REMARK                            x       y       z     vdW  Elec       q    Type
REMARK                         _______ _______ _______ _____ _____    ______ ____
ROOT
ATOM      1  C2  UNL     1      21.755   5.388  32.912  0.00  0.00    +0.056 A 
ATOM      2  C3  UNL     1      21.021   5.145  34.080  0.00  0.00    +0.074 A 
ATOM      3  C4  UNL     1      20.712   6.187  34.959  0.00  0.00    +0.164 A 
ATOM      4  C5  UNL     1      21.231   7.478  34.718  0.00  0.00    +0.163 A 
ATOM      5  C6  UNL     1      21.952   7.724  33.546  0.00  0.00    +0.071 A 
ATOM      6  C7  UNL     1      22.225   6.688  32.646  0.00  0.00    +0.066 A 
ATOM      7 CL1  UNL     1      23.238   7.029  31.248  0.00  0.00    -0.081 Cl
ATOM      8  O2  UNL     1      21.087   8.520  35.644  0.00  0.00    -0.488 OA
ATOM      9  C8  UNL     1      21.032   8.297  37.051  0.00  0.00    +0.232 C 
ATOM     10  C9  UNL     1      19.638   7.869  37.513  0.00  0.00    +0.082 C 
ATOM     11  C10 UNL     1      18.950   6.890  36.559  0.00  0.00    +0.232 C 
ATOM     12  O3  UNL     1      19.858   5.921  36.038  0.00  0.00    -0.488 OA
ENDROOT
BRANCH   1  15
ATOM     13  O1  UNL     1      20.001   4.469  30.871  0.00  0.00    -0.270 OA
ATOM     14  C1  UNL     1      21.080   3.843  31.048  0.00  0.00    +0.249 C 
ATOM     15  N1  UNL     1      22.030   4.298  32.024  0.00  0.00    -0.280 N 
ATOM     16  H1  UNL     1      22.896   3.739  32.192  0.00  0.00    +0.155 HD
BRANCH  14  17
ATOM     17  C11 UNL     1      21.369   2.658  30.219  0.00  0.00    +0.051 A 
ATOM     18  C12 UNL     1      21.856   2.847  28.915  0.00  0.00    +0.014 A 
ATOM     19  C13 UNL     1      22.157   1.749  28.106  0.00  0.00    +0.001 A 
ATOM     20  C14 UNL     1      21.965   0.452  28.585  0.00  0.00    +0.001 A 
ATOM     21  C15 UNL     1      21.460   0.251  29.872  0.00  0.00    +0.016 A 
ATOM     22  C16 UNL     1      21.155   1.343  30.693  0.00  0.00    +0.030 A 
ATOM     23 BR1  UNL     1      20.360   0.985  32.403  0.00  0.00    -0.050 Br
ENDBRANCH  14  17
ENDBRANCH   1  15
TORSDOF 2
ENDMDL
MODEL 9
REMARK VINA RESULT:    -5.703      6.245      9.976
REMARK INTER + INTRA:          -6.719
REMARK INTER:                  -6.247
REMARK INTRA:                  -0.472
REMARK UNBOUND:                -0.349
REMARK  Name = /home/qwerty/github/datacon2025hack/step_04_hit_selection/docking/ligands/lig_527.pdb
REMARK  2 active torsions:
REMARK  status: ('A' for Active; 'I' for Inactive)
REMARK    1  A    between atoms: C1_2  and  C11_16
REMARK    2  A    between atoms: N1_3  and  C2_4
REMARK                            x       y       z     vdW  Elec       q    Type
REMARK                         _______ _______ _______ _____ _____    ______ ____
ROOT
ATOM      1  C2  UNL     1       8.892   8.916  24.053  0.00  0.00    +0.056 A 
ATOM      2  C3  UNL     1       9.431   7.624  24.060  0.00  0.00    +0.074 A 
ATOM      3  C4  UNL     1       9.267   6.775  22.960  0.00  0.00    +0.164 A 
ATOM      4  C5  UNL     1       8.466   7.190  21.875  0.00  0.00    +0.163 A 
ATOM      5  C6  UNL     1       7.940   8.486  21.861  0.00  0.00    +0.071 A 
ATOM      6  C7  UNL     1       8.140   9.348  22.944  0.00  0.00    +0.066 A 
ATOM      7 CL1  UNL     1       7.355  10.923  22.925  0.00  0.00    -0.081 Cl
ATOM      8  O2  UNL     1       8.138   6.325  20.822  0.00  0.00    -0.488 OA
ATOM      9  C8  UNL     1       7.986   4.919  21.000  0.00  0.00    +0.232 C 
ATOM     10  C9  UNL     1       9.331   4.190  21.007  0.00  0.00    +0.082 C 
ATOM     11  C10 UNL     1      10.430   4.940  21.762  0.00  0.00    +0.232 C 
ATOM     12  O3  UNL     1       9.941   5.547  22.957  0.00  0.00    -0.488 OA
ENDROOT
BRANCH   1  15
ATOM     13  O1  UNL     1       7.161   9.083  26.303  0.00  0.00    -0.270 OA
ATOM     14  C1  UNL     1       8.163   9.847  26.271  0.00  0.00    +0.249 C 
ATOM     15  N1  UNL     1       9.103   9.764  25.188  0.00  0.00    -0.280 N 
ATOM     16  H1  UNL     1       9.899  10.438  25.152  0.00  0.00    +0.155 HD
BRANCH  14  17
ATOM     17  C11 UNL     1       8.375  10.803  27.374  0.00  0.00    +0.051 A 
ATOM     18  C12 UNL     1       8.194  12.174  27.125  0.00  0.00    +0.014 A 
ATOM     19  C13 UNL     1       8.369  13.109  28.148  0.00  0.00    +0.001 A 
ATOM     20  C14 UNL     1       8.737  12.686  29.426  0.00  0.00    +0.001 A 
ATOM     21  C15 UNL     1       8.941  11.327  29.682  0.00  0.00    +0.016 A 
ATOM     22  C16 UNL     1       8.768  10.381  28.664  0.00  0.00    +0.030 A 
ATOM     23 BR1  UNL     1       9.179   8.549  29.065  0.00  0.00    -0.050 Br
ENDBRANCH  14  17
ENDBRANCH   1  15
TORSDOF 2
ENDMDL
