REMARK  Name = /home/qwerty/github/datacon2025hack/step_04_hit_selection/docking/ligands/lig_647.pdb
REMARK  5 active torsions:
REMARK  status: ('A' for Active; 'I' for Inactive)
REMARK    1  A    between atoms: C1_1  and  N1_2
REMARK    2  A    between atoms: C3_4  and  N2_5
REMARK    3  A    between atoms: C6_8  and  N3_9
REMARK    4  A    between atoms: N4_12  and  C8_13
REMARK    5  A    between atoms: C12_17  and  N5_18
REMARK                            x       y       z     vdW  Elec       q    Type
REMARK                         _______ _______ _______ _____ _____    ______ ____
ROOT
ATOM      1  N3  UNL     1       2.192  -0.106   0.866  0.00  0.00    -0.288 N 
ATOM      2  C7  UNL     1       0.870  -0.653   0.952  0.00  0.00    +0.304 C 
ATOM      3  O1  UNL     1       0.466  -1.469   0.079  0.00  0.00    -0.252 OA
ATOM      4  N4  UNL     1       0.027  -0.297   2.058  0.00  0.00    -0.269 N 
ATOM      5  H10 UNL     1       2.476   0.607   1.577  0.00  0.00    +0.151 HD
ATOM      6  H11 UNL     1       0.489   0.112   2.901  0.00  0.00    +0.156 HD
ENDROOT
BRANCH   1  10
ATOM      7  N2  UNL     1       5.134   0.902  -0.441  0.00  0.00    -0.267 N 
ATOM      8  C4  UNL     1       4.189   1.709  -1.195  0.00  0.00    +0.116 C 
ATOM      9  C5  UNL     1       2.896   0.877  -1.291  0.00  0.00    +0.051 C 
ATOM     10  C6  UNL     1       3.042  -0.301  -0.310  0.00  0.00    +0.162 C 
ATOM     11  C20 UNL     1       4.470  -0.240   0.074  0.00  0.00    +0.240 C 
ATOM     12  O2  UNL     1       5.028  -1.104   0.800  0.00  0.00    -0.273 OA
BRANCH   7  16
ATOM     13  C1  UNL     1       9.895   0.907   0.978  0.00  0.00    +0.172 C 
ATOM     14  N1  UNL     1       8.614   1.291   0.402  0.00  0.00    -0.273 N 
ATOM     15  C2  UNL     1       7.491   0.548   0.417  0.00  0.00    +0.131 A 
ATOM     16  C3  UNL     1       6.499   1.286  -0.197  0.00  0.00    +0.074 A 
ATOM     17  C21 UNL     1       7.094   2.480  -0.564  0.00  0.00    +0.157 A 
ATOM     18  N6  UNL     1       8.386   2.460  -0.180  0.00  0.00    -0.178 NA
ENDBRANCH   7  16
ENDBRANCH   1  10
BRANCH   4  19
ATOM     19  C8  UNL     1      -1.387  -0.559   2.123  0.00  0.00    +0.037 A 
ATOM     20  C9  UNL     1      -1.992  -0.746   3.376  0.00  0.00    +0.023 A 
ATOM     21  C10 UNL     1      -3.366  -0.977   3.471  0.00  0.00    +0.004 A 
ATOM     22  C11 UNL     1      -4.153  -1.016   2.319  0.00  0.00    +0.023 A 
ATOM     23  C12 UNL     1      -3.571  -0.810   1.059  0.00  0.00    +0.031 A 
ATOM     24  C19 UNL     1      -2.189  -0.573   0.967  0.00  0.00    +0.046 A 
BRANCH  23  25
ATOM     25  N5  UNL     1      -4.383  -0.839  -0.129  0.00  0.00    -0.330 N 
ATOM     26  C13 UNL     1      -4.370   0.322  -1.039  0.00  0.00    +0.105 C 
ATOM     27  C14 UNL     1      -5.744   1.023  -1.148  0.00  0.00    +0.019 C 
ATOM     28  C15 UNL     1      -6.935   0.224  -0.599  0.00  0.00    +0.002 C 
ATOM     29  C16 UNL     1      -7.248  -1.050  -1.402  0.00  0.00    +0.002 C 
ATOM     30  C17 UNL     1      -6.040  -1.969  -1.659  0.00  0.00    +0.019 C 
ATOM     31  C18 UNL     1      -5.093  -2.091  -0.454  0.00  0.00    +0.105 C 
ENDBRANCH  23  25
ENDBRANCH   4  19
TORSDOF 4
