REMARK  Name = /home/qwerty/github/datacon2025hack/step_04_hit_selection/docking/ligands/lig_0.pdb
REMARK  5 active torsions:
REMARK  status: ('A' for Active; 'I' for Inactive)
REMARK    1  A    between atoms: C1_1  and  C2_2
REMARK    2  A    between atoms: N2_4  and  C3_5
REMARK    3  A    between atoms: C5_8  and  C6_9
REMARK    4  A    between atoms: C11_15  and  C12_16
REMARK    5  A    between atoms: C13_18  and  C14_19
REMARK                            x       y       z     vdW  Elec       q    Type
REMARK                         _______ _______ _______ _____ _____    ______ ____
ROOT
ATOM      1  C1  UNL     1       0.228  -3.784  -0.305  0.00  0.00    +0.068 C 
ATOM      2  C2  UNL     1      -1.085  -3.077  -0.218  0.00  0.00    +0.070 A 
ATOM      3  N1  UNL     1      -2.267  -3.709  -0.429  0.00  0.00    -0.174 NA
ATOM      4  N2  UNL     1      -3.237  -2.809  -0.345  0.00  0.00    -0.249 N 
ATOM      5  C3  UNL     1      -4.642  -3.091  -0.607  0.00  0.00    +0.174 C 
ATOM      6  C4  UNL     1      -2.685  -1.610  -0.109  0.00  0.00    +0.160 A 
ATOM      7  N3  UNL     1      -3.334  -0.422  -0.053  0.00  0.00    -0.227 NA
ATOM      8  C5  UNL     1      -2.620   0.727   0.137  0.00  0.00    +0.081 A 
ATOM      9  C10 UNL     1      -1.209   0.664   0.274  0.00  0.00    +0.043 A 
ATOM     10  C11 UNL     1      -0.535  -0.578   0.221  0.00  0.00    +0.054 A 
ATOM     11  C20 UNL     1      -1.327  -1.720   0.005  0.00  0.00    +0.054 A 
ENDROOT
BRANCH   8  12
ATOM     12  C6  UNL     1      -3.336   2.017   0.198  0.00  0.00    +0.038 A 
ATOM     13  C7  UNL     1      -4.713   2.184   0.079  0.00  0.00    +0.017 A 
ATOM     14  C8  UNL     1      -5.122   3.520   0.174  0.00  0.00    +0.008 A 
ATOM     15  C9  UNL     1      -4.077   4.413   0.368  0.00  0.00    +0.046 A 
ATOM     16  S1  UNL     1      -2.643   3.537   0.420  0.00  0.00    -0.095 S 
ENDBRANCH   8  12
BRANCH  10  17
ATOM     17  C12 UNL     1       0.925  -0.615   0.428  0.00  0.00    +0.260 A 
ATOM     18  N4  UNL     1       1.756   0.391   0.088  0.00  0.00    -0.187 NA
ATOM     19  C13 UNL     1       2.948  -0.090   0.501  0.00  0.00    +0.202 A 
ATOM     20  N5  UNL     1       2.840  -1.309   1.065  0.00  0.00    -0.056 NA
ATOM     21  O1  UNL     1       1.575  -1.595   1.004  0.00  0.00    -0.332 OA
BRANCH  19  22
ATOM     22  C14 UNL     1       4.225   0.641   0.356  0.00  0.00    +0.023 A 
ATOM     23  C15 UNL     1       4.253   1.916  -0.239  0.00  0.00    +0.014 A 
ATOM     24  C16 UNL     1       5.462   2.606  -0.375  0.00  0.00    +0.039 A 
ATOM     25  C17 UNL     1       6.652   2.032   0.081  0.00  0.00    +0.123 A 
ATOM     26  F1  UNL     1       7.823   2.703  -0.052  0.00  0.00    -0.205 F 
ATOM     27  C18 UNL     1       6.635   0.767   0.673  0.00  0.00    +0.039 A 
ATOM     28  C19 UNL     1       5.428   0.073   0.811  0.00  0.00    +0.014 A 
ENDBRANCH  19  22
ENDBRANCH  10  17
TORSDOF 3
