REMARK  Name = /home/qwerty/github/datacon2025hack/step_04_hit_selection/docking/ligands/lig_100.pdb
REMARK  9 active torsions:
REMARK  status: ('A' for Active; 'I' for Inactive)
REMARK    1  A    between atoms: C1_1  and  O1_2
REMARK    2  A    between atoms: O1_2  and  C2_3
REMARK    3  A    between atoms: C7_9  and  N1_10
REMARK    4  A    between atoms: C8_11  and  C9_13
REMARK    5  A    between atoms: C9_13  and  C10_14
REMARK    6  A    between atoms: C10_14  and  N2_15
REMARK    7  A    between atoms: C11_16  and  C12_18
REMARK    8  A    between atoms: N3_20  and  C13_21
REMARK    9  A    between atoms: C16_24  and  N4_25
REMARK                            x       y       z     vdW  Elec       q    Type
REMARK                         _______ _______ _______ _____ _____    ______ ____
ROOT
ATOM      1  N2  UNL     1      -0.398   1.743  -0.594  0.00  0.00    -0.307 N 
ATOM      2  C11 UNL     1       0.512   0.694  -0.967  0.00  0.00    +0.299 C 
ATOM      3  O3  UNL     1       0.090  -0.319  -1.595  0.00  0.00    -0.265 OA
ATOM      4  H12 UNL     1      -0.049   2.547  -0.023  0.00  0.00    +0.149 HD
ENDROOT
BRANCH   2   5
ATOM      5  C12 UNL     1       1.944   0.790  -0.622  0.00  0.00    +0.303 C 
ATOM      6  O4  UNL     1       2.344   1.725   0.127  0.00  0.00    -0.265 OA
ATOM      7  N3  UNL     1       2.884  -0.153  -1.168  0.00  0.00    -0.278 N 
ATOM      8  H13 UNL     1       2.595  -0.712  -2.002  0.00  0.00    +0.155 HD
BRANCH   7   9
ATOM      9  C13 UNL     1       4.253  -0.248  -0.740  0.00  0.00    +0.034 A 
ATOM     10  C14 UNL     1       4.600  -0.139   0.614  0.00  0.00    +0.025 A 
ATOM     11  C15 UNL     1       5.932  -0.264   1.016  0.00  0.00    +0.029 A 
ATOM     12  C16 UNL     1       6.945  -0.500   0.067  0.00  0.00    +0.065 A 
ATOM     13  C20 UNL     1       6.592  -0.612  -1.287  0.00  0.00    +0.029 A 
ATOM     14  C21 UNL     1       5.257  -0.502  -1.683  0.00  0.00    +0.025 A 
BRANCH  12  15
ATOM     15  N4  UNL     1       8.325  -0.628   0.464  0.00  0.00    -0.240 N 
ATOM     16  C17 UNL     1       8.792  -0.935   1.694  0.00  0.00    +0.114 A 
ATOM     17  C18 UNL     1      10.167  -0.987   1.639  0.00  0.00    +0.041 A 
ATOM     18  C19 UNL     1      10.477  -0.700   0.323  0.00  0.00    +0.135 A 
ATOM     19  N5  UNL     1       9.343  -0.490  -0.373  0.00  0.00    -0.175 NA
ENDBRANCH  12  15
ENDBRANCH   7   9
ENDBRANCH   2   5
BRANCH   1  20
ATOM     20  C10 UNL     1      -1.838   1.649  -0.823  0.00  0.00    +0.114 C 
BRANCH  20  21
ATOM     21  C9  UNL     1      -2.523   1.027   0.392  0.00  0.00    +0.115 C 
BRANCH  21  23
ATOM     22  N1  UNL     1      -4.571  -0.270  -0.374  0.00  0.00    -0.283 N 
ATOM     23  C8  UNL     1      -4.002   0.929   0.172  0.00  0.00    +0.219 C 
ATOM     24  O2  UNL     1      -4.726   1.930   0.404  0.00  0.00    -0.275 OA
ATOM     25  H7  UNL     1      -3.920  -0.961  -0.817  0.00  0.00    +0.155 HD
BRANCH  22  32
ATOM     26  C2  UNL     1      -6.913  -0.204   0.447  0.00  0.00    +0.141 A 
ATOM     27  C3  UNL     1      -8.288  -0.368   0.183  0.00  0.00    +0.049 A 
ATOM     28  C4  UNL     1      -8.722  -0.793  -1.077  0.00  0.00    +0.024 A 
ATOM     29  C5  UNL     1      -7.793  -1.064  -2.084  0.00  0.00    +0.043 A 
ATOM     30 CL1  UNL     1      -8.339  -1.610  -3.663  0.00  0.00    -0.083 Cl
ATOM     31  C6  UNL     1      -6.428  -0.896  -1.837  0.00  0.00    +0.047 A 
ATOM     32  C7  UNL     1      -5.981  -0.442  -0.586  0.00  0.00    +0.077 A 
BRANCH  26  34
ATOM     33  C1  UNL     1      -7.278   0.435   2.844  0.00  0.00    +0.277 C 
ATOM     34  O1  UNL     1      -6.444   0.166   1.718  0.00  0.00    -0.493 OA
ENDBRANCH  26  34
ENDBRANCH  22  32
ENDBRANCH  21  23
ENDBRANCH  20  21
ENDBRANCH   1  20
TORSDOF 8
