REMARK  Name = /home/qwerty/github/datacon2025hack/step_04_hit_selection/docking/ligands/lig_667.pdb
REMARK  7 active torsions:
REMARK  status: ('A' for Active; 'I' for Inactive)
REMARK    1  A    between atoms: C1_1  and  C2_2
REMARK    2  A    between atoms: C3_4  and  C4_5
REMARK    3  A    between atoms: C4_5  and  N2_6
REMARK    4  A    between atoms: C6_8  and  O1_9
REMARK    5  A    between atoms: C7_10  and  N3_11
REMARK    6  A    between atoms: C8_12  and  C9_14
REMARK    7  A    between atoms: C11_16  and  C12_17
REMARK                            x       y       z     vdW  Elec       q    Type
REMARK                         _______ _______ _______ _____ _____    ______ ____
ROOT
ATOM      1  N2  UNL     1       1.993  -0.856   0.209  0.00  0.00    -0.291 NA
ATOM      2  C5  UNL     1       1.969  -1.327  -1.182  0.00  0.00    +0.118 C 
ATOM      3  C6  UNL     1       0.560  -1.857  -1.448  0.00  0.00    +0.150 C 
ATOM      4  C7  UNL     1      -0.071  -2.037  -0.063  0.00  0.00    +0.117 C 
ATOM      5  C16 UNL     1       1.053  -1.724   0.920  0.00  0.00    +0.109 C 
ENDROOT
BRANCH   4   6
ATOM      6  N3  UNL     1      -1.190  -1.105   0.112  0.00  0.00    -0.305 N 
ATOM      7  C8  UNL     1      -2.513  -1.408  -0.360  0.00  0.00    +0.246 C 
ATOM      8  O2  UNL     1      -2.732  -2.502  -0.947  0.00  0.00    -0.270 OA
ATOM      9  H11 UNL     1      -0.991  -0.138   0.457  0.00  0.00    +0.149 HD
BRANCH   7  10
ATOM     10  C9  UNL     1      -3.624  -0.451  -0.146  0.00  0.00    +0.055 A 
ATOM     11  C10 UNL     1      -3.683   0.273   1.060  0.00  0.00    +0.020 A 
ATOM     12  C11 UNL     1      -4.722   1.184   1.302  0.00  0.00    -0.014 A 
ATOM     13  C12 UNL     1      -4.791   1.925   2.607  0.00  0.00    +0.047 C 
ATOM     14  C13 UNL     1      -5.729   1.354   0.340  0.00  0.00    +0.128 A 
ATOM     15  F1  UNL     1      -6.757   2.212   0.562  0.00  0.00    -0.205 F 
ATOM     16  C14 UNL     1      -5.679   0.643  -0.860  0.00  0.00    +0.059 A 
ATOM     17  C15 UNL     1      -4.637  -0.255  -1.113  0.00  0.00    +0.056 A 
ATOM     18 CL1  UNL     1      -4.613  -1.066  -2.677  0.00  0.00    -0.083 Cl
ENDBRANCH   7  10
ENDBRANCH   4   6
BRANCH   3  19
ATOM     19  O1  UNL     1       0.626  -3.080  -2.133  0.00  0.00    -0.389 OA
ATOM     20  H9  UNL     1      -0.294  -3.273  -2.454  0.00  0.00    +0.210 HD
ENDBRANCH   3  19
BRANCH   1  21
ATOM     21  C4  UNL     1       3.339  -0.917   0.807  0.00  0.00    +0.162 C 
BRANCH  21  25
ATOM     22  C1  UNL     1       5.378   3.436  -0.363  0.00  0.00    +0.087 C 
ATOM     23  C2  UNL     1       5.048   1.982  -0.319  0.00  0.00    +0.122 A 
ATOM     24  N1  UNL     1       4.096   1.451   0.473  0.00  0.00    -0.215 NA
ATOM     25  C3  UNL     1       4.221   0.133   0.208  0.00  0.00    +0.165 A 
ATOM     26  N4  UNL     1       5.189  -0.132  -0.692  0.00  0.00    -0.156 NA
ATOM     27  N5  UNL     1       5.710   1.039  -1.009  0.00  0.00    -0.263 N 
ATOM     28  H19 UNL     1       6.498   1.180  -1.678  0.00  0.00    +0.190 HD
ENDBRANCH  21  25
ENDBRANCH   1  21
TORSDOF 5
