MODEL 1
REMARK VINA RESULT:    -6.380      0.000      0.000
REMARK INTER + INTRA:          -8.338
REMARK INTER:                  -7.686
REMARK INTRA:                  -0.653
REMARK UNBOUND:                -0.653
REMARK  Name = /home/qwerty/github/datacon2025hack/step_04_hit_selection/docking/ligands/lig_174.pdb
REMARK  5 active torsions:
REMARK  status: ('A' for Active; 'I' for Inactive)
REMARK    1  A    between atoms: C1_1  and  C2_2
REMARK    2  A    between atoms: C5_5  and  C6_6
REMARK    3  A    between atoms: N1_8  and  C7_9
REMARK    4  A    between atoms: C10_12  and  N2_13
REMARK    5  A    between atoms: C18_24  and  N6_25
REMARK                            x       y       z     vdW  Elec       q    Type
REMARK                         _______ _______ _______ _____ _____    ______ ____
ROOT
ATOM      1  C7  UNL     1      12.852   1.082  22.392  0.00  0.00    +0.045 A 
ATOM      2  C8  UNL     1      12.784   0.623  23.726  0.00  0.00    +0.026 A 
ATOM      3  C9  UNL     1      13.840  -0.131  24.284  0.00  0.00    +0.030 A 
ATOM      4  C10 UNL     1      14.978  -0.463  23.517  0.00  0.00    +0.073 A 
ATOM      5  C14 UNL     1      15.014   0.002  22.195  0.00  0.00    +0.091 A 
ATOM      6  N4  UNL     1      15.998  -0.113  21.284  0.00  0.00    -0.275 N 
ATOM      7  N5  UNL     1      15.624   0.517  20.176  0.00  0.00    -0.181 NA
ATOM      8  C15 UNL     1      14.393   1.044  20.375  0.00  0.00    +0.144 A 
ATOM      9  C16 UNL     1      13.991   0.735  21.658  0.00  0.00    +0.043 A 
ATOM     10  H12 UNL     1      16.924  -0.575  21.404  0.00  0.00    +0.189 HD
ENDROOT
BRANCH   4  11
ATOM     11  N2  UNL     1      16.037  -1.255  24.080  0.00  0.00    -0.304 N 
ATOM     12  C11 UNL     1      16.117  -2.597  24.096  0.00  0.00    +0.112 A 
ATOM     13  C12 UNL     1      17.318  -2.943  24.672  0.00  0.00    +0.130 A 
ATOM     14  N3  UNL     1      18.000  -1.827  25.002  0.00  0.00    -0.244 NA
ATOM     15  C13 UNL     1      17.190  -0.816  24.623  0.00  0.00    +0.204 A 
ENDBRANCH   4  11
BRANCH   1  18
ATOM     16  C6  UNL     1      11.700   3.268  21.835  0.00  0.00    +0.248 C 
ATOM     17  O1  UNL     1      12.741   3.949  22.045  0.00  0.00    -0.270 OA
ATOM     18  N1  UNL     1      11.786   1.834  21.788  0.00  0.00    -0.281 N 
ATOM     19  H6  UNL     1      11.089   1.319  21.204  0.00  0.00    +0.155 HD
BRANCH  16  24
ATOM     20  C1  UNL     1       6.650   5.993  20.899  0.00  0.00    +0.045 C 
ATOM     21  C2  UNL     1       7.968   5.305  21.128  0.00  0.00    -0.030 A 
ATOM     22  C3  UNL     1       8.004   4.121  21.884  0.00  0.00    +0.006 A 
ATOM     23  C4  UNL     1       9.211   3.459  22.114  0.00  0.00    +0.013 A 
ATOM     24  C5  UNL     1      10.412   3.963  21.589  0.00  0.00    +0.039 A 
ATOM     25  C17 UNL     1      10.381   5.153  20.843  0.00  0.00    +0.036 A 
ATOM     26  C18 UNL     1       9.173   5.827  20.605  0.00  0.00    +0.028 A 
BRANCH  26  27
ATOM     27  N6  UNL     1       9.192   7.035  19.831  0.00  0.00    -0.358 N 
ATOM     28  H15 UNL     1       9.165   7.980  20.272  0.00  0.00    +0.142 HD
ATOM     29  H16 UNL     1       9.237   6.995  18.788  0.00  0.00    +0.142 HD
ENDBRANCH  26  27
ENDBRANCH  16  24
ENDBRANCH   1  18
TORSDOF 4
ENDMDL
MODEL 2
REMARK VINA RESULT:    -6.279     16.839     17.277
REMARK INTER + INTRA:          -8.216
REMARK INTER:                  -7.831
REMARK INTRA:                  -0.385
REMARK UNBOUND:                -0.653
REMARK  Name = /home/qwerty/github/datacon2025hack/step_04_hit_selection/docking/ligands/lig_174.pdb
REMARK  5 active torsions:
REMARK  status: ('A' for Active; 'I' for Inactive)
REMARK    1  A    between atoms: C1_1  and  C2_2
REMARK    2  A    between atoms: C5_5  and  C6_6
REMARK    3  A    between atoms: N1_8  and  C7_9
REMARK    4  A    between atoms: C10_12  and  N2_13
REMARK    5  A    between atoms: C18_24  and  N6_25
REMARK                            x       y       z     vdW  Elec       q    Type
REMARK                         _______ _______ _______ _____ _____    ______ ____
ROOT
ATOM      1  C7  UNL     1      16.795   9.732  37.291  0.00  0.00    +0.045 A 
ATOM      2  C8  UNL     1      17.048   8.360  37.516  0.00  0.00    +0.026 A 
ATOM      3  C9  UNL     1      18.360   7.845  37.423  0.00  0.00    +0.030 A 
ATOM      4  C10 UNL     1      19.445   8.682  37.083  0.00  0.00    +0.073 A 
ATOM      5  C14 UNL     1      19.161  10.037  36.860  0.00  0.00    +0.091 A 
ATOM      6  N4  UNL     1      20.009  11.047  36.594  0.00  0.00    -0.275 N 
ATOM      7  N5  UNL     1      19.311  12.172  36.503  0.00  0.00    -0.181 NA
ATOM      8  C15 UNL     1      18.005  11.888  36.715  0.00  0.00    +0.144 A 
ATOM      9  C16 UNL     1      17.889  10.534  36.954  0.00  0.00    +0.043 A 
ATOM     10  H12 UNL     1      21.047  10.999  36.506  0.00  0.00    +0.189 HD
ENDROOT
BRANCH   4  11
ATOM     11  N2  UNL     1      20.773   8.147  36.961  0.00  0.00    -0.304 N 
ATOM     12  C11 UNL     1      21.356   7.245  37.769  0.00  0.00    +0.112 A 
ATOM     13  C12 UNL     1      22.601   6.959  37.259  0.00  0.00    +0.130 A 
ATOM     14  N3  UNL     1      22.799   7.664  36.127  0.00  0.00    -0.244 NA
ATOM     15  C13 UNL     1      21.662   8.374  35.973  0.00  0.00    +0.204 A 
ENDBRANCH   4  11
BRANCH   1  18
ATOM     16  C6  UNL     1      14.565  10.319  36.241  0.00  0.00    +0.248 C 
ATOM     17  O1  UNL     1      14.729   9.519  35.280  0.00  0.00    -0.270 OA
ATOM     18  N1  UNL     1      15.468  10.284  37.359  0.00  0.00    -0.281 N 
ATOM     19  H6  UNL     1      15.109  10.588  38.291  0.00  0.00    +0.155 HD
BRANCH  16  24
ATOM     20  C1  UNL     1      10.044  13.975  36.202  0.00  0.00    +0.045 C 
ATOM     21  C2  UNL     1      11.226  13.044  36.198  0.00  0.00    -0.030 A 
ATOM     22  C3  UNL     1      11.136  11.814  36.870  0.00  0.00    +0.006 A 
ATOM     23  C4  UNL     1      12.215  10.929  36.885  0.00  0.00    +0.013 A 
ATOM     24  C5  UNL     1      13.411  11.252  36.224  0.00  0.00    +0.039 A 
ATOM     25  C17 UNL     1      13.509  12.487  35.561  0.00  0.00    +0.036 A 
ATOM     26  C18 UNL     1      12.429  13.384  35.539  0.00  0.00    +0.028 A 
BRANCH  26  27
ATOM     27  N6  UNL     1      12.576  14.630  34.843  0.00  0.00    -0.358 N 
ATOM     28  H15 UNL     1      13.226  14.743  34.034  0.00  0.00    +0.142 HD
ATOM     29  H16 UNL     1      12.023  15.468  35.133  0.00  0.00    +0.142 HD
ENDBRANCH  26  27
ENDBRANCH  16  24
ENDBRANCH   1  18
TORSDOF 4
ENDMDL
MODEL 3
REMARK VINA RESULT:    -6.195      2.789      4.572
REMARK INTER + INTRA:          -8.115
REMARK INTER:                  -7.453
REMARK INTRA:                  -0.662
REMARK UNBOUND:                -0.653
REMARK  Name = /home/qwerty/github/datacon2025hack/step_04_hit_selection/docking/ligands/lig_174.pdb
REMARK  5 active torsions:
REMARK  status: ('A' for Active; 'I' for Inactive)
REMARK    1  A    between atoms: C1_1  and  C2_2
REMARK    2  A    between atoms: C5_5  and  C6_6
REMARK    3  A    between atoms: N1_8  and  C7_9
REMARK    4  A    between atoms: C10_12  and  N2_13
REMARK    5  A    between atoms: C18_24  and  N6_25
REMARK                            x       y       z     vdW  Elec       q    Type
REMARK                         _______ _______ _______ _____ _____    ______ ____
ROOT
ATOM      1  C7  UNL     1      13.135   4.911  20.150  0.00  0.00    +0.045 A 
ATOM      2  C8  UNL     1      14.473   4.821  19.707  0.00  0.00    +0.026 A 
ATOM      3  C9  UNL     1      15.180   3.602  19.792  0.00  0.00    +0.030 A 
ATOM      4  C10 UNL     1      14.576   2.450  20.342  0.00  0.00    +0.073 A 
ATOM      5  C14 UNL     1      13.249   2.573  20.778  0.00  0.00    +0.091 A 
ATOM      6  N4  UNL     1      12.430   1.625  21.270  0.00  0.00    -0.275 N 
ATOM      7  N5  UNL     1      11.245   2.175  21.512  0.00  0.00    -0.181 NA
ATOM      8  C15 UNL     1      11.300   3.484  21.170  0.00  0.00    +0.144 A 
ATOM      9  C16 UNL     1      12.565   3.754  20.691  0.00  0.00    +0.043 A 
ATOM     10  H12 UNL     1      12.641   0.615  21.415  0.00  0.00    +0.189 HD
ENDROOT
BRANCH   4  11
ATOM     11  N2  UNL     1      15.310   1.220  20.453  0.00  0.00    -0.304 N 
ATOM     12  C11 UNL     1      15.606   0.365  19.459  0.00  0.00    +0.112 A 
ATOM     13  C12 UNL     1      16.374  -0.648  19.984  0.00  0.00    +0.130 A 
ATOM     14  N3  UNL     1      16.578  -0.427  21.299  0.00  0.00    -0.244 NA
ATOM     15  C13 UNL     1      15.917   0.723  21.550  0.00  0.00    +0.204 A 
ENDBRANCH   4  11
BRANCH   1  18
ATOM     16  C6  UNL     1      12.260   7.040  21.211  0.00  0.00    +0.248 C 
ATOM     17  O1  UNL     1      13.105   7.001  22.147  0.00  0.00    -0.270 OA
ATOM     18  N1  UNL     1      12.393   6.142  20.095  0.00  0.00    -0.281 N 
ATOM     19  H6  UNL     1      12.012   6.446  19.171  0.00  0.00    +0.155 HD
BRANCH  16  24
ATOM     20  C1  UNL     1       7.996  10.990  21.349  0.00  0.00    +0.045 C 
ATOM     21  C2  UNL     1       9.083   9.950  21.316  0.00  0.00    -0.030 A 
ATOM     22  C3  UNL     1      10.420  10.356  21.160  0.00  0.00    +0.006 A 
ATOM     23  C4  UNL     1      11.450   9.416  21.126  0.00  0.00    +0.013 A 
ATOM     24  C5  UNL     1      11.170   8.046  21.252  0.00  0.00    +0.039 A 
ATOM     25  C17 UNL     1       9.834   7.636  21.396  0.00  0.00    +0.036 A 
ATOM     26  C18 UNL     1       8.789   8.573  21.432  0.00  0.00    +0.028 A 
BRANCH  26  27
ATOM     27  N6  UNL     1       7.442   8.105  21.588  0.00  0.00    -0.358 N 
ATOM     28  H15 UNL     1       6.616   8.712  21.398  0.00  0.00    +0.142 HD
ATOM     29  H16 UNL     1       7.254   7.125  21.900  0.00  0.00    +0.142 HD
ENDBRANCH  26  27
ENDBRANCH  16  24
ENDBRANCH   1  18
TORSDOF 4
ENDMDL
MODEL 4
REMARK VINA RESULT:    -6.188      5.363      9.654
REMARK INTER + INTRA:          -8.107
REMARK INTER:                  -7.488
REMARK INTRA:                  -0.619
REMARK UNBOUND:                -0.653
REMARK  Name = /home/qwerty/github/datacon2025hack/step_04_hit_selection/docking/ligands/lig_174.pdb
REMARK  5 active torsions:
REMARK  status: ('A' for Active; 'I' for Inactive)
REMARK    1  A    between atoms: C1_1  and  C2_2
REMARK    2  A    between atoms: C5_5  and  C6_6
REMARK    3  A    between atoms: N1_8  and  C7_9
REMARK    4  A    between atoms: C10_12  and  N2_13
REMARK    5  A    between atoms: C18_24  and  N6_25
REMARK                            x       y       z     vdW  Elec       q    Type
REMARK                         _______ _______ _______ _____ _____    ______ ____
ROOT
ATOM      1  C7  UNL     1       8.813   2.375  25.620  0.00  0.00    +0.045 A 
ATOM      2  C8  UNL     1       8.154   3.595  25.890  0.00  0.00    +0.026 A 
ATOM      3  C9  UNL     1       7.908   4.526  24.858  0.00  0.00    +0.030 A 
ATOM      4  C10 UNL     1       8.332   4.271  23.535  0.00  0.00    +0.073 A 
ATOM      5  C14 UNL     1       8.988   3.054  23.299  0.00  0.00    +0.091 A 
ATOM      6  N4  UNL     1       9.427   2.542  22.135  0.00  0.00    -0.275 N 
ATOM      7  N5  UNL     1       9.947   1.343  22.370  0.00  0.00    -0.181 NA
ATOM      8  C15 UNL     1       9.839   1.079  23.694  0.00  0.00    +0.144 A 
ATOM      9  C16 UNL     1       9.222   2.153  24.302  0.00  0.00    +0.043 A 
ATOM     10  H12 UNL     1       9.354   2.966  21.186  0.00  0.00    +0.189 HD
ENDROOT
BRANCH   4  11
ATOM     11  N2  UNL     1       8.105   5.234  22.493  0.00  0.00    -0.304 N 
ATOM     12  C11 UNL     1       7.157   5.183  21.541  0.00  0.00    +0.112 A 
ATOM     13  C12 UNL     1       7.248   6.332  20.790  0.00  0.00    +0.130 A 
ATOM     14  N3  UNL     1       8.235   7.113  21.274  0.00  0.00    -0.244 NA
ATOM     15  C13 UNL     1       8.733   6.414  22.315  0.00  0.00    +0.204 A 
ENDBRANCH   4  11
BRANCH   1  18
ATOM     16  C6  UNL     1       8.171   0.394  27.063  0.00  0.00    +0.248 C 
ATOM     17  O1  UNL     1       7.250   0.034  26.280  0.00  0.00    -0.270 OA
ATOM     18  N1  UNL     1       9.096   1.415  26.652  0.00  0.00    -0.281 N 
ATOM     19  H6  UNL     1      10.059   1.399  27.058  0.00  0.00    +0.155 HD
BRANCH  16  24
ATOM     20  C1  UNL     1       8.712  -2.257  32.210  0.00  0.00    +0.045 C 
ATOM     21  C2  UNL     1       8.593  -1.581  30.870  0.00  0.00    -0.030 A 
ATOM     22  C3  UNL     1       7.504  -0.728  30.625  0.00  0.00    +0.006 A 
ATOM     23  C4  UNL     1       7.366  -0.086  29.394  0.00  0.00    +0.013 A 
ATOM     24  C5  UNL     1       8.315  -0.279  28.378  0.00  0.00    +0.039 A 
ATOM     25  C17 UNL     1       9.399  -1.142  28.615  0.00  0.00    +0.036 A 
ATOM     26  C18 UNL     1       9.549  -1.792  29.851  0.00  0.00    +0.028 A 
BRANCH  26  27
ATOM     27  N6  UNL     1      10.676  -2.658  30.047  0.00  0.00    -0.358 N 
ATOM     28  H15 UNL     1      10.592  -3.697  30.020  0.00  0.00    +0.142 HD
ATOM     29  H16 UNL     1      11.626  -2.259  30.223  0.00  0.00    +0.142 HD
ENDBRANCH  26  27
ENDBRANCH  16  24
ENDBRANCH   1  18
TORSDOF 4
ENDMDL
MODEL 5
REMARK VINA RESULT:    -6.176      8.880     11.222
REMARK INTER + INTRA:          -8.092
REMARK INTER:                  -7.678
REMARK INTRA:                  -0.414
REMARK UNBOUND:                -0.653
REMARK  Name = /home/qwerty/github/datacon2025hack/step_04_hit_selection/docking/ligands/lig_174.pdb
REMARK  5 active torsions:
REMARK  status: ('A' for Active; 'I' for Inactive)
REMARK    1  A    between atoms: C1_1  and  C2_2
REMARK    2  A    between atoms: C5_5  and  C6_6
REMARK    3  A    between atoms: N1_8  and  C7_9
REMARK    4  A    between atoms: C10_12  and  N2_13
REMARK    5  A    between atoms: C18_24  and  N6_25
REMARK                            x       y       z     vdW  Elec       q    Type
REMARK                         _______ _______ _______ _____ _____    ______ ____
ROOT
ATOM      1  C7  UNL     1      17.601   9.094  19.126  0.00  0.00    +0.045 A 
ATOM      2  C8  UNL     1      16.938  10.327  19.311  0.00  0.00    +0.026 A 
ATOM      3  C9  UNL     1      17.665  11.537  19.357  0.00  0.00    +0.030 A 
ATOM      4  C10 UNL     1      19.073  11.541  19.241  0.00  0.00    +0.073 A 
ATOM      5  C14 UNL     1      19.702  10.300  19.064  0.00  0.00    +0.091 A 
ATOM      6  N4  UNL     1      21.005  10.035  18.861  0.00  0.00    -0.275 N 
ATOM      7  N5  UNL     1      21.149   8.725  18.699  0.00  0.00    -0.181 NA
ATOM      8  C15 UNL     1      19.930   8.142  18.794  0.00  0.00    +0.144 A 
ATOM      9  C16 UNL     1      18.994   9.131  19.017  0.00  0.00    +0.043 A 
ATOM     10  H12 UNL     1      21.791  10.717  18.797  0.00  0.00    +0.189 HD
ENDROOT
BRANCH   4  11
ATOM     11  N2  UNL     1      19.811  12.772  19.317  0.00  0.00    -0.304 N 
ATOM     12  C11 UNL     1      20.683  13.246  18.411  0.00  0.00    +0.112 A 
ATOM     13  C12 UNL     1      21.112  14.480  18.840  0.00  0.00    +0.130 A 
ATOM     14  N3  UNL     1      20.503  14.793  20.002  0.00  0.00    -0.244 NA
ATOM     15  C13 UNL     1      19.714  13.729  20.261  0.00  0.00    +0.204 A 
ENDBRANCH   4  11
BRANCH   1  18
ATOM     16  C6  UNL     1      16.575   7.079  20.271  0.00  0.00    +0.248 C 
ATOM     17  O1  UNL     1      16.540   7.650  21.395  0.00  0.00    -0.270 OA
ATOM     18  N1  UNL     1      16.891   7.843  19.095  0.00  0.00    -0.281 N 
ATOM     19  H6  UNL     1      16.503   7.520  18.180  0.00  0.00    +0.155 HD
BRANCH  16  24
ATOM     20  C1  UNL     1      15.268   1.424  19.922  0.00  0.00    +0.045 C 
ATOM     21  C2  UNL     1      15.584   2.893  20.006  0.00  0.00    -0.030 A 
ATOM     22  C3  UNL     1      16.881   3.299  20.360  0.00  0.00    +0.006 A 
ATOM     23  C4  UNL     1      17.205   4.654  20.446  0.00  0.00    +0.013 A 
ATOM     24  C5  UNL     1      16.240   5.637  20.175  0.00  0.00    +0.039 A 
ATOM     25  C17 UNL     1      14.938   5.234  19.832  0.00  0.00    +0.036 A 
ATOM     26  C18 UNL     1      14.601   3.874  19.742  0.00  0.00    +0.028 A 
BRANCH  26  27
ATOM     27  N6  UNL     1      13.260   3.514  19.380  0.00  0.00    -0.358 N 
ATOM     28  H15 UNL     1      12.688   2.854  19.950  0.00  0.00    +0.142 HD
ATOM     29  H16 UNL     1      12.817   3.915  18.523  0.00  0.00    +0.142 HD
ENDBRANCH  26  27
ENDBRANCH  16  24
ENDBRANCH   1  18
TORSDOF 4
ENDMDL
MODEL 6
REMARK VINA RESULT:    -6.073      2.687      9.355
REMARK INTER + INTRA:          -7.968
REMARK INTER:                  -7.476
REMARK INTRA:                  -0.493
REMARK UNBOUND:                -0.653
REMARK  Name = /home/qwerty/github/datacon2025hack/step_04_hit_selection/docking/ligands/lig_174.pdb
REMARK  5 active torsions:
REMARK  status: ('A' for Active; 'I' for Inactive)
REMARK    1  A    between atoms: C1_1  and  C2_2
REMARK    2  A    between atoms: C5_5  and  C6_6
REMARK    3  A    between atoms: N1_8  and  C7_9
REMARK    4  A    between atoms: C10_12  and  N2_13
REMARK    5  A    between atoms: C18_24  and  N6_25
REMARK                            x       y       z     vdW  Elec       q    Type
REMARK                         _______ _______ _______ _____ _____    ______ ____
ROOT
ATOM      1  C7  UNL     1      11.597   5.182  20.776  0.00  0.00    +0.045 A 
ATOM      2  C8  UNL     1      12.293   6.407  20.883  0.00  0.00    +0.026 A 
ATOM      3  C9  UNL     1      11.591   7.627  20.996  0.00  0.00    +0.030 A 
ATOM      4  C10 UNL     1      10.179   7.654  20.984  0.00  0.00    +0.073 A 
ATOM      5  C14 UNL     1       9.518   6.424  20.871  0.00  0.00    +0.091 A 
ATOM      6  N4  UNL     1       8.197   6.167  20.904  0.00  0.00    -0.275 N 
ATOM      7  N5  UNL     1       8.019   4.855  20.808  0.00  0.00    -0.181 NA
ATOM      8  C15 UNL     1       9.232   4.261  20.716  0.00  0.00    +0.144 A 
ATOM      9  C16 UNL     1      10.200   5.243  20.765  0.00  0.00    +0.043 A 
ATOM     10  H12 UNL     1       7.419   6.851  21.022  0.00  0.00    +0.189 HD
ENDROOT
BRANCH   4  11
ATOM     11  N2  UNL     1       9.470   8.902  21.071  0.00  0.00    -0.304 N 
ATOM     12  C11 UNL     1       8.553   9.245  21.993  0.00  0.00    +0.112 A 
ATOM     13  C12 UNL     1       8.173  10.545  21.749  0.00  0.00    +0.130 A 
ATOM     14  N3  UNL     1       8.857  11.026  20.692  0.00  0.00    -0.244 NA
ATOM     15  C13 UNL     1       9.641   9.998  20.305  0.00  0.00    +0.204 A 
ENDBRANCH   4  11
BRANCH   1  18
ATOM     16  C6  UNL     1      12.765   3.158  21.755  0.00  0.00    +0.248 C 
ATOM     17  O1  UNL     1      12.266   3.337  22.899  0.00  0.00    -0.270 OA
ATOM     18  N1  UNL     1      12.282   3.924  20.639  0.00  0.00    -0.281 N 
ATOM     19  H6  UNL     1      12.346   3.500  19.686  0.00  0.00    +0.155 HD
BRANCH  16  24
ATOM     20  C1  UNL     1      16.849  -0.921  21.047  0.00  0.00    +0.045 C 
ATOM     21  C2  UNL     1      15.787   0.134  21.207  0.00  0.00    -0.030 A 
ATOM     22  C3  UNL     1      15.562   0.698  22.474  0.00  0.00    +0.006 A 
ATOM     23  C4  UNL     1      14.585   1.677  22.654  0.00  0.00    +0.013 A 
ATOM     24  C5  UNL     1      13.811   2.121  21.570  0.00  0.00    +0.039 A 
ATOM     25  C17 UNL     1      14.025   1.550  20.304  0.00  0.00    +0.036 A 
ATOM     26  C18 UNL     1      15.006   0.564  20.110  0.00  0.00    +0.028 A 
BRANCH  26  27
ATOM     27  N6  UNL     1      15.192   0.018  18.797  0.00  0.00    -0.358 N 
ATOM     28  H15 UNL     1      14.917   0.535  17.934  0.00  0.00    +0.142 HD
ATOM     29  H16 UNL     1      15.617  -0.928  18.672  0.00  0.00    +0.142 HD
ENDBRANCH  26  27
ENDBRANCH  16  24
ENDBRANCH   1  18
TORSDOF 4
ENDMDL
MODEL 7
REMARK VINA RESULT:    -6.071      6.326      7.537
REMARK INTER + INTRA:          -7.965
REMARK INTER:                  -7.389
REMARK INTRA:                  -0.577
REMARK UNBOUND:                -0.653
REMARK  Name = /home/qwerty/github/datacon2025hack/step_04_hit_selection/docking/ligands/lig_174.pdb
REMARK  5 active torsions:
REMARK  status: ('A' for Active; 'I' for Inactive)
REMARK    1  A    between atoms: C1_1  and  C2_2
REMARK    2  A    between atoms: C5_5  and  C6_6
REMARK    3  A    between atoms: N1_8  and  C7_9
REMARK    4  A    between atoms: C10_12  and  N2_13
REMARK    5  A    between atoms: C18_24  and  N6_25
REMARK                            x       y       z     vdW  Elec       q    Type
REMARK                         _______ _______ _______ _____ _____    ______ ____
ROOT
ATOM      1  C7  UNL     1      16.472   5.166  20.508  0.00  0.00    +0.045 A 
ATOM      2  C8  UNL     1      17.462   4.443  21.210  0.00  0.00    +0.026 A 
ATOM      3  C9  UNL     1      17.267   3.082  21.536  0.00  0.00    +0.030 A 
ATOM      4  C10 UNL     1      16.070   2.419  21.187  0.00  0.00    +0.073 A 
ATOM      5  C14 UNL     1      15.104   3.165  20.496  0.00  0.00    +0.091 A 
ATOM      6  N4  UNL     1      13.923   2.760  19.994  0.00  0.00    -0.275 N 
ATOM      7  N5  UNL     1      13.353   3.788  19.376  0.00  0.00    -0.181 NA
ATOM      8  C15 UNL     1      14.173   4.861  19.478  0.00  0.00    +0.144 A 
ATOM      9  C16 UNL     1      15.298   4.481  20.179  0.00  0.00    +0.043 A 
ATOM     10  H12 UNL     1      13.511   1.804  20.029  0.00  0.00    +0.189 HD
ENDROOT
BRANCH   4  11
ATOM     11  N2  UNL     1      15.863   1.042  21.546  0.00  0.00    -0.304 N 
ATOM     12  C11 UNL     1      16.442  -0.033  20.983  0.00  0.00    +0.112 A 
ATOM     13  C12 UNL     1      16.019  -1.149  21.667  0.00  0.00    +0.130 A 
ATOM     14  N3  UNL     1      15.193  -0.782  22.667  0.00  0.00    -0.244 NA
ATOM     15  C13 UNL     1      15.124   0.562  22.566  0.00  0.00    +0.204 A 
ENDBRANCH   4  11
BRANCH   1  18
ATOM     16  C6  UNL     1      17.626   7.047  19.264  0.00  0.00    +0.248 C 
ATOM     17  O1  UNL     1      18.127   6.266  18.409  0.00  0.00    -0.270 OA
ATOM     18  N1  UNL     1      16.632   6.557  20.179  0.00  0.00    -0.281 N 
ATOM     19  H6  UNL     1      15.929   7.234  20.551  0.00  0.00    +0.155 HD
BRANCH  16  24
ATOM     20  C1  UNL     1      19.245  12.632  19.294  0.00  0.00    +0.045 C 
ATOM     21  C2  UNL     1      18.803  11.193  19.286  0.00  0.00    -0.030 A 
ATOM     22  C3  UNL     1      19.772  10.175  19.285  0.00  0.00    +0.006 A 
ATOM     23  C4  UNL     1      19.394   8.832  19.279  0.00  0.00    +0.013 A 
ATOM     24  C5  UNL     1      18.036   8.473  19.278  0.00  0.00    +0.039 A 
ATOM     25  C17 UNL     1      17.065   9.488  19.266  0.00  0.00    +0.036 A 
ATOM     26  C18 UNL     1      17.434  10.843  19.273  0.00  0.00    +0.028 A 
BRANCH  26  27
ATOM     27  N6  UNL     1      16.405  11.843  19.269  0.00  0.00    -0.358 N 
ATOM     28  H15 UNL     1      15.654  11.873  19.992  0.00  0.00    +0.142 HD
ATOM     29  H16 UNL     1      16.385  12.579  18.528  0.00  0.00    +0.142 HD
ENDBRANCH  26  27
ENDBRANCH  16  24
ENDBRANCH   1  18
TORSDOF 4
ENDMDL
MODEL 8
REMARK VINA RESULT:    -5.954     10.849     13.254
REMARK INTER + INTRA:          -7.825
REMARK INTER:                  -7.214
REMARK INTRA:                  -0.611
REMARK UNBOUND:                -0.653
REMARK  Name = /home/qwerty/github/datacon2025hack/step_04_hit_selection/docking/ligands/lig_174.pdb
REMARK  5 active torsions:
REMARK  status: ('A' for Active; 'I' for Inactive)
REMARK    1  A    between atoms: C1_1  and  C2_2
REMARK    2  A    between atoms: C5_5  and  C6_6
REMARK    3  A    between atoms: N1_8  and  C7_9
REMARK    4  A    between atoms: C10_12  and  N2_13
REMARK    5  A    between atoms: C18_24  and  N6_25
REMARK                            x       y       z     vdW  Elec       q    Type
REMARK                         _______ _______ _______ _____ _____    ______ ____
ROOT
ATOM      1  C7  UNL     1      10.273  11.905  28.997  0.00  0.00    +0.045 A 
ATOM      2  C8  UNL     1      10.275  11.202  30.222  0.00  0.00    +0.026 A 
ATOM      3  C9  UNL     1      10.948  11.720  31.350  0.00  0.00    +0.030 A 
ATOM      4  C10 UNL     1      11.651  12.943  31.276  0.00  0.00    +0.073 A 
ATOM      5  C14 UNL     1      11.634  13.615  30.045  0.00  0.00    +0.091 A 
ATOM      6  N4  UNL     1      12.158  14.813  29.729  0.00  0.00    -0.275 N 
ATOM      7  N5  UNL     1      11.866  15.081  28.461  0.00  0.00    -0.181 NA
ATOM      8  C15 UNL     1      11.145  14.051  27.959  0.00  0.00    +0.144 A 
ATOM      9  C16 UNL     1      10.979  13.111  28.955  0.00  0.00    +0.043 A 
ATOM     10  H12 UNL     1      12.677  15.465  30.354  0.00  0.00    +0.189 HD
ENDROOT
BRANCH   4  11
ATOM     11  N2  UNL     1      12.358  13.453  32.418  0.00  0.00    -0.304 N 
ATOM     12  C11 UNL     1      11.832  14.127  33.456  0.00  0.00    +0.112 A 
ATOM     13  C12 UNL     1      12.842  14.371  34.358  0.00  0.00    +0.130 A 
ATOM     14  N3  UNL     1      13.994  13.839  33.904  0.00  0.00    -0.244 NA
ATOM     15  C13 UNL     1      13.661  13.284  32.720  0.00  0.00    +0.204 A 
ENDBRANCH   4  11
BRANCH   1  18
ATOM     16  C6  UNL     1      10.228  10.473  26.907  0.00  0.00    +0.248 C 
ATOM     17  O1  UNL     1      11.197   9.763  27.291  0.00  0.00    -0.270 OA
ATOM     18  N1  UNL     1       9.614  11.394  27.825  0.00  0.00    -0.281 N 
ATOM     19  H6  UNL     1       8.607  11.630  27.684  0.00  0.00    +0.155 HD
BRANCH  16  24
ATOM     20  C1  UNL     1       8.187   9.806  21.504  0.00  0.00    +0.045 C 
ATOM     21  C2  UNL     1       8.692   9.982  22.910  0.00  0.00    -0.030 A 
ATOM     22  C3  UNL     1      10.076   9.943  23.154  0.00  0.00    +0.006 A 
ATOM     23  C4  UNL     1      10.575  10.103  24.447  0.00  0.00    +0.013 A 
ATOM     24  C5  UNL     1       9.704  10.309  25.528  0.00  0.00    +0.039 A 
ATOM     25  C17 UNL     1       8.320  10.335  25.290  0.00  0.00    +0.036 A 
ATOM     26  C18 UNL     1       7.805  10.177  23.993  0.00  0.00    +0.028 A 
BRANCH  26  27
ATOM     27  N6  UNL     1       6.385  10.219  23.800  0.00  0.00    -0.358 N 
ATOM     28  H15 UNL     1       5.745   9.505  24.210  0.00  0.00    +0.142 HD
ATOM     29  H16 UNL     1       5.949  10.983  23.235  0.00  0.00    +0.142 HD
ENDBRANCH  26  27
ENDBRANCH  16  24
ENDBRANCH   1  18
TORSDOF 4
ENDMDL
MODEL 9
REMARK VINA RESULT:    -5.889      1.473      2.503
REMARK INTER + INTRA:          -7.746
REMARK INTER:                  -7.069
REMARK INTRA:                  -0.677
REMARK UNBOUND:                -0.653
REMARK  Name = /home/qwerty/github/datacon2025hack/step_04_hit_selection/docking/ligands/lig_174.pdb
REMARK  5 active torsions:
REMARK  status: ('A' for Active; 'I' for Inactive)
REMARK    1  A    between atoms: C1_1  and  C2_2
REMARK    2  A    between atoms: C5_5  and  C6_6
REMARK    3  A    between atoms: N1_8  and  C7_9
REMARK    4  A    between atoms: C10_12  and  N2_13
REMARK    5  A    between atoms: C18_24  and  N6_25
REMARK                            x       y       z     vdW  Elec       q    Type
REMARK                         _______ _______ _______ _____ _____    ______ ____
ROOT
ATOM      1  C7  UNL     1      12.780   1.416  21.981  0.00  0.00    +0.045 A 
ATOM      2  C8  UNL     1      13.894   1.026  21.205  0.00  0.00    +0.026 A 
ATOM      3  C9  UNL     1      14.948   0.282  21.779  0.00  0.00    +0.030 A 
ATOM      4  C10 UNL     1      14.924  -0.072  23.146  0.00  0.00    +0.073 A 
ATOM      5  C14 UNL     1      13.809   0.335  23.891  0.00  0.00    +0.091 A 
ATOM      6  N4  UNL     1      13.509   0.074  25.177  0.00  0.00    -0.275 N 
ATOM      7  N5  UNL     1      12.330   0.617  25.455  0.00  0.00    -0.181 NA
ATOM      8  C15 UNL     1      11.865   1.230  24.341  0.00  0.00    +0.144 A 
ATOM      9  C16 UNL     1      12.788   1.053  23.331  0.00  0.00    +0.043 A 
ATOM     10  H12 UNL     1      14.064  -0.488  25.857  0.00  0.00    +0.189 HD
ENDROOT
BRANCH   4  11
ATOM     11  N2  UNL     1      16.013  -0.804  23.733  0.00  0.00    -0.304 N 
ATOM     12  C11 UNL     1      16.132  -2.141  23.818  0.00  0.00    +0.112 A 
ATOM     13  C12 UNL     1      17.351  -2.423  24.390  0.00  0.00    +0.130 A 
ATOM     14  N3  UNL     1      18.006  -1.273  24.650  0.00  0.00    -0.244 NA
ATOM     15  C13 UNL     1      17.162  -0.306  24.232  0.00  0.00    +0.204 A 
ENDBRANCH   4  11
BRANCH   1  18
ATOM     16  C6  UNL     1      11.600   3.619  21.565  0.00  0.00    +0.248 C 
ATOM     17  O1  UNL     1      12.634   4.298  21.808  0.00  0.00    -0.270 OA
ATOM     18  N1  UNL     1      11.701   2.191  21.431  0.00  0.00    -0.281 N 
ATOM     19  H6  UNL     1      11.005   1.704  20.823  0.00  0.00    +0.155 HD
BRANCH  16  24
ATOM     20  C1  UNL     1       6.514   6.326  20.780  0.00  0.00    +0.045 C 
ATOM     21  C2  UNL     1       7.820   5.611  20.999  0.00  0.00    -0.030 A 
ATOM     22  C3  UNL     1       8.967   6.047  20.314  0.00  0.00    +0.006 A 
ATOM     23  C4  UNL     1      10.192   5.404  20.496  0.00  0.00    +0.013 A 
ATOM     24  C5  UNL     1      10.301   4.312  21.371  0.00  0.00    +0.039 A 
ATOM     25  C17 UNL     1       9.154   3.865  22.048  0.00  0.00    +0.036 A 
ATOM     26  C18 UNL     1       7.916   4.505  21.874  0.00  0.00    +0.028 A 
BRANCH  26  27
ATOM     27  N6  UNL     1       6.775   4.016  22.593  0.00  0.00    -0.358 N 
ATOM     28  H15 UNL     1       6.660   3.009  22.837  0.00  0.00    +0.142 HD
ATOM     29  H16 UNL     1       6.020   4.671  22.896  0.00  0.00    +0.142 HD
ENDBRANCH  26  27
ENDBRANCH  16  24
ENDBRANCH   1  18
TORSDOF 4
ENDMDL
