REMARK  Name = /home/qwerty/github/datacon2025hack/step_04_hit_selection/docking/ligands/lig_471.pdb
REMARK  4 active torsions:
REMARK  status: ('A' for Active; 'I' for Inactive)
REMARK    1  A    between atoms: C1_1  and  N1_2
REMARK    2  A    between atoms: C4_5  and  N2_6
REMARK    3  A    between atoms: C7_9  and  N3_10
REMARK    4  A    between atoms: C8_11  and  C9_13
REMARK                            x       y       z     vdW  Elec       q    Type
REMARK                         _______ _______ _______ _____ _____    ______ ____
ROOT
ATOM      1  N2  UNL     1       1.409  -1.548   0.747  0.00  0.00    -0.297 NA
ATOM      2  C5  UNL     1       0.793  -2.581  -0.107  0.00  0.00    +0.086 C 
ATOM      3  C6  UNL     1      -0.630  -2.143  -0.433  0.00  0.00    +0.039 C 
ATOM      4  C7  UNL     1      -0.664  -0.664  -0.109  0.00  0.00    +0.088 C 
ATOM      5  C15 UNL     1       0.391  -0.510   0.978  0.00  0.00    +0.107 C 
ENDROOT
BRANCH   1  10
ATOM      6  C1  UNL     1       4.317   2.295  -0.143  0.00  0.00    +0.104 C 
ATOM      7  N1  UNL     1       4.793   0.926  -0.407  0.00  0.00    -0.305 NA
ATOM      8  C2  UNL     1       4.030   0.253  -1.481  0.00  0.00    +0.085 C 
ATOM      9  C3  UNL     1       2.627  -0.183  -1.031  0.00  0.00    +0.034 C 
ATOM     10  C4  UNL     1       2.721  -1.069   0.234  0.00  0.00    +0.059 C 
ATOM     11  C16 UNL     1       3.505  -0.343   1.340  0.00  0.00    +0.034 C 
ATOM     12  C17 UNL     1       4.881   0.108   0.822  0.00  0.00    +0.085 C 
ENDBRANCH   1  10
BRANCH   4  13
ATOM     13  N3  UNL     1      -1.994  -0.233   0.337  0.00  0.00    -0.307 N 
ATOM     14  C8  UNL     1      -3.096  -0.118  -0.580  0.00  0.00    +0.244 C 
ATOM     15  O1  UNL     1      -2.967  -0.528  -1.766  0.00  0.00    -0.270 OA
ATOM     16  H14 UNL     1      -2.144  -0.001   1.344  0.00  0.00    +0.149 HD
BRANCH  14  17
ATOM     17  C9  UNL     1      -4.392   0.459  -0.151  0.00  0.00    +0.037 A 
ATOM     18  C10 UNL     1      -5.581   0.078  -0.802  0.00  0.00    +0.016 A 
ATOM     19  C11 UNL     1      -6.809   0.619  -0.409  0.00  0.00    +0.039 A 
ATOM     20  C12 UNL     1      -6.864   1.551   0.629  0.00  0.00    +0.123 A 
ATOM     21  F1  UNL     1      -8.056   2.076   1.007  0.00  0.00    -0.205 F 
ATOM     22  C13 UNL     1      -5.690   1.948   1.273  0.00  0.00    +0.039 A 
ATOM     23  C14 UNL     1      -4.459   1.409   0.886  0.00  0.00    +0.016 A 
ENDBRANCH  14  17
ENDBRANCH   4  13
TORSDOF 3
