REMARK  Name = /home/qwerty/github/datacon2025hack/step_04_hit_selection/docking/ligands/lig_671.pdb
REMARK  7 active torsions:
REMARK  status: ('A' for Active; 'I' for Inactive)
REMARK    1  A    between atoms: C1_1  and  C2_2
REMARK    2  A    between atoms: C4_4  and  C5_5
REMARK    3  A    between atoms: C7_7  and  C8_8
REMARK    4  A    between atoms: C8_8  and  C9_9
REMARK    5  A    between atoms: N1_11  and  C10_12
REMARK    6  A    between atoms: C16_19  and  C17_21
REMARK    7  A    between atoms: C19_24  and  C20_25
REMARK                            x       y       z     vdW  Elec       q    Type
REMARK                         _______ _______ _______ _____ _____    ______ ____
ROOT
ATOM      1  C10 UNL     1       0.688   1.327  -0.622  0.00  0.00    +0.095 C 
ATOM      2  C11 UNL     1       1.454   0.534  -1.705  0.00  0.00    +0.046 C 
ATOM      3  C12 UNL     1       2.894   0.612  -1.180  0.00  0.00    +0.079 C 
ATOM      4  C13 UNL     1       3.429   2.035  -1.407  0.00  0.00    +0.024 C 
ATOM      5  C14 UNL     1       2.671   2.824  -0.330  0.00  0.00    +0.026 C 
ATOM      6  C15 UNL     1       1.835   1.715   0.331  0.00  0.00    +0.097 C 
ATOM      7  N2  UNL     1       2.706   0.558   0.257  0.00  0.00    -0.290 N 
ATOM      8  C16 UNL     1       3.751   0.261   1.197  0.00  0.00    +0.249 C 
ATOM      9  O2  UNL     1       4.011   1.075   2.124  0.00  0.00    -0.270 OA
ENDROOT
BRANCH   8  10
ATOM     10  C17 UNL     1       4.508  -0.999   1.108  0.00  0.00    +0.055 A 
ATOM     11  C18 UNL     1       5.668  -1.305   1.797  0.00  0.00    +0.096 A 
ATOM     12  N3  UNL     1       6.063  -2.555   1.491  0.00  0.00    -0.352 N 
ATOM     13  C19 UNL     1       5.160  -3.045   0.623  0.00  0.00    +0.118 A 
ATOM     14  C21 UNL     1       4.175  -2.115   0.360  0.00  0.00    +0.051 A 
ATOM     15  H22 UNL     1       6.905  -3.047   1.865  0.00  0.00    +0.166 HD
BRANCH  13  16
ATOM     16  C20 UNL     1       5.221  -4.369   0.064  0.00  0.00    +0.117 C 
ATOM     17  N4  UNL     1       5.271  -5.434  -0.386  0.00  0.00    -0.189 NA
ENDBRANCH  13  16
ENDBRANCH   8  10
BRANCH   1  20
ATOM     18  C9  UNL     1      -1.263   1.064   0.975  0.00  0.00    +0.218 C 
ATOM     19  O1  UNL     1      -1.277   2.306   1.194  0.00  0.00    -0.275 OA
ATOM     20  N1  UNL     1      -0.301   0.496   0.075  0.00  0.00    -0.310 N 
ATOM     21  H11 UNL     1      -0.336  -0.534  -0.095  0.00  0.00    +0.149 HD
BRANCH  18  22
ATOM     22  C8  UNL     1      -2.295   0.191   1.620  0.00  0.00    +0.130 C 
BRANCH  22  29
ATOM     23  C1  UNL     1      -4.549  -2.400  -2.066  0.00  0.00    +0.044 C 
ATOM     24  C2  UNL     1      -4.526  -1.230  -1.127  0.00  0.00    -0.050 A 
ATOM     25  C3  UNL     1      -5.599  -0.327  -1.098  0.00  0.00    +0.006 A 
ATOM     26  C4  UNL     1      -5.591   0.759  -0.210  0.00  0.00    -0.050 A 
ATOM     27  C5  UNL     1      -6.751   1.709  -0.169  0.00  0.00    +0.044 C 
ATOM     28  C6  UNL     1      -4.522   0.912   0.686  0.00  0.00    +0.007 A 
ATOM     29  C7  UNL     1      -3.458  -0.003   0.687  0.00  0.00    -0.038 A 
ATOM     30  C22 UNL     1      -3.463  -1.070  -0.226  0.00  0.00    +0.007 A 
ENDBRANCH  22  29
ENDBRANCH  18  22
ENDBRANCH   1  20
TORSDOF 5
