REMARK  Name = /home/qwerty/github/datacon2025hack/step_04_hit_selection/docking/ligands/lig_136.pdb
REMARK  9 active torsions:
REMARK  status: ('A' for Active; 'I' for Inactive)
REMARK    1  A    between atoms: C1_1  and  C2_2
REMARK    2  A    between atoms: C3_4  and  C4_5
REMARK    3  A    between atoms: C5_6  and  C6_7
REMARK    4  A    between atoms: N2_9  and  C7_10
REMARK    5  A    between atoms: C7_10  and  C8_11
REMARK    6  A    between atoms: C7_10  and  C9_12
REMARK    7  A    between atoms: N3_14  and  C11_15
REMARK    8  A    between atoms: C11_15  and  C12_16
REMARK    9  A    between atoms: C13_18  and  C14_19
REMARK                            x       y       z     vdW  Elec       q    Type
REMARK                         _______ _______ _______ _____ _____    ______ ____
ROOT
ATOM      1  C7  UNL     1      -1.283   2.040   0.626  0.00  0.00    +0.076 C 
ATOM      2  C8  UNL     1      -0.564   2.192   1.980  0.00  0.00    +0.028 C 
ENDROOT
BRANCH   1   5
ATOM      3  C6  UNL     1      -3.229   0.633  -0.211  0.00  0.00    +0.281 C 
ATOM      4  O1  UNL     1      -3.621   1.574  -0.954  0.00  0.00    -0.267 OA
ATOM      5  N2  UNL     1      -2.085   0.813   0.638  0.00  0.00    -0.306 N 
ATOM      6  H7  UNL     1      -1.791   0.020   1.254  0.00  0.00    +0.149 HD
BRANCH   3  12
ATOM      7  C1  UNL     1      -4.515  -3.939   1.001  0.00  0.00    +0.109 C 
ATOM      8  C2  UNL     1      -4.508  -2.623   0.303  0.00  0.00    +0.194 A 
ATOM      9  N1  UNL     1      -5.356  -2.312  -0.701  0.00  0.00    -0.218 NA
ATOM     10  C3  UNL     1      -4.993  -1.057  -1.027  0.00  0.00    +0.089 A 
ATOM     11  C4  UNL     1      -5.657  -0.264  -2.110  0.00  0.00    +0.070 C 
ATOM     12  C5  UNL     1      -3.946  -0.656  -0.214  0.00  0.00    +0.212 A 
ATOM     13  O3  UNL     1      -3.672  -1.649   0.593  0.00  0.00    -0.435 OA
ENDBRANCH   3  12
ENDBRANCH   1   5
BRANCH   1  14
ATOM     14  C9  UNL     1      -0.380   2.044  -0.639  0.00  0.00    +0.037 C 
ATOM     15  C10 UNL     1       0.668   3.143  -0.764  0.00  0.00    +0.091 C 
ATOM     16  N3  UNL     1       1.781   2.180  -0.826  0.00  0.00    -0.293 NA
ATOM     17  C17 UNL     1       0.807   1.088  -0.656  0.00  0.00    +0.091 C 
BRANCH  16  18
ATOM     18  C11 UNL     1       2.694   2.318   0.324  0.00  0.00    +0.183 C 
BRANCH  18  19
ATOM     19  C12 UNL     1       3.792   1.309   0.222  0.00  0.00    +0.241 A 
ATOM     20  N4  UNL     1       3.679   0.031   0.626  0.00  0.00    -0.195 NA
ATOM     21  C13 UNL     1       4.892  -0.458   0.289  0.00  0.00    +0.175 A 
ATOM     22  N5  UNL     1       5.691   0.471  -0.272  0.00  0.00    -0.061 NA
ATOM     23  O2  UNL     1       4.970   1.549  -0.303  0.00  0.00    -0.337 OA
BRANCH  21  24
ATOM     24  C14 UNL     1       5.307  -1.870   0.549  0.00  0.00    +0.060 C 
ATOM     25  C15 UNL     1       4.695  -2.869  -0.425  0.00  0.00    +0.012 C 
ATOM     26  C16 UNL     1       6.172  -2.512  -0.530  0.00  0.00    +0.012 C 
ENDBRANCH  21  24
ENDBRANCH  18  19
ENDBRANCH  16  18
ENDBRANCH   1  14
TORSDOF 6
