MODEL 1
REMARK VINA RESULT:    -6.767      0.000      0.000
REMARK INTER + INTRA:          -9.815
REMARK INTER:                  -9.141
REMARK INTRA:                  -0.675
REMARK UNBOUND:                -0.675
REMARK  Name = /home/qwerty/github/datacon2025hack/step_04_hit_selection/docking/ligands/lig_53.pdb
REMARK  8 active torsions:
REMARK  status: ('A' for Active; 'I' for Inactive)
REMARK    1  A    between atoms: C1_1  and  C2_2
REMARK    2  A    between atoms: C2_2  and  C3_3
REMARK    3  A    between atoms: C2_2  and  N8_17
REMARK    4  A    between atoms: C3_3  and  N1_4
REMARK    5  A    between atoms: N1_4  and  C4_5
REMARK    6  A    between atoms: N1_4  and  C5_6
REMARK    7  A    between atoms: C7_9  and  C8_10
REMARK    8  A    between atoms: C10_18  and  C11_20
REMARK                            x       y       z     vdW  Elec       q    Type
REMARK                         _______ _______ _______ _____ _____    ______ ____
ROOT
ATOM      1  C1  UNL     1      19.751   0.851  32.238  0.00  0.00    +0.029 C 
ATOM      2  C2  UNL     1      21.054   1.110  31.470  0.00  0.00    +0.087 C 
ENDROOT
BRANCH   2   3
ATOM      3  N8  UNL     1      21.275   2.551  31.301  0.00  0.00    -0.307 N 
ATOM      4  C10 UNL     1      21.892   3.354  32.321  0.00  0.00    +0.244 C 
ATOM      5  O1  UNL     1      22.043   2.879  33.480  0.00  0.00    -0.270 OA
ATOM      6  H13 UNL     1      20.912   3.019  30.440  0.00  0.00    +0.149 HD
BRANCH   4   7
ATOM      7  C11 UNL     1      22.346   4.738  32.038  0.00  0.00    +0.037 A 
ATOM      8  C12 UNL     1      21.719   5.492  31.020  0.00  0.00    +0.013 A 
ATOM      9  C13 UNL     1      22.125   6.807  30.750  0.00  0.00    +0.004 A 
ATOM     10  C14 UNL     1      23.157   7.361  31.507  0.00  0.00    -0.044 A 
ATOM     11  C15 UNL     1      23.767   6.645  32.502  0.00  0.00    -0.043 A 
ATOM     12  C16 UNL     1      23.383   5.334  32.791  0.00  0.00    +0.017 A 
ATOM     13  C17 UNL     1      24.821   7.426  33.186  0.00  0.00    +0.036 C 
ATOM     14  C18 UNL     1      24.793   8.795  32.477  0.00  0.00    +0.009 C 
ATOM     15  C19 UNL     1      23.715   8.726  31.378  0.00  0.00    +0.036 C 
ENDBRANCH   4   7
ENDBRANCH   2   3
BRANCH   2  16
ATOM     16  C3  UNL     1      21.085   0.385  30.106  0.00  0.00    +0.128 C 
BRANCH  16  17
ATOM     17  N1  UNL     1      22.183   0.862  29.243  0.00  0.00    -0.315 N 
ATOM     18  C4  UNL     1      23.574   0.664  29.667  0.00  0.00    +0.131 C 
BRANCH  17  19
ATOM     19  C5  UNL     1      21.944   1.550  27.995  0.00  0.00    +0.139 A 
ATOM     20  C6  UNL     1      20.976   1.114  27.074  0.00  0.00    +0.155 A 
ATOM     21  N2  UNL     1      20.792   1.802  25.917  0.00  0.00    -0.247 NA
ATOM     22  C7  UNL     1      21.529   2.904  25.616  0.00  0.00    +0.130 A 
ATOM     23  C9  UNL     1      22.506   3.332  26.523  0.00  0.00    +0.144 A 
ATOM     24  N7  UNL     1      22.688   2.647  27.681  0.00  0.00    -0.237 NA
BRANCH  22  25
ATOM     25  C8  UNL     1      21.292   3.617  24.351  0.00  0.00    +0.224 A 
ATOM     26  N3  UNL     1      21.685   4.881  24.097  0.00  0.00    -0.106 NA
ATOM     27  N4  UNL     1      21.274   5.122  22.863  0.00  0.00    -0.048 NA
ATOM     28  N5  UNL     1      20.659   4.050  22.394  0.00  0.00    -0.176 N 
ATOM     29  N6  UNL     1      20.648   3.083  23.295  0.00  0.00    -0.131 NA
ATOM     30  H11 UNL     1      20.240   3.977  21.442  0.00  0.00    +0.214 HD
ENDBRANCH  22  25
ENDBRANCH  17  19
ENDBRANCH  16  17
ENDBRANCH   2  16
TORSDOF 6
ENDMDL
MODEL 2
REMARK VINA RESULT:    -6.682     13.804     15.280
REMARK INTER + INTRA:          -9.701
REMARK INTER:                  -8.551
REMARK INTRA:                  -1.150
REMARK UNBOUND:                -0.675
REMARK  Name = /home/qwerty/github/datacon2025hack/step_04_hit_selection/docking/ligands/lig_53.pdb
REMARK  8 active torsions:
REMARK  status: ('A' for Active; 'I' for Inactive)
REMARK    1  A    between atoms: C1_1  and  C2_2
REMARK    2  A    between atoms: C2_2  and  C3_3
REMARK    3  A    between atoms: C2_2  and  N8_17
REMARK    4  A    between atoms: C3_3  and  N1_4
REMARK    5  A    between atoms: N1_4  and  C4_5
REMARK    6  A    between atoms: N1_4  and  C5_6
REMARK    7  A    between atoms: C7_9  and  C8_10
REMARK    8  A    between atoms: C10_18  and  C11_20
REMARK                            x       y       z     vdW  Elec       q    Type
REMARK                         _______ _______ _______ _____ _____    ______ ____
ROOT
ATOM      1  C1  UNL     1      12.354  14.499  28.927  0.00  0.00    +0.029 C 
ATOM      2  C2  UNL     1      11.030  14.067  29.570  0.00  0.00    +0.087 C 
ENDROOT
BRANCH   2   3
ATOM      3  N8  UNL     1      11.276  13.145  30.685  0.00  0.00    -0.307 N 
ATOM      4  C10 UNL     1      11.458  13.608  32.034  0.00  0.00    +0.244 C 
ATOM      5  O1  UNL     1      11.645  14.837  32.248  0.00  0.00    -0.270 OA
ATOM      6  H13 UNL     1      11.388  12.126  30.482  0.00  0.00    +0.149 HD
BRANCH   4   7
ATOM      7  C11 UNL     1      11.440  12.665  33.179  0.00  0.00    +0.037 A 
ATOM      8  C12 UNL     1      11.742  11.299  32.971  0.00  0.00    +0.013 A 
ATOM      9  C13 UNL     1      11.745  10.396  34.045  0.00  0.00    +0.004 A 
ATOM     10  C14 UNL     1      11.450  10.869  35.323  0.00  0.00    -0.044 A 
ATOM     11  C15 UNL     1      11.165  12.192  35.539  0.00  0.00    -0.043 A 
ATOM     12  C16 UNL     1      11.154  13.111  34.488  0.00  0.00    +0.017 A 
ATOM     13  C17 UNL     1      10.898  12.479  36.966  0.00  0.00    +0.036 C 
ATOM     14  C18 UNL     1      11.070  11.114  37.662  0.00  0.00    +0.009 C 
ATOM     15  C19 UNL     1      11.412  10.078  36.573  0.00  0.00    +0.036 C 
ENDBRANCH   4   7
ENDBRANCH   2   3
BRANCH   2  16
ATOM     16  C3  UNL     1      10.056  13.444  28.546  0.00  0.00    +0.128 C 
BRANCH  16  17
ATOM     17  N1  UNL     1       8.842  12.900  29.185  0.00  0.00    -0.315 N 
ATOM     18  C4  UNL     1       7.812  13.820  29.682  0.00  0.00    +0.131 C 
BRANCH  17  19
ATOM     19  C5  UNL     1       8.634  11.482  29.374  0.00  0.00    +0.139 A 
ATOM     20  C6  UNL     1       7.517  10.814  28.843  0.00  0.00    +0.155 A 
ATOM     21  N2  UNL     1       7.373   9.479  29.049  0.00  0.00    -0.247 NA
ATOM     22  C7  UNL     1       8.281   8.765  29.766  0.00  0.00    +0.130 A 
ATOM     23  C9  UNL     1       9.386   9.430  30.310  0.00  0.00    +0.144 A 
ATOM     24  N7  UNL     1       9.532  10.763  30.103  0.00  0.00    -0.237 NA
BRANCH  22  25
ATOM     25  C8  UNL     1       8.083   7.320  29.960  0.00  0.00    +0.224 A 
ATOM     26  N3  UNL     1       6.885   6.704  29.970  0.00  0.00    -0.106 NA
ATOM     27  N4  UNL     1       7.162   5.426  30.172  0.00  0.00    -0.048 NA
ATOM     28  N5  UNL     1       8.471   5.279  30.280  0.00  0.00    -0.176 N 
ATOM     29  N6  UNL     1       9.086   6.442  30.154  0.00  0.00    -0.131 NA
ATOM     30  H11 UNL     1       8.952   4.368  30.443  0.00  0.00    +0.214 HD
ENDBRANCH  22  25
ENDBRANCH  17  19
ENDBRANCH  16  17
ENDBRANCH   2  16
TORSDOF 6
ENDMDL
MODEL 3
REMARK VINA RESULT:    -6.649      3.316      8.375
REMARK INTER + INTRA:          -9.656
REMARK INTER:                  -9.057
REMARK INTRA:                  -0.599
REMARK UNBOUND:                -0.675
REMARK  Name = /home/qwerty/github/datacon2025hack/step_04_hit_selection/docking/ligands/lig_53.pdb
REMARK  8 active torsions:
REMARK  status: ('A' for Active; 'I' for Inactive)
REMARK    1  A    between atoms: C1_1  and  C2_2
REMARK    2  A    between atoms: C2_2  and  C3_3
REMARK    3  A    between atoms: C2_2  and  N8_17
REMARK    4  A    between atoms: C3_3  and  N1_4
REMARK    5  A    between atoms: N1_4  and  C4_5
REMARK    6  A    between atoms: N1_4  and  C5_6
REMARK    7  A    between atoms: C7_9  and  C8_10
REMARK    8  A    between atoms: C10_18  and  C11_20
REMARK                            x       y       z     vdW  Elec       q    Type
REMARK                         _______ _______ _______ _____ _____    ______ ____
ROOT
ATOM      1  C1  UNL     1      22.547  -0.479  28.837  0.00  0.00    +0.029 C 
ATOM      2  C2  UNL     1      22.071   0.952  29.116  0.00  0.00    +0.087 C 
ENDROOT
BRANCH   2   3
ATOM      3  N8  UNL     1      22.363   1.824  27.971  0.00  0.00    -0.307 N 
ATOM      4  C10 UNL     1      21.449   1.974  26.872  0.00  0.00    +0.244 C 
ATOM      5  O1  UNL     1      20.480   1.175  26.757  0.00  0.00    -0.270 OA
ATOM      6  H13 UNL     1      23.293   2.298  27.923  0.00  0.00    +0.149 HD
BRANCH   4   7
ATOM      7  C11 UNL     1      21.631   3.047  25.863  0.00  0.00    +0.037 A 
ATOM      8  C12 UNL     1      22.562   4.085  26.099  0.00  0.00    +0.013 A 
ATOM      9  C13 UNL     1      22.758   5.099  25.149  0.00  0.00    +0.004 A 
ATOM     10  C14 UNL     1      22.022   5.063  23.965  0.00  0.00    -0.044 A 
ATOM     11  C15 UNL     1      21.124   4.058  23.721  0.00  0.00    -0.043 A 
ATOM     12  C16 UNL     1      20.908   3.037  24.650  0.00  0.00    +0.017 A 
ATOM     13  C17 UNL     1      20.467   4.205  22.403  0.00  0.00    +0.036 C 
ATOM     14  C18 UNL     1      21.099   5.479  21.809  0.00  0.00    +0.009 C 
ATOM     15  C19 UNL     1      22.095   6.030  22.847  0.00  0.00    +0.036 C 
ENDBRANCH   4   7
ENDBRANCH   2   3
BRANCH   2  16
ATOM     16  C3  UNL     1      22.676   1.529  30.414  0.00  0.00    +0.128 C 
BRANCH  16  17
ATOM     17  N1  UNL     1      21.642   1.891  31.403  0.00  0.00    -0.315 N 
ATOM     18  C4  UNL     1      20.377   1.146  31.431  0.00  0.00    +0.131 C 
BRANCH  17  19
ATOM     19  C5  UNL     1      21.809   2.981  32.336  0.00  0.00    +0.139 A 
ATOM     20  C6  UNL     1      20.868   3.251  33.346  0.00  0.00    +0.155 A 
ATOM     21  N2  UNL     1      21.078   4.288  34.198  0.00  0.00    -0.247 NA
ATOM     22  C7  UNL     1      22.176   5.084  34.098  0.00  0.00    +0.130 A 
ATOM     23  C9  UNL     1      23.106   4.828  33.084  0.00  0.00    +0.144 A 
ATOM     24  N7  UNL     1      22.899   3.791  32.234  0.00  0.00    -0.237 NA
BRANCH  22  25
ATOM     25  C8  UNL     1      22.360   6.194  35.046  0.00  0.00    +0.224 A 
ATOM     26  N3  UNL     1      21.361   6.821  35.697  0.00  0.00    -0.106 NA
ATOM     27  N4  UNL     1      21.961   7.741  36.435  0.00  0.00    -0.048 NA
ATOM     28  N5  UNL     1      23.266   7.671  36.236  0.00  0.00    -0.176 N 
ATOM     29  N6  UNL     1      23.559   6.714  35.372  0.00  0.00    -0.131 NA
ATOM     30  H11 UNL     1      23.969   8.287  36.700  0.00  0.00    +0.214 HD
ENDBRANCH  22  25
ENDBRANCH  17  19
ENDBRANCH  16  17
ENDBRANCH   2  16
TORSDOF 6
ENDMDL
MODEL 4
REMARK VINA RESULT:    -6.646      4.597      9.377
REMARK INTER + INTRA:          -9.652
REMARK INTER:                  -8.753
REMARK INTRA:                  -0.899
REMARK UNBOUND:                -0.675
REMARK  Name = /home/qwerty/github/datacon2025hack/step_04_hit_selection/docking/ligands/lig_53.pdb
REMARK  8 active torsions:
REMARK  status: ('A' for Active; 'I' for Inactive)
REMARK    1  A    between atoms: C1_1  and  C2_2
REMARK    2  A    between atoms: C2_2  and  C3_3
REMARK    3  A    between atoms: C2_2  and  N8_17
REMARK    4  A    between atoms: C3_3  and  N1_4
REMARK    5  A    between atoms: N1_4  and  C4_5
REMARK    6  A    between atoms: N1_4  and  C5_6
REMARK    7  A    between atoms: C7_9  and  C8_10
REMARK    8  A    between atoms: C10_18  and  C11_20
REMARK                            x       y       z     vdW  Elec       q    Type
REMARK                         _______ _______ _______ _____ _____    ______ ____
ROOT
ATOM      1  C1  UNL     1      21.795   3.222  25.682  0.00  0.00    +0.029 C 
ATOM      2  C2  UNL     1      21.683   1.933  26.505  0.00  0.00    +0.087 C 
ENDROOT
BRANCH   2   3
ATOM      3  N8  UNL     1      20.279   1.522  26.629  0.00  0.00    -0.307 N 
ATOM      4  C10 UNL     1      19.605   0.783  25.595  0.00  0.00    +0.244 C 
ATOM      5  O1  UNL     1      20.140   0.678  24.458  0.00  0.00    -0.270 OA
ATOM      6  H13 UNL     1      19.734   1.833  27.464  0.00  0.00    +0.149 HD
BRANCH   4   7
ATOM      7  C11 UNL     1      18.286   0.150  25.840  0.00  0.00    +0.037 A 
ATOM      8  C12 UNL     1      17.403   0.707  26.795  0.00  0.00    +0.013 A 
ATOM      9  C13 UNL     1      16.145   0.131  27.028  0.00  0.00    +0.004 A 
ATOM     10  C14 UNL     1      15.778  -0.999  26.298  0.00  0.00    -0.044 A 
ATOM     11  C15 UNL     1      16.620  -1.543  25.364  0.00  0.00    -0.043 A 
ATOM     12  C16 UNL     1      17.877  -0.990  25.113  0.00  0.00    +0.017 A 
ATOM     13  C17 UNL     1      16.026  -2.724  24.698  0.00  0.00    +0.036 C 
ATOM     14  C18 UNL     1      14.634  -2.859  25.346  0.00  0.00    +0.009 C 
ATOM     15  C19 UNL     1      14.499  -1.738  26.395  0.00  0.00    +0.036 C 
ENDBRANCH   4   7
ENDBRANCH   2   3
BRANCH   2  16
ATOM     16  C3  UNL     1      22.341   2.065  27.896  0.00  0.00    +0.128 C 
BRANCH  16  17
ATOM     17  N1  UNL     1      21.952   0.972  28.807  0.00  0.00    -0.315 N 
ATOM     18  C4  UNL     1      22.666  -0.309  28.746  0.00  0.00    +0.131 C 
BRANCH  17  19
ATOM     19  C5  UNL     1      20.865   1.099  29.750  0.00  0.00    +0.139 A 
ATOM     20  C6  UNL     1      20.647   0.157  30.771  0.00  0.00    +0.155 A 
ATOM     21  N2  UNL     1      19.609   0.327  31.631  0.00  0.00    -0.247 NA
ATOM     22  C7  UNL     1      18.763   1.387  31.529  0.00  0.00    +0.130 A 
ATOM     23  C9  UNL     1      18.967   2.318  30.504  0.00  0.00    +0.144 A 
ATOM     24  N7  UNL     1      20.005   2.150  29.645  0.00  0.00    -0.237 NA
BRANCH  22  25
ATOM     25  C8  UNL     1      17.655   1.530  32.486  0.00  0.00    +0.224 A 
ATOM     26  N3  UNL     1      16.632   2.397  32.352  0.00  0.00    -0.106 NA
ATOM     27  N4  UNL     1      15.876   2.197  33.420  0.00  0.00    -0.048 NA
ATOM     28  N5  UNL     1      16.421   1.251  34.165  0.00  0.00    -0.176 N 
ATOM     29  N6  UNL     1      17.538   0.806  33.616  0.00  0.00    -0.131 NA
ATOM     30  H11 UNL     1      16.022   0.903  35.063  0.00  0.00    +0.214 HD
ENDBRANCH  22  25
ENDBRANCH  17  19
ENDBRANCH  16  17
ENDBRANCH   2  16
TORSDOF 6
ENDMDL
MODEL 5
REMARK VINA RESULT:    -6.617     12.580     15.312
REMARK INTER + INTRA:          -9.613
REMARK INTER:                  -8.788
REMARK INTRA:                  -0.825
REMARK UNBOUND:                -0.675
REMARK  Name = /home/qwerty/github/datacon2025hack/step_04_hit_selection/docking/ligands/lig_53.pdb
REMARK  8 active torsions:
REMARK  status: ('A' for Active; 'I' for Inactive)
REMARK    1  A    between atoms: C1_1  and  C2_2
REMARK    2  A    between atoms: C2_2  and  C3_3
REMARK    3  A    between atoms: C2_2  and  N8_17
REMARK    4  A    between atoms: C3_3  and  N1_4
REMARK    5  A    between atoms: N1_4  and  C4_5
REMARK    6  A    between atoms: N1_4  and  C5_6
REMARK    7  A    between atoms: C7_9  and  C8_10
REMARK    8  A    between atoms: C10_18  and  C11_20
REMARK                            x       y       z     vdW  Elec       q    Type
REMARK                         _______ _______ _______ _____ _____    ______ ____
ROOT
ATOM      1  C1  UNL     1       9.768  14.174  36.117  0.00  0.00    +0.029 C 
ATOM      2  C2  UNL     1      10.984  13.562  35.410  0.00  0.00    +0.087 C 
ENDROOT
BRANCH   2   3
ATOM      3  N8  UNL     1      11.013  13.960  33.998  0.00  0.00    -0.307 N 
ATOM      4  C10 UNL     1      12.244  14.114  33.272  0.00  0.00    +0.244 C 
ATOM      5  O1  UNL     1      13.337  14.137  33.901  0.00  0.00    -0.270 OA
ATOM      6  H13 UNL     1      10.114  14.205  33.524  0.00  0.00    +0.149 HD
BRANCH   4   7
ATOM      7  C11 UNL     1      12.252  14.254  31.795  0.00  0.00    +0.037 A 
ATOM      8  C12 UNL     1      13.386  14.794  31.144  0.00  0.00    +0.013 A 
ATOM      9  C13 UNL     1      13.416  14.919  29.747  0.00  0.00    +0.004 A 
ATOM     10  C14 UNL     1      12.310  14.498  29.009  0.00  0.00    -0.044 A 
ATOM     11  C15 UNL     1      11.209  13.965  29.627  0.00  0.00    -0.043 A 
ATOM     12  C16 UNL     1      11.152  13.830  31.016  0.00  0.00    +0.017 A 
ATOM     13  C17 UNL     1      10.162  13.572  28.659  0.00  0.00    +0.036 C 
ATOM     14  C18 UNL     1      10.768  13.925  27.286  0.00  0.00    +0.009 C 
ATOM     15  C19 UNL     1      12.158  14.541  27.538  0.00  0.00    +0.036 C 
ENDBRANCH   4   7
ENDBRANCH   2   3
BRANCH   2  16
ATOM     16  C3  UNL     1      11.031  12.025  35.549  0.00  0.00    +0.128 C 
BRANCH  16  17
ATOM     17  N1  UNL     1      11.833  11.590  36.708  0.00  0.00    -0.315 N 
ATOM     18  C4  UNL     1      11.155  11.150  37.933  0.00  0.00    +0.131 C 
BRANCH  17  19
ATOM     19  C5  UNL     1      13.278  11.607  36.701  0.00  0.00    +0.139 A 
ATOM     20  C6  UNL     1      14.037  10.500  36.282  0.00  0.00    +0.155 A 
ATOM     21  N2  UNL     1      15.393  10.573  36.294  0.00  0.00    -0.247 NA
ATOM     22  C7  UNL     1      16.045  11.691  36.711  0.00  0.00    +0.130 A 
ATOM     23  C9  UNL     1      15.293  12.789  37.145  0.00  0.00    +0.144 A 
ATOM     24  N7  UNL     1      13.938  12.719  37.131  0.00  0.00    -0.237 NA
BRANCH  22  25
ATOM     25  C8  UNL     1      17.516  11.723  36.703  0.00  0.00    +0.224 A 
ATOM     26  N3  UNL     1      18.260  12.649  36.067  0.00  0.00    -0.106 NA
ATOM     27  N4  UNL     1      19.514  12.306  36.316  0.00  0.00    -0.048 NA
ATOM     28  N5  UNL     1      19.524  11.220  37.070  0.00  0.00    -0.176 N 
ATOM     29  N6  UNL     1      18.292  10.822  37.335  0.00  0.00    -0.131 NA
ATOM     30  H11 UNL     1      20.387  10.744  37.409  0.00  0.00    +0.214 HD
ENDBRANCH  22  25
ENDBRANCH  17  19
ENDBRANCH  16  17
ENDBRANCH   2  16
TORSDOF 6
ENDMDL
MODEL 6
REMARK VINA RESULT:    -6.605     13.500     15.819
REMARK INTER + INTRA:          -9.597
REMARK INTER:                  -8.434
REMARK INTRA:                  -1.163
REMARK UNBOUND:                -0.675
REMARK  Name = /home/qwerty/github/datacon2025hack/step_04_hit_selection/docking/ligands/lig_53.pdb
REMARK  8 active torsions:
REMARK  status: ('A' for Active; 'I' for Inactive)
REMARK    1  A    between atoms: C1_1  and  C2_2
REMARK    2  A    between atoms: C2_2  and  C3_3
REMARK    3  A    between atoms: C2_2  and  N8_17
REMARK    4  A    between atoms: C3_3  and  N1_4
REMARK    5  A    between atoms: N1_4  and  C4_5
REMARK    6  A    between atoms: N1_4  and  C5_6
REMARK    7  A    between atoms: C7_9  and  C8_10
REMARK    8  A    between atoms: C10_18  and  C11_20
REMARK                            x       y       z     vdW  Elec       q    Type
REMARK                         _______ _______ _______ _____ _____    ______ ____
ROOT
ATOM      1  C1  UNL     1       7.769   9.014  28.813  0.00  0.00    +0.029 C 
ATOM      2  C2  UNL     1       7.971  10.340  28.068  0.00  0.00    +0.087 C 
ENDROOT
BRANCH   2   3
ATOM      3  N8  UNL     1       8.886  10.159  26.935  0.00  0.00    -0.307 N 
ATOM      4  C10 UNL     1       8.411   9.884  25.605  0.00  0.00    +0.244 C 
ATOM      5  O1  UNL     1       7.205   9.559  25.431  0.00  0.00    -0.270 OA
ATOM      6  H13 UNL     1       9.916  10.164  27.112  0.00  0.00    +0.149 HD
BRANCH   4   7
ATOM      7  C11 UNL     1       9.319   9.967  24.434  0.00  0.00    +0.037 A 
ATOM      8  C12 UNL     1      10.716   9.848  24.615  0.00  0.00    +0.013 A 
ATOM      9  C13 UNL     1      11.587   9.908  23.517  0.00  0.00    +0.004 A 
ATOM     10  C14 UNL     1      11.051  10.083  22.242  0.00  0.00    -0.044 A 
ATOM     11  C15 UNL     1       9.698  10.191  22.052  0.00  0.00    -0.043 A 
ATOM     12  C16 UNL     1       8.809  10.136  23.127  0.00  0.00    +0.017 A 
ATOM     13  C17 UNL     1       9.347  10.356  20.624  0.00  0.00    +0.036 C 
ATOM     14  C18 UNL     1      10.706  10.323  19.897  0.00  0.00    +0.009 C 
ATOM     15  C19 UNL     1      11.802  10.162  20.969  0.00  0.00    +0.036 C 
ENDBRANCH   4   7
ENDBRANCH   2   3
BRANCH   2  16
ATOM     16  C3  UNL     1       8.466  11.467  29.000  0.00  0.00    +0.128 C 
BRANCH  16  17
ATOM     17  N1  UNL     1       8.870  12.675  28.254  0.00  0.00    -0.315 N 
ATOM     18  C4  UNL     1       7.841  13.539  27.665  0.00  0.00    +0.131 C 
BRANCH  17  19
ATOM     19  C5  UNL     1      10.255  13.032  28.051  0.00  0.00    +0.139 A 
ATOM     20  C6  UNL     1      10.756  14.304  28.383  0.00  0.00    +0.155 A 
ATOM     21  N2  UNL     1      12.068  14.585  28.172  0.00  0.00    -0.247 NA
ATOM     22  C7  UNL     1      12.918  13.668  27.637  0.00  0.00    +0.130 A 
ATOM     23  C9  UNL     1      12.420  12.407  27.290  0.00  0.00    +0.144 A 
ATOM     24  N7  UNL     1      11.110  12.124  27.502  0.00  0.00    -0.237 NA
BRANCH  22  25
ATOM     25  C8  UNL     1      14.331  14.018  27.430  0.00  0.00    +0.224 A 
ATOM     26  N3  UNL     1      14.804  15.276  27.329  0.00  0.00    -0.106 NA
ATOM     27  N4  UNL     1      16.107  15.137  27.150  0.00  0.00    -0.048 NA
ATOM     28  N5  UNL     1      16.407  13.849  27.142  0.00  0.00    -0.176 N 
ATOM     29  N6  UNL     1      15.323  13.113  27.314  0.00  0.00    -0.131 NA
ATOM     30  H11 UNL     1      17.369  13.467  27.018  0.00  0.00    +0.214 HD
ENDBRANCH  22  25
ENDBRANCH  17  19
ENDBRANCH  16  17
ENDBRANCH   2  16
TORSDOF 6
ENDMDL
MODEL 7
REMARK VINA RESULT:    -6.444      4.244      7.741
REMARK INTER + INTRA:          -9.379
REMARK INTER:                  -8.157
REMARK INTRA:                  -1.222
REMARK UNBOUND:                -0.675
REMARK  Name = /home/qwerty/github/datacon2025hack/step_04_hit_selection/docking/ligands/lig_53.pdb
REMARK  8 active torsions:
REMARK  status: ('A' for Active; 'I' for Inactive)
REMARK    1  A    between atoms: C1_1  and  C2_2
REMARK    2  A    between atoms: C2_2  and  C3_3
REMARK    3  A    between atoms: C2_2  and  N8_17
REMARK    4  A    between atoms: C3_3  and  N1_4
REMARK    5  A    between atoms: N1_4  and  C4_5
REMARK    6  A    between atoms: N1_4  and  C5_6
REMARK    7  A    between atoms: C7_9  and  C8_10
REMARK    8  A    between atoms: C10_18  and  C11_20
REMARK                            x       y       z     vdW  Elec       q    Type
REMARK                         _______ _______ _______ _____ _____    ______ ____
ROOT
ATOM      1  C1  UNL     1      21.262   0.857  30.486  0.00  0.00    +0.029 C 
ATOM      2  C2  UNL     1      20.648   2.002  31.302  0.00  0.00    +0.087 C 
ENDROOT
BRANCH   2   3
ATOM      3  N8  UNL     1      21.658   3.026  31.593  0.00  0.00    -0.307 N 
ATOM      4  C10 UNL     1      21.575   4.357  31.056  0.00  0.00    +0.244 C 
ATOM      5  O1  UNL     1      20.754   4.603  30.131  0.00  0.00    -0.270 OA
ATOM      6  H13 UNL     1      22.499   2.760  32.155  0.00  0.00    +0.149 HD
BRANCH   4   7
ATOM      7  C11 UNL     1      22.445   5.446  31.565  0.00  0.00    +0.037 A 
ATOM      8  C12 UNL     1      23.244   5.232  32.713  0.00  0.00    +0.013 A 
ATOM      9  C13 UNL     1      24.085   6.245  33.198  0.00  0.00    +0.004 A 
ATOM     10  C14 UNL     1      24.123   7.467  32.526  0.00  0.00    -0.044 A 
ATOM     11  C15 UNL     1      23.361   7.683  31.408  0.00  0.00    -0.043 A 
ATOM     12  C16 UNL     1      22.515   6.693  30.905  0.00  0.00    +0.017 A 
ATOM     13  C17 UNL     1      23.566   9.037  30.848  0.00  0.00    +0.036 C 
ATOM     14  C18 UNL     1      24.610   9.677  31.784  0.00  0.00    +0.009 C 
ATOM     15  C19 UNL     1      24.947   8.645  32.878  0.00  0.00    +0.036 C 
ENDBRANCH   4   7
ENDBRANCH   2   3
BRANCH   2  16
ATOM     16  C3  UNL     1      19.980   1.503  32.602  0.00  0.00    +0.128 C 
BRANCH  16  17
ATOM     17  N1  UNL     1      18.831   2.341  33.000  0.00  0.00    -0.315 N 
ATOM     18  C4  UNL     1      17.511   2.083  32.413  0.00  0.00    +0.131 C 
BRANCH  17  19
ATOM     19  C5  UNL     1      18.958   3.438  33.931  0.00  0.00    +0.139 A 
ATOM     20  C6  UNL     1      18.436   3.375  35.235  0.00  0.00    +0.155 A 
ATOM     21  N2  UNL     1      18.586   4.437  36.070  0.00  0.00    -0.247 NA
ATOM     22  C7  UNL     1      19.226   5.570  35.677  0.00  0.00    +0.130 A 
ATOM     23  C9  UNL     1      19.733   5.642  34.374  0.00  0.00    +0.144 A 
ATOM     24  N7  UNL     1      19.586   4.582  33.540  0.00  0.00    -0.237 NA
BRANCH  22  25
ATOM     25  C8  UNL     1      19.366   6.692  36.618  0.00  0.00    +0.224 A 
ATOM     26  N3  UNL     1      20.165   7.761  36.426  0.00  0.00    -0.106 NA
ATOM     27  N4  UNL     1      19.990   8.513  37.500  0.00  0.00    -0.048 NA
ATOM     28  N5  UNL     1      19.124   7.922  38.305  0.00  0.00    -0.176 N 
ATOM     29  N6  UNL     1      18.709   6.778  37.791  0.00  0.00    -0.131 NA
ATOM     30  H11 UNL     1      18.811   8.308  39.222  0.00  0.00    +0.214 HD
ENDBRANCH  22  25
ENDBRANCH  17  19
ENDBRANCH  16  17
ENDBRANCH   2  16
TORSDOF 6
ENDMDL
MODEL 8
REMARK VINA RESULT:    -6.400     11.933     14.669
REMARK INTER + INTRA:          -9.320
REMARK INTER:                  -7.910
REMARK INTRA:                  -1.409
REMARK UNBOUND:                -0.675
REMARK  Name = /home/qwerty/github/datacon2025hack/step_04_hit_selection/docking/ligands/lig_53.pdb
REMARK  8 active torsions:
REMARK  status: ('A' for Active; 'I' for Inactive)
REMARK    1  A    between atoms: C1_1  and  C2_2
REMARK    2  A    between atoms: C2_2  and  C3_3
REMARK    3  A    between atoms: C2_2  and  N8_17
REMARK    4  A    between atoms: C3_3  and  N1_4
REMARK    5  A    between atoms: N1_4  and  C4_5
REMARK    6  A    between atoms: N1_4  and  C5_6
REMARK    7  A    between atoms: C7_9  and  C8_10
REMARK    8  A    between atoms: C10_18  and  C11_20
REMARK                            x       y       z     vdW  Elec       q    Type
REMARK                         _______ _______ _______ _____ _____    ______ ____
ROOT
ATOM      1  C1  UNL     1      11.895  10.016  20.297  0.00  0.00    +0.029 C 
ATOM      2  C2  UNL     1      11.253   8.745  20.869  0.00  0.00    +0.087 C 
ENDROOT
BRANCH   2   3
ATOM      3  N8  UNL     1      12.006   7.556  20.452  0.00  0.00    -0.307 N 
ATOM      4  C10 UNL     1      12.768   6.768  21.383  0.00  0.00    +0.244 C 
ATOM      5  O1  UNL     1      12.997   7.221  22.538  0.00  0.00    -0.270 OA
ATOM      6  H13 UNL     1      12.043   7.312  19.436  0.00  0.00    +0.149 HD
BRANCH   4   7
ATOM      7  C11 UNL     1      13.300   5.436  21.005  0.00  0.00    +0.037 A 
ATOM      8  C12 UNL     1      12.431   4.455  20.472  0.00  0.00    +0.013 A 
ATOM      9  C13 UNL     1      12.920   3.195  20.095  0.00  0.00    +0.004 A 
ATOM     10  C14 UNL     1      14.280   2.927  20.251  0.00  0.00    -0.044 A 
ATOM     11  C15 UNL     1      15.133   3.871  20.758  0.00  0.00    -0.043 A 
ATOM     12  C16 UNL     1      14.673   5.132  21.142  0.00  0.00    +0.017 A 
ATOM     13  C17 UNL     1      16.529   3.384  20.823  0.00  0.00    +0.036 C 
ATOM     14  C18 UNL     1      16.453   1.953  20.256  0.00  0.00    +0.009 C 
ATOM     15  C19 UNL     1      14.979   1.670  19.905  0.00  0.00    +0.036 C 
ENDBRANCH   4   7
ENDBRANCH   2   3
BRANCH   2  16
ATOM     16  C3  UNL     1       9.764   8.616  20.483  0.00  0.00    +0.128 C 
BRANCH  16  17
ATOM     17  N1  UNL     1       8.967   7.957  21.536  0.00  0.00    -0.315 N 
ATOM     18  C4  UNL     1       7.997   8.743  22.307  0.00  0.00    +0.131 C 
BRANCH  17  19
ATOM     19  C5  UNL     1       9.123   6.559  21.867  0.00  0.00    +0.139 A 
ATOM     20  C6  UNL     1       8.747   5.535  20.980  0.00  0.00    +0.155 A 
ATOM     21  N2  UNL     1       8.919   4.237  21.342  0.00  0.00    -0.247 NA
ATOM     22  C7  UNL     1       9.442   3.895  22.550  0.00  0.00    +0.130 A 
ATOM     23  C9  UNL     1       9.803   4.912  23.442  0.00  0.00    +0.144 A 
ATOM     24  N7  UNL     1       9.634   6.209  23.080  0.00  0.00    -0.237 NA
BRANCH  22  25
ATOM     25  C8  UNL     1       9.611   2.475  22.895  0.00  0.00    +0.224 A 
ATOM     26  N3  UNL     1      10.165   1.549  22.088  0.00  0.00    -0.106 NA
ATOM     27  N4  UNL     1      10.119   0.423  22.780  0.00  0.00    -0.048 NA
ATOM     28  N5  UNL     1       9.559   0.660  23.955  0.00  0.00    -0.176 N 
ATOM     29  N6  UNL     1       9.226   1.934  24.068  0.00  0.00    -0.131 NA
ATOM     30  H11 UNL     1       9.404  -0.061  24.692  0.00  0.00    +0.214 HD
ENDBRANCH  22  25
ENDBRANCH  17  19
ENDBRANCH  16  17
ENDBRANCH   2  16
TORSDOF 6
ENDMDL
MODEL 9
REMARK VINA RESULT:    -6.349     10.259     12.873
REMARK INTER + INTRA:          -9.251
REMARK INTER:                  -7.558
REMARK INTRA:                  -1.692
REMARK UNBOUND:                -0.675
REMARK  Name = /home/qwerty/github/datacon2025hack/step_04_hit_selection/docking/ligands/lig_53.pdb
REMARK  8 active torsions:
REMARK  status: ('A' for Active; 'I' for Inactive)
REMARK    1  A    between atoms: C1_1  and  C2_2
REMARK    2  A    between atoms: C2_2  and  C3_3
REMARK    3  A    between atoms: C2_2  and  N8_17
REMARK    4  A    between atoms: C3_3  and  N1_4
REMARK    5  A    between atoms: N1_4  and  C4_5
REMARK    6  A    between atoms: N1_4  and  C5_6
REMARK    7  A    between atoms: C7_9  and  C8_10
REMARK    8  A    between atoms: C10_18  and  C11_20
REMARK                            x       y       z     vdW  Elec       q    Type
REMARK                         _______ _______ _______ _____ _____    ______ ____
ROOT
ATOM      1  C1  UNL     1      11.193  10.092  37.071  0.00  0.00    +0.029 C 
ATOM      2  C2  UNL     1      12.318  10.906  36.417  0.00  0.00    +0.087 C 
ENDROOT
BRANCH   2   3
ATOM      3  N8  UNL     1      13.629  10.431  36.873  0.00  0.00    -0.307 N 
ATOM      4  C10 UNL     1      14.531   9.724  36.004  0.00  0.00    +0.244 C 
ATOM      5  O1  UNL     1      14.113   9.291  34.896  0.00  0.00    -0.270 OA
ATOM      6  H13 UNL     1      13.888  10.551  37.879  0.00  0.00    +0.149 HD
BRANCH   4   7
ATOM      7  C11 UNL     1      15.943   9.487  36.393  0.00  0.00    +0.037 A 
ATOM      8  C12 UNL     1      16.322   9.558  37.754  0.00  0.00    +0.013 A 
ATOM      9  C13 UNL     1      17.649   9.321  38.140  0.00  0.00    +0.004 A 
ATOM     10  C14 UNL     1      18.590   9.008  37.159  0.00  0.00    -0.044 A 
ATOM     11  C15 UNL     1      18.234   8.927  35.839  0.00  0.00    -0.043 A 
ATOM     12  C16 UNL     1      16.920   9.159  35.427  0.00  0.00    +0.017 A 
ATOM     13  C17 UNL     1      19.380   8.568  34.974  0.00  0.00    +0.036 C 
ATOM     14  C18 UNL     1      20.557   8.411  35.956  0.00  0.00    +0.009 C 
ATOM     15  C19 UNL     1      20.026   8.718  37.370  0.00  0.00    +0.036 C 
ENDBRANCH   4   7
ENDBRANCH   2   3
BRANCH   2  16
ATOM     16  C3  UNL     1      12.165  12.422  36.667  0.00  0.00    +0.128 C 
BRANCH  16  17
ATOM     17  N1  UNL     1      12.971  13.229  35.730  0.00  0.00    -0.315 N 
ATOM     18  C4  UNL     1      12.303  14.185  34.840  0.00  0.00    +0.131 C 
BRANCH  17  19
ATOM     19  C5  UNL     1      14.407  13.095  35.629  0.00  0.00    +0.139 A 
ATOM     20  C6  UNL     1      15.048  12.831  34.406  0.00  0.00    +0.155 A 
ATOM     21  N2  UNL     1      16.401  12.716  34.369  0.00  0.00    -0.247 NA
ATOM     22  C7  UNL     1      17.160  12.844  35.490  0.00  0.00    +0.130 A 
ATOM     23  C9  UNL     1      16.524  13.090  36.712  0.00  0.00    +0.144 A 
ATOM     24  N7  UNL     1      15.172  13.207  36.750  0.00  0.00    -0.237 NA
BRANCH  22  25
ATOM     25  C8  UNL     1      18.622  12.714  35.399  0.00  0.00    +0.224 A 
ATOM     26  N3  UNL     1      19.432  12.403  36.431  0.00  0.00    -0.106 NA
ATOM     27  N4  UNL     1      20.650  12.394  35.916  0.00  0.00    -0.048 NA
ATOM     28  N5  UNL     1      20.578  12.688  34.629  0.00  0.00    -0.176 N 
ATOM     29  N6  UNL     1      19.325  12.896  34.264  0.00  0.00    -0.131 NA
ATOM     30  H11 UNL     1      21.400  12.746  33.989  0.00  0.00    +0.214 HD
ENDBRANCH  22  25
ENDBRANCH  17  19
ENDBRANCH  16  17
ENDBRANCH   2  16
TORSDOF 6
ENDMDL
