REMARK  Name = /home/qwerty/github/datacon2025hack/step_04_hit_selection/docking/ligands/lig_752.pdb
REMARK  5 active torsions:
REMARK  status: ('A' for Active; 'I' for Inactive)
REMARK    1  A    between atoms: C1_1  and  C2_2
REMARK    2  A    between atoms: C3_3  and  C4_4
REMARK    3  A    between atoms: N1_6  and  C5_7
REMARK    4  A    between atoms: N4_16  and  C11_17
REMARK    5  A    between atoms: C14_20  and  C15_21
REMARK                            x       y       z     vdW  Elec       q    Type
REMARK                         _______ _______ _______ _____ _____    ______ ____
ROOT
ATOM      1  C1  UNL     1      -1.187   0.374   0.631  0.00  0.00    +0.068 C 
ATOM      2  C2  UNL     1      -1.253  -0.531  -0.565  0.00  0.00    +0.074 A 
ATOM      3  C3  UNL     1      -2.389  -1.007  -1.203  0.00  0.00    +0.170 A 
ATOM      4  N2  UNL     1      -1.996  -1.651  -2.321  0.00  0.00    -0.124 NA
ATOM      5  N3  UNL     1      -0.673  -1.593  -2.359  0.00  0.00    -0.060 NA
ATOM      6  N4  UNL     1      -0.202  -0.937  -1.310  0.00  0.00    -0.216 N 
ENDROOT
BRANCH   6   7
ATOM      7  C11 UNL     1       1.200  -0.713  -1.083  0.00  0.00    +0.067 A 
ATOM      8  C12 UNL     1       2.043  -0.413  -2.162  0.00  0.00    +0.028 A 
ATOM      9  C13 UNL     1       3.411  -0.212  -1.959  0.00  0.00    +0.010 A 
ATOM     10  C14 UNL     1       3.965  -0.320  -0.671  0.00  0.00    -0.018 A 
ATOM     11  C21 UNL     1       3.121  -0.642   0.406  0.00  0.00    +0.010 A 
ATOM     12  C22 UNL     1       1.753  -0.843   0.201  0.00  0.00    +0.028 A 
BRANCH  10  13
ATOM     13  C15 UNL     1       5.419  -0.106  -0.453  0.00  0.00    -0.018 A 
ATOM     14  C16 UNL     1       6.363  -0.604  -1.372  0.00  0.00    +0.008 A 
ATOM     15  C17 UNL     1       7.730  -0.401  -1.164  0.00  0.00    +0.001 A 
ATOM     16  C18 UNL     1       8.171   0.299  -0.039  0.00  0.00    +0.000 A 
ATOM     17  C19 UNL     1       7.246   0.798   0.880  0.00  0.00    +0.001 A 
ATOM     18  C20 UNL     1       5.877   0.597   0.677  0.00  0.00    +0.008 A 
ENDBRANCH  10  13
ENDBRANCH   6   7
BRANCH   3  19
ATOM     19  C4  UNL     1      -3.801  -0.843  -0.816  0.00  0.00    +0.270 C 
ATOM     20  O1  UNL     1      -4.694  -0.994  -1.693  0.00  0.00    -0.268 OA
ATOM     21  N1  UNL     1      -4.170  -0.596   0.549  0.00  0.00    -0.280 N 
ATOM     22  H4  UNL     1      -3.534  -0.953   1.297  0.00  0.00    +0.155 HD
BRANCH  21  23
ATOM     23  C5  UNL     1      -5.425  -0.017   0.948  0.00  0.00    +0.034 A 
ATOM     24  C6  UNL     1      -6.105   0.899   0.124  0.00  0.00    +0.025 A 
ATOM     25  C7  UNL     1      -7.312   1.466   0.546  0.00  0.00    +0.022 A 
ATOM     26  C8  UNL     1      -7.845   1.134   1.795  0.00  0.00    +0.041 A 
ATOM     27 CL1  UNL     1      -9.358   1.847   2.322  0.00  0.00    -0.084 Cl
ATOM     28  C9  UNL     1      -7.165   0.239   2.627  0.00  0.00    +0.022 A 
ATOM     29  C10 UNL     1      -5.957  -0.328   2.209  0.00  0.00    +0.025 A 
ENDBRANCH  21  23
ENDBRANCH   3  19
TORSDOF 4
