REMARK  Name = /home/qwerty/github/datacon2025hack/step_04_hit_selection/docking/ligands/lig_88.pdb
REMARK  6 active torsions:
REMARK  status: ('A' for Active; 'I' for Inactive)
REMARK    1  A    between atoms: C1_1  and  O1_2
REMARK    2  A    between atoms: O1_2  and  C2_3
REMARK    3  A    between atoms: C5_6  and  N1_7
REMARK    4  A    between atoms: C6_8  and  C7_10
REMARK    5  A    between atoms: C10_13  and  C11_14
REMARK    6  A    between atoms: C12_19  and  O3_20
REMARK                            x       y       z     vdW  Elec       q    Type
REMARK                         _______ _______ _______ _____ _____    ______ ____
ROOT
ATOM      1  C7  UNL     1       1.433  -0.217   0.517  0.00  0.00    +0.041 A 
ATOM      2  C8  UNL     1       1.871   0.871  -0.255  0.00  0.00    +0.014 A 
ATOM      3  C9  UNL     1       3.232   1.072  -0.487  0.00  0.00    +0.016 A 
ATOM      4  C10 UNL     1       4.192   0.191   0.040  0.00  0.00    +0.064 A 
ATOM      5  C12 UNL     1       3.758  -0.888   0.847  0.00  0.00    +0.128 A 
ATOM      6  C13 UNL     1       2.388  -1.094   1.055  0.00  0.00    +0.059 A 
ENDROOT
BRANCH   4   7
ATOM      7  C11 UNL     1       5.614   0.410  -0.309  0.00  0.00    +0.208 A 
ATOM      8  N2  UNL     1       6.525  -0.570  -0.480  0.00  0.00    -0.108 NA
ATOM      9  N3  UNL     1       7.632   0.052  -0.851  0.00  0.00    -0.049 NA
ATOM     10  N4  UNL     1       7.397   1.351  -0.914  0.00  0.00    -0.176 N 
ATOM     11  N5  UNL     1       6.143   1.616  -0.592  0.00  0.00    -0.133 NA
ATOM     12  H9  UNL     1       8.103   2.068  -1.189  0.00  0.00    +0.214 HD
ENDBRANCH   4   7
BRANCH   1  14
ATOM     13  N1  UNL     1      -0.967   0.614   0.598  0.00  0.00    -0.281 N 
ATOM     14  C6  UNL     1      -0.013  -0.451   0.753  0.00  0.00    +0.248 C 
ATOM     15  O2  UNL     1      -0.403  -1.588   1.137  0.00  0.00    -0.270 OA
ATOM     16  H6  UNL     1      -0.637   1.594   0.747  0.00  0.00    +0.155 HD
BRANCH  13  20
ATOM     17  C2  UNL     1      -5.147   0.061   0.000  0.00  0.00    +0.120 A 
ATOM     18  C3  UNL     1      -4.661   1.190   0.668  0.00  0.00    +0.047 A 
ATOM     19  C4  UNL     1      -3.288   1.364   0.863  0.00  0.00    +0.027 A 
ATOM     20  C5  UNL     1      -2.377   0.402   0.405  0.00  0.00    +0.034 A 
ATOM     21  C14 UNL     1      -2.861  -0.724  -0.284  0.00  0.00    +0.027 A 
ATOM     22  C15 UNL     1      -4.235  -0.897  -0.480  0.00  0.00    +0.047 A 
BRANCH  17  24
ATOM     23  C1  UNL     1      -7.164  -1.162  -0.827  0.00  0.00    +0.277 C 
ATOM     24  O1  UNL     1      -6.534  -0.068  -0.169  0.00  0.00    -0.495 OA
ENDBRANCH  17  24
ENDBRANCH  13  20
ENDBRANCH   1  14
BRANCH   5  25
ATOM     25  O3  UNL     1       4.647  -1.754   1.488  0.00  0.00    -0.506 OA
ATOM     26  H10 UNL     1       5.641  -1.588   1.550  0.00  0.00    +0.292 HD
ENDBRANCH   5  25
TORSDOF 5
