REMARK  Name = /home/qwerty/github/datacon2025hack/step_04_hit_selection/docking/ligands/lig_488.pdb
REMARK  6 active torsions:
REMARK  status: ('A' for Active; 'I' for Inactive)
REMARK    1  A    between atoms: C1_1  and  C2_2
REMARK    2  A    between atoms: C4_4  and  C5_5
REMARK    3  A    between atoms: N1_6  and  C6_7
REMARK    4  A    between atoms: C9_10  and  N2_11
REMARK    5  A    between atoms: C10_12  and  C11_14
REMARK    6  A    between atoms: C20_23  and  O2_24
REMARK                            x       y       z     vdW  Elec       q    Type
REMARK                         _______ _______ _______ _____ _____    ______ ____
ROOT
ATOM      1  N2  UNL     1      -0.835   0.224  -0.281  0.00  0.00    -0.280 N 
ATOM      2  C10 UNL     1      -1.788  -0.697   0.280  0.00  0.00    +0.252 C 
ATOM      3  O1  UNL     1      -1.398  -1.627   1.038  0.00  0.00    -0.270 OA
ATOM      4  H10 UNL     1      -1.185   1.072  -0.779  0.00  0.00    +0.155 HD
ENDROOT
BRANCH   2   5
ATOM      5  C11 UNL     1      -3.237  -0.552   0.002  0.00  0.00    +0.079 A 
ATOM      6  C12 UNL     1      -3.818   0.727  -0.071  0.00  0.00    +0.025 A 
ATOM      7  C13 UNL     1      -5.189   0.877  -0.323  0.00  0.00    -0.017 A 
ATOM      8  C14 UNL     1      -5.768   2.154  -0.396  0.00  0.00    +0.008 A 
ATOM      9  C15 UNL     1      -7.136   2.291  -0.646  0.00  0.00    +0.001 A 
ATOM     10  C16 UNL     1      -7.936   1.159  -0.823  0.00  0.00    +0.001 A 
ATOM     11  C17 UNL     1      -7.372  -0.118  -0.750  0.00  0.00    +0.008 A 
ATOM     12  C18 UNL     1      -5.999  -0.269  -0.499  0.00  0.00    -0.014 A 
ATOM     13  C19 UNL     1      -5.424  -1.543  -0.419  0.00  0.00    +0.054 A 
ATOM     14  C20 UNL     1      -4.052  -1.691  -0.170  0.00  0.00    +0.130 A 
BRANCH  14  15
ATOM     15  O2  UNL     1      -3.496  -2.969  -0.108  0.00  0.00    -0.506 OA
ATOM     16  H17 UNL     1      -4.060  -3.802  -0.233  0.00  0.00    +0.292 HD
ENDBRANCH  14  15
ENDBRANCH   2   5
BRANCH   1  20
ATOM     17  C6  UNL     1       3.374  -0.080   0.059  0.00  0.00    +0.154 A 
ATOM     18  C7  UNL     1       2.611  -1.252  -0.075  0.00  0.00    +0.050 A 
ATOM     19  C8  UNL     1       1.222  -1.164  -0.184  0.00  0.00    +0.028 A 
ATOM     20  C9  UNL     1       0.590   0.089  -0.144  0.00  0.00    +0.052 A 
ATOM     21  C21 UNL     1       1.387   1.234  -0.035  0.00  0.00    +0.136 A 
ATOM     22  N3  UNL     1       2.738   1.123   0.069  0.00  0.00    -0.234 NA
BRANCH  17  28
ATOM     23  C1  UNL     1       7.861  -2.047   0.375  0.00  0.00    +0.067 C 
ATOM     24  C2  UNL     1       6.790  -1.013   0.282  0.00  0.00    +0.061 A 
ATOM     25  C3  UNL     1       6.970   0.350   0.397  0.00  0.00    +0.048 A 
ATOM     26  C4  UNL     1       5.693   0.869   0.316  0.00  0.00    +0.044 A 
ATOM     27  C5  UNL     1       5.361   2.328   0.394  0.00  0.00    +0.066 C 
ATOM     28  N1  UNL     1       4.811  -0.152   0.173  0.00  0.00    -0.219 N 
ATOM     29  N4  UNL     1       5.479  -1.297   0.161  0.00  0.00    -0.170 NA
ENDBRANCH  17  28
ENDBRANCH   1  20
TORSDOF 4
