REMARK  Name = /home/qwerty/github/datacon2025hack/step_04_hit_selection/docking/ligands/lig_396.pdb
REMARK  7 active torsions:
REMARK  status: ('A' for Active; 'I' for Inactive)
REMARK    1  A    between atoms: C1_1  and  N1_2
REMARK    2  A    between atoms: N1_2  and  C2_3
REMARK    3  A    between atoms: N1_2  and  C3_4
REMARK    4  A    between atoms: C3_4  and  C4_5
REMARK    5  A    between atoms: C6_7  and  N2_8
REMARK    6  A    between atoms: N3_11  and  C8_12
REMARK    7  A    between atoms: N4_15  and  C11_16
REMARK                            x       y       z     vdW  Elec       q    Type
REMARK                         _______ _______ _______ _____ _____    ______ ____
ROOT
ATOM      1  N2  UNL     1       1.160  -0.842  -0.306  0.00  0.00    -0.269 N 
ATOM      2  C7  UNL     1      -0.006  -1.566   0.117  0.00  0.00    +0.304 C 
ATOM      3  O1  UNL     1      -0.043  -2.104   1.257  0.00  0.00    -0.252 OA
ATOM      4  N3  UNL     1      -1.147  -1.639  -0.748  0.00  0.00    -0.288 N 
ATOM      5  H10 UNL     1       1.057  -0.193  -1.119  0.00  0.00    +0.156 HD
ATOM      6  H11 UNL     1      -1.107  -1.131  -1.661  0.00  0.00    +0.151 HD
ENDROOT
BRANCH   1   9
ATOM      7  C4  UNL     1       4.463   0.275   1.034  0.00  0.00    +0.057 A 
ATOM      8  C5  UNL     1       3.225   0.288   0.377  0.00  0.00    +0.048 A 
ATOM      9  C6  UNL     1       2.418  -0.857   0.390  0.00  0.00    +0.038 A 
ATOM     10  C18 UNL     1       2.889  -2.014   1.032  0.00  0.00    +0.043 A 
ATOM     11  C19 UNL     1       4.130  -1.990   1.672  0.00  0.00    +0.113 A 
ATOM     12  N5  UNL     1       4.882  -0.859   1.661  0.00  0.00    -0.258 NA
BRANCH   7  13
ATOM     13  C3  UNL     1       5.344   1.491   1.027  0.00  0.00    +0.139 C 
BRANCH  13  15
ATOM     14  C1  UNL     1       6.931   0.790  -0.674  0.00  0.00    +0.105 C 
ATOM     15  N1  UNL     1       5.865   1.748  -0.331  0.00  0.00    -0.303 NA
ATOM     16  C2  UNL     1       6.392   3.120  -0.417  0.00  0.00    +0.105 C 
ENDBRANCH  13  15
ENDBRANCH   7  13
ENDBRANCH   1   9
BRANCH   4  17
ATOM     17  C8  UNL     1      -2.398  -2.282  -0.336  0.00  0.00    +0.162 C 
ATOM     18  C9  UNL     1      -3.278  -2.633  -1.553  0.00  0.00    +0.051 C 
ATOM     19  C10 UNL     1      -4.429  -1.609  -1.588  0.00  0.00    +0.116 C 
ATOM     20  N4  UNL     1      -4.382  -0.901  -0.318  0.00  0.00    -0.270 N 
ATOM     21  C17 UNL     1      -3.237  -1.319   0.408  0.00  0.00    +0.240 C 
ATOM     22  O2  UNL     1      -2.987  -0.940   1.583  0.00  0.00    -0.273 OA
BRANCH  20  23
ATOM     23  C11 UNL     1      -5.248   0.198   0.029  0.00  0.00    +0.039 A 
ATOM     24  C12 UNL     1      -4.742   1.336   0.683  0.00  0.00    +0.025 A 
ATOM     25  C13 UNL     1      -5.587   2.402   1.005  0.00  0.00    +0.025 A 
ATOM     26  C14 UNL     1      -6.944   2.348   0.673  0.00  0.00    +0.076 A 
ATOM     27 CL1  UNL     1      -7.995   3.694   1.082  0.00  0.00    -0.081 Cl
ATOM     28  C15 UNL     1      -7.456   1.225   0.013  0.00  0.00    +0.143 A 
ATOM     29  F1  UNL     1      -8.771   1.164  -0.316  0.00  0.00    -0.204 F 
ATOM     30  C16 UNL     1      -6.612   0.157  -0.310  0.00  0.00    +0.063 A 
ENDBRANCH  20  23
ENDBRANCH   4  17
TORSDOF 5
