REMARK  Name = /home/qwerty/github/datacon2025hack/step_04_hit_selection/docking/ligands/lig_407.pdb
REMARK  6 active torsions:
REMARK  status: ('A' for Active; 'I' for Inactive)
REMARK    1  A    between atoms: C1_1  and  N1_2
REMARK    2  A    between atoms: N1_2  and  C2_3
REMARK    3  A    between atoms: N1_2  and  C9_10
REMARK    4  A    between atoms: C2_3  and  C3_4
REMARK    5  A    between atoms: C12_13  and  C13_14
REMARK    6  A    between atoms: C16_20  and  C17_21
REMARK                            x       y       z     vdW  Elec       q    Type
REMARK                         _______ _______ _______ _____ _____    ______ ____
ROOT
ATOM      1  C13 UNL     1      -1.280  -0.846   1.121  0.00  0.00    +0.002 A 
ATOM      2  C14 UNL     1      -1.103  -1.722   2.229  0.00  0.00    +0.121 A 
ATOM      3  N2  UNL     1      -2.138  -1.998   3.078  0.00  0.00    -0.235 NA
ATOM      4  C15 UNL     1      -3.337  -1.409   2.861  0.00  0.00    +0.156 A 
ATOM      5  N3  UNL     1      -4.464  -1.601   3.559  0.00  0.00    -0.260 N 
ATOM      6  N4  UNL     1      -5.425  -0.876   2.998  0.00  0.00    -0.171 NA
ATOM      7  C16 UNL     1      -4.899  -0.210   1.937  0.00  0.00    +0.102 A 
ATOM      8  C22 UNL     1      -3.557  -0.549   1.829  0.00  0.00    +0.047 A 
ATOM      9  C23 UNL     1      -2.550  -0.255   0.915  0.00  0.00    +0.023 A 
ATOM     10  H14 UNL     1      -4.591  -2.219   4.391  0.00  0.00    +0.191 HD
ENDROOT
BRANCH   1  14
ATOM     11  C9  UNL     1       1.958   0.008  -1.559  0.00  0.00    +0.121 A 
ATOM     12  C10 UNL     1       1.793  -1.295  -1.056  0.00  0.00    +0.044 A 
ATOM     13  C11 UNL     1       0.741  -1.574  -0.183  0.00  0.00    +0.013 A 
ATOM     14  C12 UNL     1      -0.157  -0.563   0.191  0.00  0.00    +0.002 A 
ATOM     15  C24 UNL     1       0.032   0.722  -0.340  0.00  0.00    +0.121 A 
ATOM     16  N6  UNL     1       1.067   0.970  -1.185  0.00  0.00    -0.240 NA
BRANCH  11  18
ATOM     17  C1  UNL     1       2.976   1.634  -3.173  0.00  0.00    +0.131 C 
ATOM     18  N1  UNL     1       3.039   0.352  -2.460  0.00  0.00    -0.314 N 
BRANCH  18  19
ATOM     19  C2  UNL     1       4.214  -0.519  -2.640  0.00  0.00    +0.141 C 
BRANCH  19  20
ATOM     20  C3  UNL     1       5.025  -0.587  -1.372  0.00  0.00    -0.030 A 
ATOM     21  C4  UNL     1       5.549   0.588  -0.807  0.00  0.00    +0.005 A 
ATOM     22  C5  UNL     1       6.303   0.530   0.369  0.00  0.00    +0.000 A 
ATOM     23  C6  UNL     1       6.546  -0.701   0.984  0.00  0.00    +0.000 A 
ATOM     24  C7  UNL     1       6.039  -1.876   0.423  0.00  0.00    +0.000 A 
ATOM     25  C8  UNL     1       5.285  -1.822  -0.753  0.00  0.00    +0.005 A 
ENDBRANCH  19  20
ENDBRANCH  18  19
ENDBRANCH  11  18
ENDBRANCH   1  14
BRANCH   7  26
ATOM     26  C17 UNL     1      -5.684   0.696   1.073  0.00  0.00    +0.006 A 
ATOM     27  C18 UNL     1      -7.041   0.430   0.837  0.00  0.00    +0.030 A 
ATOM     28  C19 UNL     1      -7.784   1.295   0.030  0.00  0.00    +0.111 A 
ATOM     29  N5  UNL     1      -7.199   2.395  -0.511  0.00  0.00    -0.263 NA
ATOM     30  C20 UNL     1      -5.891   2.689  -0.285  0.00  0.00    +0.111 A 
ATOM     31  C21 UNL     1      -5.111   1.850   0.515  0.00  0.00    +0.030 A 
ENDBRANCH   7  26
TORSDOF 5
