REMARK  Name = /home/qwerty/github/datacon2025hack/step_04_hit_selection/docking/ligands/lig_717.pdb
REMARK  6 active torsions:
REMARK  status: ('A' for Active; 'I' for Inactive)
REMARK    1  A    between atoms: C1_1  and  C2_2
REMARK    2  A    between atoms: C2_2  and  C3_3
REMARK    3  A    between atoms: C2_2  and  N1_4
REMARK    4  A    between atoms: C6_7  and  C7_8
REMARK    5  A    between atoms: N2_10  and  C8_11
REMARK    6  A    between atoms: N3_17  and  C14_18
REMARK                            x       y       z     vdW  Elec       q    Type
REMARK                         _______ _______ _______ _____ _____    ______ ____
ROOT
ATOM      1  C7  UNL     1      -0.003   0.151  -0.691  0.00  0.00    +0.220 C 
ATOM      2  O1  UNL     1      -0.369   0.437  -1.864  0.00  0.00    -0.275 OA
ATOM      3  N2  UNL     1      -0.977  -0.017   0.352  0.00  0.00    -0.285 N 
ATOM      4  H13 UNL     1      -0.693  -0.550   1.206  0.00  0.00    +0.155 HD
ENDROOT
BRANCH   3   5
ATOM      5  C8  UNL     1      -2.348   0.402   0.246  0.00  0.00    +0.035 A 
ATOM      6  C9  UNL     1      -2.709   1.569  -0.472  0.00  0.00    +0.024 A 
ATOM      7  C10 UNL     1      -4.052   1.975  -0.544  0.00  0.00    +0.007 A 
ATOM      8  C11 UNL     1      -5.015   1.213   0.116  0.00  0.00    -0.025 A 
ATOM      9  C12 UNL     1      -4.671   0.099   0.828  0.00  0.00    +0.034 A 
ATOM     10  C13 UNL     1      -3.345  -0.331   0.920  0.00  0.00    +0.046 A 
ATOM     11  N3  UNL     1      -5.808  -0.500   1.420  0.00  0.00    -0.332 N 
ATOM     12  C14 UNL     1      -5.810  -1.701   2.246  0.00  0.00    +0.129 C 
ATOM     13  C15 UNL     1      -6.994   0.282   1.071  0.00  0.00    +0.109 C 
ATOM     14  C16 UNL     1      -6.485   1.450   0.189  0.00  0.00    +0.056 C 
ENDBRANCH   3   5
BRANCH   1  18
ATOM     15  N1  UNL     1       4.163  -0.330  -0.264  0.00  0.00    -0.300 NA
ATOM     16  C4  UNL     1       3.503  -1.500  -0.891  0.00  0.00    +0.085 C 
ATOM     17  C5  UNL     1       2.019  -1.233  -1.229  0.00  0.00    +0.028 C 
ATOM     18  C6  UNL     1       1.461  -0.065  -0.401  0.00  0.00    +0.078 C 
ATOM     19  C17 UNL     1       2.274   1.224  -0.655  0.00  0.00    +0.028 C 
ATOM     20  C18 UNL     1       3.764   0.934  -0.917  0.00  0.00    +0.085 C 
BRANCH  15  22
ATOM     21  C1  UNL     1       6.431  -0.181  -1.396  0.00  0.00    +0.024 C 
ATOM     22  C2  UNL     1       5.631  -0.526  -0.125  0.00  0.00    +0.050 C 
ATOM     23  C3  UNL     1       6.157   0.261   1.080  0.00  0.00    +0.024 C 
ENDBRANCH  15  22
ENDBRANCH   1  18
TORSDOF 3
