REMARK  Name = /home/qwerty/github/datacon2025hack/step_04_hit_selection/docking/ligands/lig_310.pdb
REMARK  5 active torsions:
REMARK  status: ('A' for Active; 'I' for Inactive)
REMARK    1  A    between atoms: C1_1  and  C2_2
REMARK    2  A    between atoms: C4_4  and  C5_5
REMARK    3  A    between atoms: C7_9  and  O2_10
REMARK    4  A    between atoms: C8_11  and  N2_12
REMARK    5  A    between atoms: C9_13  and  C10_15
REMARK                            x       y       z     vdW  Elec       q    Type
REMARK                         _______ _______ _______ _____ _____    ______ ____
ROOT
ATOM      1  C5  UNL     1       3.821   1.043  -2.026  0.00  0.00    +0.266 C 
ATOM      2  O1  UNL     1       3.858   1.945  -2.905  0.00  0.00    -0.268 OA
ATOM      3  N1  UNL     1       2.714   0.990  -1.109  0.00  0.00    -0.292 N 
ATOM      4  C6  UNL     1       2.860   0.696   0.308  0.00  0.00    +0.141 C 
ATOM      5  C7  UNL     1       1.458   0.847   0.899  0.00  0.00    +0.153 C 
ATOM      6  C8  UNL     1       0.674   1.708  -0.106  0.00  0.00    +0.121 C 
ATOM      7  C17 UNL     1       1.396   1.510  -1.444  0.00  0.00    +0.133 C 
ENDROOT
BRANCH   1  11
ATOM      8  C1  UNL     1       6.079  -3.478  -1.384  0.00  0.00    +0.053 C 
ATOM      9  C2  UNL     1       5.924  -2.014  -1.616  0.00  0.00    +0.007 A 
ATOM     10  C3  UNL     1       4.748  -1.278  -1.575  0.00  0.00    +0.045 A 
ATOM     11  C4  UNL     1       4.926   0.072  -1.962  0.00  0.00    +0.135 A 
ATOM     12  N4  UNL     1       6.182   0.416  -2.355  0.00  0.00    -0.206 NA
ATOM     13  S1  UNL     1       7.085  -0.968  -2.187  0.00  0.00    +0.007 S 
ENDBRANCH   1  11
BRANCH   6  14
ATOM     14  N2  UNL     1      -0.736   1.305  -0.171  0.00  0.00    -0.303 N 
ATOM     15  C9  UNL     1      -1.656   1.599   0.893  0.00  0.00    +0.261 C 
ATOM     16  O3  UNL     1      -1.301   2.349   1.842  0.00  0.00    -0.269 OA
ATOM     17  H10 UNL     1      -1.101   0.848  -1.035  0.00  0.00    +0.149 HD
BRANCH  15  18
ATOM     18  C10 UNL     1      -3.025   1.047   0.885  0.00  0.00    +0.102 A 
ATOM     19  C11 UNL     1      -4.014   1.366   1.818  0.00  0.00    +0.036 A 
ATOM     20  C12 UNL     1      -5.074   0.553   1.485  0.00  0.00    -0.026 A 
ATOM     21  C13 UNL     1      -4.708  -0.203   0.446  0.00  0.00    +0.020 A 
ATOM     22  N3  UNL     1      -3.448   0.054   0.062  0.00  0.00    -0.354 N 
ATOM     23  C14 UNL     1      -5.508  -1.433   0.303  0.00  0.00    +0.054 C 
ATOM     24  C15 UNL     1      -6.593  -1.250   1.397  0.00  0.00    +0.011 C 
ATOM     25  C16 UNL     1      -6.204  -0.010   2.246  0.00  0.00    +0.037 C 
ATOM     26  H12 UNL     1      -2.886  -0.496  -0.623  0.00  0.00    +0.166 HD
ENDBRANCH  15  18
ENDBRANCH   6  14
BRANCH   5  27
ATOM     27  O2  UNL     1       1.485   1.413   2.187  0.00  0.00    -0.388 OA
ATOM     28  H8  UNL     1       1.899   2.313   2.118  0.00  0.00    +0.210 HD
ENDBRANCH   5  27
TORSDOF 4
