REMARK  Name = /home/qwerty/github/datacon2025hack/step_04_hit_selection/docking/ligands/lig_563.pdb
REMARK  5 active torsions:
REMARK  status: ('A' for Active; 'I' for Inactive)
REMARK    1  A    between atoms: C1_1  and  N1_2
REMARK    2  A    between atoms: N1_2  and  C2_3
REMARK    3  A    between atoms: C3_4  and  C4_6
REMARK    4  A    between atoms: C7_9  and  C8_10
REMARK    5  A    between atoms: C11_13  and  C12_14
REMARK                            x       y       z     vdW  Elec       q    Type
REMARK                         _______ _______ _______ _____ _____    ______ ____
ROOT
ATOM      1  C8  UNL     1      -0.301  -1.881  -0.032  0.00  0.00    +0.072 A 
ATOM      2  C9  UNL     1      -1.396  -0.990  -0.144  0.00  0.00    +0.039 A 
ATOM      3  C10 UNL     1      -2.677  -1.541  -0.150  0.00  0.00    +0.011 A 
ATOM      4  C11 UNL     1      -3.932  -0.959  -0.211  0.00  0.00    +0.010 A 
ATOM      5  C18 UNL     1      -4.837  -2.010  -0.081  0.00  0.00    +0.092 A 
ATOM      6  N2  UNL     1      -4.182  -3.187   0.034  0.00  0.00    -0.359 N 
ATOM      7  C19 UNL     1      -2.874  -2.886  -0.008  0.00  0.00    +0.065 A 
ATOM      8  C20 UNL     1      -1.797  -3.755   0.118  0.00  0.00    +0.137 A 
ATOM      9  N3  UNL     1      -0.539  -3.228   0.100  0.00  0.00    -0.253 NA
ATOM     10  H14 UNL     1      -4.610  -4.133   0.149  0.00  0.00    +0.165 HD
ENDROOT
BRANCH   4  11
ATOM     11  C12 UNL     1      -4.271   0.473  -0.346  0.00  0.00    +0.019 A 
ATOM     12  C13 UNL     1      -5.262   1.032   0.477  0.00  0.00    +0.014 A 
ATOM     13  C14 UNL     1      -5.595   2.385   0.364  0.00  0.00    +0.039 A 
ATOM     14  C15 UNL     1      -4.950   3.188  -0.580  0.00  0.00    +0.126 A 
ATOM     15  F1  UNL     1      -5.276   4.499  -0.691  0.00  0.00    -0.205 F 
ATOM     16  C16 UNL     1      -3.978   2.636  -1.418  0.00  0.00    +0.077 A 
ATOM     17  C17 UNL     1      -3.639   1.283  -1.309  0.00  0.00    +0.134 A 
ATOM     18  F2  UNL     1      -2.737   0.759  -2.177  0.00  0.00    -0.205 F 
ENDBRANCH   4  11
BRANCH   1  22
ATOM     19  C4  UNL     1       3.774  -0.480   0.001  0.00  0.00    +0.037 A 
ATOM     20  C5  UNL     1       3.422  -1.671   0.653  0.00  0.00    +0.014 A 
ATOM     21  C6  UNL     1       2.098  -2.119   0.642  0.00  0.00    +0.011 A 
ATOM     22  C7  UNL     1       1.100  -1.388  -0.026  0.00  0.00    +0.000 A 
ATOM     23  C21 UNL     1       1.465  -0.211  -0.707  0.00  0.00    +0.011 A 
ATOM     24  C22 UNL     1       2.789   0.236  -0.695  0.00  0.00    +0.014 A 
BRANCH  19  28
ATOM     25  C1  UNL     1       6.802   1.856  -0.345  0.00  0.00    +0.132 C 
ATOM     26  N1  UNL     1       5.526   1.367   0.183  0.00  0.00    -0.304 N 
ATOM     27  C2  UNL     1       4.692   2.238   1.019  0.00  0.00    +0.132 C 
ATOM     28  C3  UNL     1       5.180  -0.022   0.003  0.00  0.00    +0.246 C 
ATOM     29  O1  UNL     1       6.096  -0.876  -0.148  0.00  0.00    -0.270 OA
ENDBRANCH  19  28
ENDBRANCH   1  22
TORSDOF 3
