REMARK  Name = /home/qwerty/github/datacon2025hack/step_04_hit_selection/docking/ligands/lig_775.pdb
REMARK  4 active torsions:
REMARK  status: ('A' for Active; 'I' for Inactive)
REMARK    1  A    between atoms: C1_1  and  C2_2
REMARK    2  A    between atoms: C4_4  and  N1_5
REMARK    3  A    between atoms: C5_6  and  C6_8
REMARK    4  A    between atoms: C12_15  and  C13_16
REMARK                            x       y       z     vdW  Elec       q    Type
REMARK                         _______ _______ _______ _____ _____    ______ ____
ROOT
ATOM      1  N1  UNL     1       0.772   0.386  -0.573  0.00  0.00    -0.281 N 
ATOM      2  C5  UNL     1       0.196   1.492   0.145  0.00  0.00    +0.252 C 
ATOM      3  O1  UNL     1       0.912   2.207   0.897  0.00  0.00    -0.270 OA
ATOM      4  H5  UNL     1       0.142  -0.208  -1.157  0.00  0.00    +0.155 HD
ENDROOT
BRANCH   2   5
ATOM      5  C6  UNL     1      -1.239   1.811   0.007  0.00  0.00    +0.080 A 
ATOM      6  C7  UNL     1      -1.632   3.146  -0.183  0.00  0.00    +0.017 A 
ATOM      7  C8  UNL     1      -2.981   3.471  -0.342  0.00  0.00    +0.003 A 
ATOM      8  C9  UNL     1      -3.953   2.470  -0.308  0.00  0.00    +0.027 A 
ATOM      9  C10 UNL     1      -3.579   1.138  -0.090  0.00  0.00    +0.076 A 
ATOM     10  C11 UNL     1      -2.226   0.807   0.087  0.00  0.00    +0.155 A 
ATOM     11  O2  UNL     1      -1.872  -0.525   0.342  0.00  0.00    -0.477 OA
ATOM     12  C12 UNL     1      -2.803  -1.517   0.790  0.00  0.00    +0.256 C 
ATOM     13  C13 UNL     1      -2.300  -2.897   0.371  0.00  0.00    +0.062 C 
ATOM     14  C14 UNL     1      -4.191  -1.239   0.264  0.00  0.00    +0.258 C 
ATOM     15  O3  UNL     1      -5.054  -2.158   0.211  0.00  0.00    -0.271 OA
ATOM     16  N2  UNL     1      -4.564   0.100  -0.072  0.00  0.00    -0.280 N 
ATOM     17  H13 UNL     1      -5.559   0.313  -0.309  0.00  0.00    +0.155 HD
ENDBRANCH   2   5
BRANCH   1  21
ATOM     18  C1  UNL     1       5.608   1.683  -0.534  0.00  0.00    +0.065 C 
ATOM     19  C2  UNL     1       4.537   0.640  -0.502  0.00  0.00    +0.041 A 
ATOM     20  C3  UNL     1       3.177   1.018  -0.533  0.00  0.00    +0.047 A 
ATOM     21  C4  UNL     1       2.165   0.033  -0.518  0.00  0.00    +0.045 A 
ATOM     22  C15 UNL     1       2.564  -1.312  -0.512  0.00  0.00    +0.029 A 
ATOM     23  C16 UNL     1       1.743  -2.448  -0.513  0.00  0.00    +0.019 A 
ATOM     24  C17 UNL     1       2.470  -3.639  -0.493  0.00  0.00    +0.048 A 
ATOM     25  S1  UNL     1       4.125  -3.287  -0.473  0.00  0.00    -0.077 S 
ATOM     26  C18 UNL     1       3.910  -1.626  -0.489  0.00  0.00    +0.110 A 
ATOM     27  N3  UNL     1       4.880  -0.681  -0.485  0.00  0.00    -0.245 NA
ENDBRANCH   1  21
TORSDOF 2
