MODEL 1
REMARK VINA RESULT:    -6.426      0.000      0.000
REMARK INTER + INTRA:          -8.845
REMARK INTER:                  -7.553
REMARK INTRA:                  -1.292
REMARK UNBOUND:                -1.292
REMARK  Name = /home/qwerty/github/datacon2025hack/step_04_hit_selection/docking/ligands/lig_212.pdb
REMARK  5 active torsions:
REMARK  status: ('A' for Active; 'I' for Inactive)
REMARK    1  A    between atoms: C2_2  and  C3_3
REMARK    2  A    between atoms: C2_2  and  C4_4
REMARK    3  A    between atoms: C4_4  and  N1_5
REMARK    4  A    between atoms: C5_6  and  C6_7
REMARK    5  A    between atoms: C8_9  and  C9_10
REMARK                            x       y       z     vdW  Elec       q    Type
REMARK                         _______ _______ _______ _____ _____    ______ ____
ROOT
ATOM      1  N1  UNL     1      21.503  14.659  24.401  0.00  0.00    -0.319 N 
ATOM      2  C5  UNL     1      20.783  15.333  23.458  0.00  0.00    +0.144 A 
ATOM      3  N5  UNL     1      20.001  16.310  23.971  0.00  0.00    -0.227 NA
ATOM      4  C13 UNL     1      20.228  16.227  25.290  0.00  0.00    +0.090 A 
ATOM      5  C14 UNL     1      19.675  17.049  26.264  0.00  0.00    +0.032 A 
ATOM      6  C15 UNL     1      20.060  16.849  27.593  0.00  0.00    +0.030 A 
ATOM      7  C16 UNL     1      20.972  15.831  27.930  0.00  0.00    +0.073 A 
ATOM      8  N6  UNL     1      21.312  15.654  29.234  0.00  0.00    -0.255 NA
ATOM      9  C17 UNL     1      22.167  14.677  29.629  0.00  0.00    +0.111 A 
ATOM     10  C18 UNL     1      22.715  13.807  28.688  0.00  0.00    +0.020 A 
ATOM     11  C19 UNL     1      22.392  13.954  27.338  0.00  0.00    +0.013 A 
ATOM     12  C20 UNL     1      21.527  14.985  26.921  0.00  0.00    +0.026 A 
ATOM     13  C21 UNL     1      21.131  15.232  25.577  0.00  0.00    +0.079 A 
ENDROOT
BRANCH   2  14
ATOM     14  C6  UNL     1      20.890  15.125  22.000  0.00  0.00    +0.048 A 
ATOM     15  C7  UNL     1      20.123  14.130  21.354  0.00  0.00    +0.034 A 
ATOM     16  C8  UNL     1      20.238  13.911  19.951  0.00  0.00    +0.015 A 
ATOM     17  C9  UNL     1      19.431  12.826  19.304  0.00  0.00    +0.063 C 
ATOM     18  N2  UNL     1      21.128  14.639  19.201  0.00  0.00    -0.342 N 
ATOM     19  C10 UNL     1      21.869  15.589  19.816  0.00  0.00    +0.159 A 
ATOM     20  N3  UNL     1      22.835  16.343  19.277  0.00  0.00    -0.216 NA
ATOM     21  C11 UNL     1      23.301  17.042  20.350  0.00  0.00    +0.224 A 
ATOM     22  N4  UNL     1      22.695  16.756  21.537  0.00  0.00    -0.232 NA
ATOM     23  C12 UNL     1      21.773  15.843  21.202  0.00  0.00    +0.118 A 
ATOM     24  H12 UNL     1      21.248  14.462  18.178  0.00  0.00    +0.167 HD
ENDBRANCH   2  14
BRANCH   1  25
ATOM     25  C4  UNL     1      22.581  13.695  24.127  0.00  0.00    +0.154 C 
BRANCH  25  27
ATOM     26  C1  UNL     1      24.395  15.396  24.535  0.00  0.00    +0.009 C 
ATOM     27  C2  UNL     1      23.922  14.348  23.836  0.00  0.00    -0.060 C 
ATOM     28  C3  UNL     1      24.742  13.815  22.694  0.00  0.00    +0.040 C 
ENDBRANCH  25  27
ENDBRANCH   1  25
TORSDOF 3
ENDMDL
MODEL 2
REMARK VINA RESULT:    -6.368     11.589     14.195
REMARK INTER + INTRA:          -8.777
REMARK INTER:                  -7.506
REMARK INTRA:                  -1.271
REMARK UNBOUND:                -1.292
REMARK  Name = /home/qwerty/github/datacon2025hack/step_04_hit_selection/docking/ligands/lig_212.pdb
REMARK  5 active torsions:
REMARK  status: ('A' for Active; 'I' for Inactive)
REMARK    1  A    between atoms: C2_2  and  C3_3
REMARK    2  A    between atoms: C2_2  and  C4_4
REMARK    3  A    between atoms: C4_4  and  N1_5
REMARK    4  A    between atoms: C5_6  and  C6_7
REMARK    5  A    between atoms: C8_9  and  C9_10
REMARK                            x       y       z     vdW  Elec       q    Type
REMARK                         _______ _______ _______ _____ _____    ______ ____
ROOT
ATOM      1  N1  UNL     1      17.163  11.995  36.320  0.00  0.00    -0.319 N 
ATOM      2  C5  UNL     1      16.970  13.022  35.443  0.00  0.00    +0.144 A 
ATOM      3  N5  UNL     1      17.914  13.091  34.476  0.00  0.00    -0.227 NA
ATOM      4  C13 UNL     1      18.740  12.078  34.776  0.00  0.00    +0.090 A 
ATOM      5  C14 UNL     1      19.866  11.705  34.055  0.00  0.00    +0.032 A 
ATOM      6  C15 UNL     1      20.589  10.590  34.488  0.00  0.00    +0.030 A 
ATOM      7  C16 UNL     1      20.188   9.877  35.635  0.00  0.00    +0.073 A 
ATOM      8  N6  UNL     1      20.923   8.806  36.037  0.00  0.00    -0.255 NA
ATOM      9  C17 UNL     1      20.605   8.091  37.145  0.00  0.00    +0.111 A 
ATOM     10  C18 UNL     1      19.504   8.454  37.918  0.00  0.00    +0.020 A 
ATOM     11  C19 UNL     1      18.722   9.547  37.541  0.00  0.00    +0.013 A 
ATOM     12  C20 UNL     1      19.033  10.275  36.375  0.00  0.00    +0.026 A 
ATOM     13  C21 UNL     1      18.308  11.400  35.892  0.00  0.00    +0.079 A 
ENDROOT
BRANCH   2  14
ATOM     14  C6  UNL     1      15.807  13.931  35.443  0.00  0.00    +0.048 A 
ATOM     15  C7  UNL     1      15.796  15.090  36.250  0.00  0.00    +0.034 A 
ATOM     16  C8  UNL     1      14.668  15.960  36.269  0.00  0.00    +0.015 A 
ATOM     17  C9  UNL     1      14.678  17.165  37.161  0.00  0.00    +0.063 C 
ATOM     18  N2  UNL     1      13.548  15.667  35.531  0.00  0.00    -0.342 N 
ATOM     19  C10 UNL     1      13.550  14.555  34.761  0.00  0.00    +0.159 A 
ATOM     20  N3  UNL     1      12.538  14.064  34.037  0.00  0.00    -0.216 NA
ATOM     21  C11 UNL     1      13.054  12.899  33.555  0.00  0.00    +0.224 A 
ATOM     22  N4  UNL     1      14.328  12.621  33.950  0.00  0.00    -0.232 NA
ATOM     23  C12 UNL     1      14.655  13.677  34.707  0.00  0.00    +0.118 A 
ATOM     24  H12 UNL     1      12.700  16.278  35.567  0.00  0.00    +0.167 HD
ENDBRANCH   2  14
BRANCH   1  25
ATOM     25  C4  UNL     1      16.199  11.549  37.340  0.00  0.00    +0.154 C 
BRANCH  25  27
ATOM     26  C1  UNL     1      15.280   9.592  36.044  0.00  0.00    +0.009 C 
ATOM     27  C2  UNL     1      15.071  10.699  36.781  0.00  0.00    -0.060 C 
ATOM     28  C3  UNL     1      13.654  11.134  37.039  0.00  0.00    +0.040 C 
ENDBRANCH  25  27
ENDBRANCH   1  25
TORSDOF 3
ENDMDL
MODEL 3
REMARK VINA RESULT:    -6.340     12.664     15.171
REMARK INTER + INTRA:          -8.744
REMARK INTER:                  -7.441
REMARK INTRA:                  -1.302
REMARK UNBOUND:                -1.292
REMARK  Name = /home/qwerty/github/datacon2025hack/step_04_hit_selection/docking/ligands/lig_212.pdb
REMARK  5 active torsions:
REMARK  status: ('A' for Active; 'I' for Inactive)
REMARK    1  A    between atoms: C2_2  and  C3_3
REMARK    2  A    between atoms: C2_2  and  C4_4
REMARK    3  A    between atoms: C4_4  and  N1_5
REMARK    4  A    between atoms: C5_6  and  C6_7
REMARK    5  A    between atoms: C8_9  and  C9_10
REMARK                            x       y       z     vdW  Elec       q    Type
REMARK                         _______ _______ _______ _____ _____    ______ ____
ROOT
ATOM      1  N1  UNL     1       9.599   9.334  24.791  0.00  0.00    -0.319 N 
ATOM      2  C5  UNL     1       8.325   9.388  25.276  0.00  0.00    +0.144 A 
ATOM      3  N5  UNL     1       7.418   9.812  24.366  0.00  0.00    -0.227 NA
ATOM      4  C13 UNL     1       8.162  10.053  23.276  0.00  0.00    +0.090 A 
ATOM      5  C14 UNL     1       7.686  10.484  22.045  0.00  0.00    +0.032 A 
ATOM      6  C15 UNL     1       8.602  10.640  21.000  0.00  0.00    +0.030 A 
ATOM      7  C16 UNL     1       9.971  10.379  21.203  0.00  0.00    +0.073 A 
ATOM      8  N6  UNL     1      10.837  10.556  20.169  0.00  0.00    -0.255 NA
ATOM      9  C17 UNL     1      12.170  10.345  20.303  0.00  0.00    +0.111 A 
ATOM     10  C18 UNL     1      12.693   9.947  21.532  0.00  0.00    +0.020 A 
ATOM     11  C19 UNL     1      11.840   9.754  22.619  0.00  0.00    +0.013 A 
ATOM     12  C20 UNL     1      10.451   9.945  22.477  0.00  0.00    +0.026 A 
ATOM     13  C21 UNL     1       9.488   9.774  23.509  0.00  0.00    +0.079 A 
ENDROOT
BRANCH   2  14
ATOM     14  C6  UNL     1       7.909   8.939  26.619  0.00  0.00    +0.048 A 
ATOM     15  C7  UNL     1       7.487   7.610  26.840  0.00  0.00    +0.034 A 
ATOM     16  C8  UNL     1       7.065   7.178  28.130  0.00  0.00    +0.015 A 
ATOM     17  C9  UNL     1       6.594   5.768  28.320  0.00  0.00    +0.063 C 
ATOM     18  N2  UNL     1       7.022   8.059  29.182  0.00  0.00    -0.342 N 
ATOM     19  C10 UNL     1       7.419   9.336  28.975  0.00  0.00    +0.159 A 
ATOM     20  N3  UNL     1       7.380  10.352  29.846  0.00  0.00    -0.216 NA
ATOM     21  C11 UNL     1       7.798  11.407  29.092  0.00  0.00    +0.224 A 
ATOM     22  N4  UNL     1       8.081  11.115  27.792  0.00  0.00    -0.232 NA
ATOM     23  C12 UNL     1       7.856   9.796  27.714  0.00  0.00    +0.118 A 
ATOM     24  H12 UNL     1       6.678   7.764  30.123  0.00  0.00    +0.167 HD
ENDBRANCH   2  14
BRANCH   1  25
ATOM     25  C4  UNL     1      10.750   8.723  25.476  0.00  0.00    +0.154 C 
BRANCH  25  27
ATOM     26  C1  UNL     1      11.698   9.122  27.777  0.00  0.00    +0.009 C 
ATOM     27  C2  UNL     1      11.342   9.597  26.569  0.00  0.00    -0.060 C 
ATOM     28  C3  UNL     1      11.510  11.066  26.295  0.00  0.00    +0.040 C 
ENDBRANCH  25  27
ENDBRANCH   1  25
TORSDOF 3
ENDMDL
MODEL 4
REMARK VINA RESULT:    -6.336     10.990     13.561
REMARK INTER + INTRA:          -8.739
REMARK INTER:                  -7.501
REMARK INTRA:                  -1.237
REMARK UNBOUND:                -1.292
REMARK  Name = /home/qwerty/github/datacon2025hack/step_04_hit_selection/docking/ligands/lig_212.pdb
REMARK  5 active torsions:
REMARK  status: ('A' for Active; 'I' for Inactive)
REMARK    1  A    between atoms: C2_2  and  C3_3
REMARK    2  A    between atoms: C2_2  and  C4_4
REMARK    3  A    between atoms: C4_4  and  N1_5
REMARK    4  A    between atoms: C5_6  and  C6_7
REMARK    5  A    between atoms: C8_9  and  C9_10
REMARK                            x       y       z     vdW  Elec       q    Type
REMARK                         _______ _______ _______ _____ _____    ______ ____
ROOT
ATOM      1  N1  UNL     1      11.979  12.602  32.903  0.00  0.00    -0.319 N 
ATOM      2  C5  UNL     1      11.769  13.800  32.285  0.00  0.00    +0.144 A 
ATOM      3  N5  UNL     1      11.138  14.707  33.065  0.00  0.00    -0.227 NA
ATOM      4  C13 UNL     1      10.929  14.039  34.209  0.00  0.00    +0.090 A 
ATOM      5  C14 UNL     1      10.332  14.551  35.353  0.00  0.00    +0.032 A 
ATOM      6  C15 UNL     1      10.235  13.724  36.476  0.00  0.00    +0.030 A 
ATOM      7  C16 UNL     1      10.719  12.402  36.436  0.00  0.00    +0.073 A 
ATOM      8  N6  UNL     1      10.595  11.619  37.540  0.00  0.00    -0.255 NA
ATOM      9  C17 UNL     1      11.020  10.331  37.560  0.00  0.00    +0.111 A 
ATOM     10  C18 UNL     1      11.591   9.766  36.422  0.00  0.00    +0.020 A 
ATOM     11  C19 UNL     1      11.737  10.535  35.266  0.00  0.00    +0.013 A 
ATOM     12  C20 UNL     1      11.323  11.881  35.250  0.00  0.00    +0.026 A 
ATOM     13  C21 UNL     1      11.426  12.760  34.135  0.00  0.00    +0.079 A 
ENDROOT
BRANCH   2  14
ATOM     14  C6  UNL     1      12.254  14.156  30.937  0.00  0.00    +0.048 A 
ATOM     15  C7  UNL     1      13.547  14.693  30.752  0.00  0.00    +0.034 A 
ATOM     16  C8  UNL     1      14.013  15.057  29.456  0.00  0.00    +0.015 A 
ATOM     17  C9  UNL     1      15.380  15.652  29.302  0.00  0.00    +0.063 C 
ATOM     18  N2  UNL     1      13.196  14.930  28.360  0.00  0.00    -0.342 N 
ATOM     19  C10 UNL     1      11.954  14.422  28.532  0.00  0.00    +0.159 A 
ATOM     20  N3  UNL     1      10.993  14.292  27.609  0.00  0.00    -0.216 NA
ATOM     21  C11 UNL     1       9.940  13.828  28.339  0.00  0.00    +0.224 A 
ATOM     22  N4  UNL     1      10.180  13.675  29.672  0.00  0.00    -0.232 NA
ATOM     23  C12 UNL     1      11.463  14.038  29.799  0.00  0.00    +0.118 A 
ATOM     24  H12 UNL     1      13.513  15.230  27.410  0.00  0.00    +0.167 HD
ENDBRANCH   2  14
BRANCH   1  25
ATOM     25  C4  UNL     1      12.814  11.506  32.383  0.00  0.00    +0.154 C 
BRANCH  25  27
ATOM     26  C1  UNL     1      12.810  10.247  30.200  0.00  0.00    +0.009 C 
ATOM     27  C2  UNL     1      12.147  10.704  31.278  0.00  0.00    -0.060 C 
ATOM     28  C3  UNL     1      10.670  10.437  31.383  0.00  0.00    +0.040 C 
ENDBRANCH  25  27
ENDBRANCH   1  25
TORSDOF 3
ENDMDL
MODEL 5
REMARK VINA RESULT:    -6.287     10.837     13.977
REMARK INTER + INTRA:          -8.682
REMARK INTER:                  -7.469
REMARK INTRA:                  -1.213
REMARK UNBOUND:                -1.292
REMARK  Name = /home/qwerty/github/datacon2025hack/step_04_hit_selection/docking/ligands/lig_212.pdb
REMARK  5 active torsions:
REMARK  status: ('A' for Active; 'I' for Inactive)
REMARK    1  A    between atoms: C2_2  and  C3_3
REMARK    2  A    between atoms: C2_2  and  C4_4
REMARK    3  A    between atoms: C4_4  and  N1_5
REMARK    4  A    between atoms: C5_6  and  C6_7
REMARK    5  A    between atoms: C8_9  and  C9_10
REMARK                            x       y       z     vdW  Elec       q    Type
REMARK                         _______ _______ _______ _____ _____    ______ ____
ROOT
ATOM      1  N1  UNL     1      17.552  12.151  35.573  0.00  0.00    -0.319 N 
ATOM      2  C5  UNL     1      16.398  12.383  36.263  0.00  0.00    +0.144 A 
ATOM      3  N5  UNL     1      16.209  11.535  37.300  0.00  0.00    -0.227 NA
ATOM      4  C13 UNL     1      17.280  10.729  37.240  0.00  0.00    +0.090 A 
ATOM      5  C14 UNL     1      17.572   9.696  38.121  0.00  0.00    +0.032 A 
ATOM      6  C15 UNL     1      18.760   8.985  37.935  0.00  0.00    +0.030 A 
ATOM      7  C16 UNL     1      19.627   9.303  36.872  0.00  0.00    +0.073 A 
ATOM      8  N6  UNL     1      20.768   8.581  36.711  0.00  0.00    -0.255 NA
ATOM      9  C17 UNL     1      21.634   8.821  35.694  0.00  0.00    +0.111 A 
ATOM     10  C18 UNL     1      21.361   9.824  34.767  0.00  0.00    +0.020 A 
ATOM     11  C19 UNL     1      20.201  10.590  34.896  0.00  0.00    +0.013 A 
ATOM     12  C20 UNL     1      19.313  10.362  35.966  0.00  0.00    +0.026 A 
ATOM     13  C21 UNL     1      18.107  11.080  36.200  0.00  0.00    +0.079 A 
ENDROOT
BRANCH   2  14
ATOM     14  C6  UNL     1      15.466  13.499  36.008  0.00  0.00    +0.048 A 
ATOM     15  C7  UNL     1      15.677  14.766  36.594  0.00  0.00    +0.034 A 
ATOM     16  C8  UNL     1      14.770  15.840  36.367  0.00  0.00    +0.015 A 
ATOM     17  C9  UNL     1      15.009  17.163  37.031  0.00  0.00    +0.063 C 
ATOM     18  N2  UNL     1      13.645  15.654  35.603  0.00  0.00    -0.342 N 
ATOM     19  C10 UNL     1      13.434  14.441  35.044  0.00  0.00    +0.159 A 
ATOM     20  N3  UNL     1      12.369  14.045  34.336  0.00  0.00    -0.216 NA
ATOM     21  C11 UNL     1      12.635  12.727  34.110  0.00  0.00    +0.224 A 
ATOM     22  N4  UNL     1      13.797  12.269  34.652  0.00  0.00    -0.232 NA
ATOM     23  C12 UNL     1      14.318  13.357  35.235  0.00  0.00    +0.118 A 
ATOM     24  H12 UNL     1      12.952  16.424  35.461  0.00  0.00    +0.167 HD
ENDBRANCH   2  14
BRANCH   1  25
ATOM     25  C4  UNL     1      18.120  13.030  34.537  0.00  0.00    +0.154 C 
BRANCH  25  27
ATOM     26  C1  UNL     1      17.100  11.541  32.778  0.00  0.00    +0.009 C 
ATOM     27  C2  UNL     1      17.602  12.736  33.139  0.00  0.00    -0.060 C 
ATOM     28  C3  UNL     1      17.684  13.825  32.104  0.00  0.00    +0.040 C 
ENDBRANCH  25  27
ENDBRANCH   1  25
TORSDOF 3
ENDMDL
MODEL 6
REMARK VINA RESULT:    -6.245     10.940     14.104
REMARK INTER + INTRA:          -8.632
REMARK INTER:                  -7.435
REMARK INTRA:                  -1.197
REMARK UNBOUND:                -1.292
REMARK  Name = /home/qwerty/github/datacon2025hack/step_04_hit_selection/docking/ligands/lig_212.pdb
REMARK  5 active torsions:
REMARK  status: ('A' for Active; 'I' for Inactive)
REMARK    1  A    between atoms: C2_2  and  C3_3
REMARK    2  A    between atoms: C2_2  and  C4_4
REMARK    3  A    between atoms: C4_4  and  N1_5
REMARK    4  A    between atoms: C5_6  and  C6_7
REMARK    5  A    between atoms: C8_9  and  C9_10
REMARK                            x       y       z     vdW  Elec       q    Type
REMARK                         _______ _______ _______ _____ _____    ______ ____
ROOT
ATOM      1  N1  UNL     1      21.763   5.006  31.370  0.00  0.00    -0.319 N 
ATOM      2  C5  UNL     1      22.152   3.797  31.870  0.00  0.00    +0.144 A 
ATOM      3  N5  UNL     1      23.241   3.869  32.669  0.00  0.00    -0.227 NA
ATOM      4  C13 UNL     1      23.555   5.173  32.649  0.00  0.00    +0.090 A 
ATOM      5  C14 UNL     1      24.595   5.771  33.349  0.00  0.00    +0.032 A 
ATOM      6  C15 UNL     1      24.750   7.156  33.247  0.00  0.00    +0.030 A 
ATOM      7  C16 UNL     1      23.879   7.917  32.443  0.00  0.00    +0.073 A 
ATOM      8  N6  UNL     1      24.068   9.261  32.354  0.00  0.00    -0.255 NA
ATOM      9  C17 UNL     1      23.280  10.048  31.580  0.00  0.00    +0.111 A 
ATOM     10  C18 UNL     1      22.248   9.483  30.833  0.00  0.00    +0.020 A 
ATOM     11  C19 UNL     1      22.020   8.108  30.895  0.00  0.00    +0.013 A 
ATOM     12  C20 UNL     1      22.818   7.291  31.720  0.00  0.00    +0.026 A 
ATOM     13  C21 UNL     1      22.676   5.883  31.866  0.00  0.00    +0.079 A 
ENDROOT
BRANCH   2  14
ATOM     14  C6  UNL     1      21.430   2.525  31.673  0.00  0.00    +0.048 A 
ATOM     15  C7  UNL     1      20.368   2.156  32.527  0.00  0.00    +0.034 A 
ATOM     16  C8  UNL     1      19.682   0.920  32.353  0.00  0.00    +0.015 A 
ATOM     17  C9  UNL     1      18.580   0.547  33.299  0.00  0.00    +0.063 C 
ATOM     18  N2  UNL     1      20.066   0.040  31.372  0.00  0.00    -0.342 N 
ATOM     19  C10 UNL     1      21.087   0.385  30.555  0.00  0.00    +0.159 A 
ATOM     20  N3  UNL     1      21.651  -0.361  29.597  0.00  0.00    -0.216 NA
ATOM     21  C11 UNL     1      22.675   0.429  29.169  0.00  0.00    +0.224 A 
ATOM     22  N4  UNL     1      22.797   1.623  29.815  0.00  0.00    -0.232 NA
ATOM     23  C12 UNL     1      21.781   1.607  30.688  0.00  0.00    +0.118 A 
ATOM     24  H12 UNL     1      19.595  -0.886  31.260  0.00  0.00    +0.167 HD
ENDBRANCH   2  14
BRANCH   1  25
ATOM     25  C4  UNL     1      20.507   5.268  30.647  0.00  0.00    +0.154 C 
BRANCH  25  27
ATOM     26  C1  UNL     1      21.452   4.857  28.347  0.00  0.00    +0.009 C 
ATOM     27  C2  UNL     1      20.473   4.669  29.251  0.00  0.00    -0.060 C 
ATOM     28  C3  UNL     1      19.272   3.855  28.853  0.00  0.00    +0.040 C 
ENDBRANCH  25  27
ENDBRANCH   1  25
TORSDOF 3
ENDMDL
MODEL 7
REMARK VINA RESULT:    -6.202     11.980     15.337
REMARK INTER + INTRA:          -8.581
REMARK INTER:                  -7.316
REMARK INTRA:                  -1.265
REMARK UNBOUND:                -1.292
REMARK  Name = /home/qwerty/github/datacon2025hack/step_04_hit_selection/docking/ligands/lig_212.pdb
REMARK  5 active torsions:
REMARK  status: ('A' for Active; 'I' for Inactive)
REMARK    1  A    between atoms: C2_2  and  C3_3
REMARK    2  A    between atoms: C2_2  and  C4_4
REMARK    3  A    between atoms: C4_4  and  N1_5
REMARK    4  A    between atoms: C5_6  and  C6_7
REMARK    5  A    between atoms: C8_9  and  C9_10
REMARK                            x       y       z     vdW  Elec       q    Type
REMARK                         _______ _______ _______ _____ _____    ______ ____
ROOT
ATOM      1  N1  UNL     1      21.905   4.328  33.092  0.00  0.00    -0.319 N 
ATOM      2  C5  UNL     1      21.186   4.818  34.143  0.00  0.00    +0.144 A 
ATOM      3  N5  UNL     1      20.101   4.070  34.449  0.00  0.00    -0.227 NA
ATOM      4  C13 UNL     1      20.136   3.086  33.539  0.00  0.00    +0.090 A 
ATOM      5  C14 UNL     1      19.240   2.028  33.449  0.00  0.00    +0.032 A 
ATOM      6  C15 UNL     1      19.455   1.063  32.461  0.00  0.00    +0.030 A 
ATOM      7  C16 UNL     1      20.544   1.174  31.575  0.00  0.00    +0.073 A 
ATOM      8  N6  UNL     1      20.714   0.226  30.616  0.00  0.00    -0.255 NA
ATOM      9  C17 UNL     1      21.728   0.285  29.716  0.00  0.00    +0.111 A 
ATOM     10  C18 UNL     1      22.627   1.349  29.748  0.00  0.00    +0.020 A 
ATOM     11  C19 UNL     1      22.488   2.345  30.717  0.00  0.00    +0.013 A 
ATOM     12  C20 UNL     1      21.453   2.272  31.670  0.00  0.00    +0.026 A 
ATOM     13  C21 UNL     1      21.218   3.222  32.702  0.00  0.00    +0.079 A 
ENDROOT
BRANCH   2  14
ATOM     14  C6  UNL     1      21.567   5.985  34.962  0.00  0.00    +0.048 A 
ATOM     15  C7  UNL     1      22.352   5.826  36.125  0.00  0.00    +0.034 A 
ATOM     16  C8  UNL     1      22.706   6.947  36.930  0.00  0.00    +0.015 A 
ATOM     17  C9  UNL     1      23.514   6.737  38.175  0.00  0.00    +0.063 C 
ATOM     18  N2  UNL     1      22.256   8.204  36.613  0.00  0.00    -0.342 N 
ATOM     19  C10 UNL     1      21.498   8.362  35.503  0.00  0.00    +0.159 A 
ATOM     20  N3  UNL     1      20.909   9.483  35.073  0.00  0.00    -0.216 NA
ATOM     21  C11 UNL     1      20.207   9.053  33.987  0.00  0.00    +0.224 A 
ATOM     22  N4  UNL     1      20.308   7.720  33.722  0.00  0.00    -0.232 NA
ATOM     23  C12 UNL     1      21.139   7.277  34.674  0.00  0.00    +0.118 A 
ATOM     24  H12 UNL     1      22.477   9.028  37.217  0.00  0.00    +0.167 HD
ENDBRANCH   2  14
BRANCH   1  25
ATOM     25  C4  UNL     1      23.232   4.807  32.667  0.00  0.00    +0.154 C 
BRANCH  25  27
ATOM     26  C1  UNL     1      23.998   7.178  32.290  0.00  0.00    +0.009 C 
ATOM     27  C2  UNL     1      23.196   6.150  31.957  0.00  0.00    -0.060 C 
ATOM     28  C3  UNL     1      22.194   6.346  30.852  0.00  0.00    +0.040 C 
ENDBRANCH  25  27
ENDBRANCH   1  25
TORSDOF 3
ENDMDL
MODEL 8
REMARK VINA RESULT:    -6.108     10.345     14.515
REMARK INTER + INTRA:          -8.471
REMARK INTER:                  -7.271
REMARK INTRA:                  -1.200
REMARK UNBOUND:                -1.292
REMARK  Name = /home/qwerty/github/datacon2025hack/step_04_hit_selection/docking/ligands/lig_212.pdb
REMARK  5 active torsions:
REMARK  status: ('A' for Active; 'I' for Inactive)
REMARK    1  A    between atoms: C2_2  and  C3_3
REMARK    2  A    between atoms: C2_2  and  C4_4
REMARK    3  A    between atoms: C4_4  and  N1_5
REMARK    4  A    between atoms: C5_6  and  C6_7
REMARK    5  A    between atoms: C8_9  and  C9_10
REMARK                            x       y       z     vdW  Elec       q    Type
REMARK                         _______ _______ _______ _____ _____    ______ ____
ROOT
ATOM      1  N1  UNL     1      12.506  13.621  32.705  0.00  0.00    -0.319 N 
ATOM      2  C5  UNL     1      13.807  13.663  33.114  0.00  0.00    +0.144 A 
ATOM      3  N5  UNL     1      14.692  13.729  32.093  0.00  0.00    -0.227 NA
ATOM      4  C13 UNL     1      13.911  13.706  31.003  0.00  0.00    +0.090 A 
ATOM      5  C14 UNL     1      14.347  13.785  29.688  0.00  0.00    +0.032 A 
ATOM      6  C15 UNL     1      13.386  13.792  28.672  0.00  0.00    +0.030 A 
ATOM      7  C16 UNL     1      12.015  13.708  28.982  0.00  0.00    +0.073 A 
ATOM      8  N6  UNL     1      11.108  13.702  27.970  0.00  0.00    -0.255 NA
ATOM      9  C17 UNL     1       9.775  13.600  28.199  0.00  0.00    +0.111 A 
ATOM     10  C18 UNL     1       9.298  13.482  29.502  0.00  0.00    +0.020 A 
ATOM     11  C19 UNL     1      10.195  13.483  30.572  0.00  0.00    +0.013 A 
ATOM     12  C20 UNL     1      11.578  13.618  30.340  0.00  0.00    +0.026 A 
ATOM     13  C21 UNL     1      12.582  13.637  31.347  0.00  0.00    +0.079 A 
ENDROOT
BRANCH   2  14
ATOM     14  C6  UNL     1      14.253  13.737  34.519  0.00  0.00    +0.048 A 
ATOM     15  C7  UNL     1      14.445  14.984  35.153  0.00  0.00    +0.034 A 
ATOM     16  C8  UNL     1      14.895  15.061  36.502  0.00  0.00    +0.015 A 
ATOM     17  C9  UNL     1      15.118  16.402  37.132  0.00  0.00    +0.063 C 
ATOM     18  N2  UNL     1      15.189  13.919  37.206  0.00  0.00    -0.342 N 
ATOM     19  C10 UNL     1      15.013  12.721  36.602  0.00  0.00    +0.159 A 
ATOM     20  N3  UNL     1      15.312  11.512  37.091  0.00  0.00    -0.216 NA
ATOM     21  C11 UNL     1      15.026  10.689  36.043  0.00  0.00    +0.224 A 
ATOM     22  N4  UNL     1      14.581  11.314  34.918  0.00  0.00    -0.232 NA
ATOM     23  C12 UNL     1      14.556  12.606  35.271  0.00  0.00    +0.118 A 
ATOM     24  H12 UNL     1      15.556  13.964  38.183  0.00  0.00    +0.167 HD
ENDBRANCH   2  14
BRANCH   1  25
ATOM     25  C4  UNL     1      11.330  13.752  33.581  0.00  0.00    +0.154 C 
BRANCH  25  27
ATOM     26  C1  UNL     1      10.904  12.647  35.806  0.00  0.00    +0.009 C 
ATOM     27  C2  UNL     1      11.102  12.547  34.478  0.00  0.00    -0.060 C 
ATOM     28  C3  UNL     1      11.130  11.178  33.856  0.00  0.00    +0.040 C 
ENDBRANCH  25  27
ENDBRANCH   1  25
TORSDOF 3
ENDMDL
MODEL 9
REMARK VINA RESULT:    -6.098     13.345     14.964
REMARK INTER + INTRA:          -8.459
REMARK INTER:                  -7.128
REMARK INTRA:                  -1.331
REMARK UNBOUND:                -1.292
REMARK  Name = /home/qwerty/github/datacon2025hack/step_04_hit_selection/docking/ligands/lig_212.pdb
REMARK  5 active torsions:
REMARK  status: ('A' for Active; 'I' for Inactive)
REMARK    1  A    between atoms: C2_2  and  C3_3
REMARK    2  A    between atoms: C2_2  and  C4_4
REMARK    3  A    between atoms: C4_4  and  N1_5
REMARK    4  A    between atoms: C5_6  and  C6_7
REMARK    5  A    between atoms: C8_9  and  C9_10
REMARK                            x       y       z     vdW  Elec       q    Type
REMARK                         _______ _______ _______ _____ _____    ______ ____
ROOT
ATOM      1  N1  UNL     1       8.516   8.516  24.704  0.00  0.00    -0.319 N 
ATOM      2  C5  UNL     1       8.488   7.215  24.293  0.00  0.00    +0.144 A 
ATOM      3  N5  UNL     1       8.207   6.341  25.287  0.00  0.00    -0.227 NA
ATOM      4  C13 UNL     1       8.074   7.129  26.364  0.00  0.00    +0.090 A 
ATOM      5  C14 UNL     1       7.749   6.706  27.646  0.00  0.00    +0.032 A 
ATOM      6  C15 UNL     1       7.606   7.674  28.645  0.00  0.00    +0.030 A 
ATOM      7  C16 UNL     1       7.803   9.038  28.354  0.00  0.00    +0.073 A 
ATOM      8  N6  UNL     1       7.672   9.951  29.353  0.00  0.00    -0.255 NA
ATOM      9  C17 UNL     1       7.871  11.277  29.145  0.00  0.00    +0.111 A 
ATOM     10  C18 UNL     1       8.235  11.739  27.882  0.00  0.00    +0.020 A 
ATOM     11  C19 UNL     1       8.380  10.835  26.829  0.00  0.00    +0.013 A 
ATOM     12  C20 UNL     1       8.147   9.461  27.033  0.00  0.00    +0.026 A 
ATOM     13  C21 UNL     1       8.260   8.451  26.038  0.00  0.00    +0.079 A 
ENDROOT
BRANCH   2  14
ATOM     14  C6  UNL     1       8.641   6.762  22.897  0.00  0.00    +0.048 A 
ATOM     15  C7  UNL     1       7.510   6.466  22.105  0.00  0.00    +0.034 A 
ATOM     16  C8  UNL     1       7.653   6.010  20.763  0.00  0.00    +0.015 A 
ATOM     17  C9  UNL     1       6.431   5.675  19.962  0.00  0.00    +0.063 C 
ATOM     18  N2  UNL     1       8.899   5.810  20.222  0.00  0.00    -0.342 N 
ATOM     19  C10 UNL     1       9.986   6.086  20.978  0.00  0.00    +0.159 A 
ATOM     20  N3  UNL     1      11.271   5.887  20.660  0.00  0.00    -0.216 NA
ATOM     21  C11 UNL     1      11.919   6.242  21.804  0.00  0.00    +0.224 A 
ATOM     22  N4  UNL     1      11.114   6.636  22.830  0.00  0.00    -0.232 NA
ATOM     23  C12 UNL     1       9.883   6.553  22.307  0.00  0.00    +0.118 A 
ATOM     24  H12 UNL     1       9.016   5.439  19.252  0.00  0.00    +0.167 HD
ENDBRANCH   2  14
BRANCH   1  25
ATOM     25  C4  UNL     1       8.590   9.690  23.819  0.00  0.00    +0.154 C 
BRANCH  25  27
ATOM     26  C1  UNL     1      10.340  10.200  22.078  0.00  0.00    +0.009 C 
ATOM     27  C2  UNL     1      10.003  10.024  23.369  0.00  0.00    -0.060 C 
ATOM     28  C3  UNL     1      11.078  10.133  24.415  0.00  0.00    +0.040 C 
ENDBRANCH  25  27
ENDBRANCH   1  25
TORSDOF 3
ENDMDL
