MODEL 1
REMARK VINA RESULT:    -6.594      0.000      0.000
REMARK INTER + INTRA:          -9.698
REMARK INTER:                  -8.714
REMARK INTRA:                  -0.984
REMARK UNBOUND:                -0.984
REMARK  Name = /home/qwerty/github/datacon2025hack/step_04_hit_selection/docking/ligands/lig_535.pdb
REMARK  8 active torsions:
REMARK  status: ('A' for Active; 'I' for Inactive)
REMARK    1  A    between atoms: C1_1  and  C2_2
REMARK    2  A    between atoms: C2_2  and  C3_3
REMARK    3  A    between atoms: C5_6  and  C6_8
REMARK    4  A    between atoms: C9_12  and  C10_13
REMARK    5  A    between atoms: N3_25  and  C21_26
REMARK    6  A    between atoms: C21_26  and  C22_27
REMARK    7  A    between atoms: C22_27  and  C23_28
REMARK    8  A    between atoms: C22_27  and  O3_29
REMARK                            x       y       z     vdW  Elec       q    Type
REMARK                         _______ _______ _______ _____ _____    ______ ____
ROOT
ATOM      1  C3  UNL     1      15.754  11.654  36.184  0.00  0.00    +0.074 C 
ATOM      2  C4  UNL     1      14.415  11.656  36.935  0.00  0.00    +0.127 C 
ATOM      3  N1  UNL     1      13.506  10.697  36.300  0.00  0.00    -0.295 N 
ATOM      4  C5  UNL     1      12.092  10.950  36.318  0.00  0.00    +0.248 C 
ATOM      5  O1  UNL     1      11.324  10.127  36.884  0.00  0.00    -0.270 OA
ATOM      6  C19 UNL     1      13.992   9.345  36.017  0.00  0.00    +0.123 C 
ATOM      7  C20 UNL     1      15.397   9.389  35.377  0.00  0.00    +0.104 C 
ATOM      8  N3  UNL     1      16.325  10.282  36.108  0.00  0.00    -0.294 NA
ENDROOT
BRANCH   4   9
ATOM      9  C6  UNL     1      11.532  12.158  35.672  0.00  0.00    +0.056 A 
ATOM     10  C7  UNL     1      10.700  13.031  36.391  0.00  0.00    +0.123 A 
ATOM     11  N2  UNL     1      10.201  14.145  35.797  0.00  0.00    -0.262 NA
ATOM     12  C8  UNL     1      10.478  14.454  34.505  0.00  0.00    +0.119 A 
ATOM     13  C9  UNL     1      11.305  13.618  33.735  0.00  0.00    +0.001 A 
ATOM     14  C18 UNL     1      11.837  12.466  34.338  0.00  0.00    +0.024 A 
BRANCH  13  15
ATOM     15  C10 UNL     1      11.596  13.938  32.313  0.00  0.00    -0.016 A 
ATOM     16  C11 UNL     1      12.734  14.713  31.971  0.00  0.00    +0.012 A 
ATOM     17  C12 UNL     1      12.998  15.042  30.629  0.00  0.00    +0.046 A 
ATOM     18  C13 UNL     1      12.119  14.588  29.651  0.00  0.00    +0.124 A 
ATOM     19  C14 UNL     1      11.026  13.833  29.965  0.00  0.00    -0.002 A 
ATOM     20  C15 UNL     1      10.734  13.489  31.285  0.00  0.00    +0.016 A 
ATOM     21  C16 UNL     1      10.284  13.478  28.725  0.00  0.00    +0.080 C 
ATOM     22  C17 UNL     1      11.112  14.184  27.622  0.00  0.00    +0.234 C 
ATOM     23  O2  UNL     1      12.204  14.811  28.294  0.00  0.00    -0.491 OA
ENDBRANCH  13  15
ENDBRANCH   4   9
BRANCH   1  25
ATOM     24  C1  UNL     1      17.951  12.880  35.807  0.00  0.00    +0.005 C 
ATOM     25  C2  UNL     1      16.745  12.708  36.730  0.00  0.00    +0.017 C 
ENDBRANCH   1  25
BRANCH   8  26
ATOM     26  C21 UNL     1      16.757   9.686  37.402  0.00  0.00    +0.115 C 
BRANCH  26  27
ATOM     27  C22 UNL     1      18.277   9.433  37.384  0.00  0.00    +0.125 C 
ATOM     28  C23 UNL     1      18.604   7.984  37.770  0.00  0.00    +0.039 C 
BRANCH  27  29
ATOM     29  O3  UNL     1      18.948  10.332  38.233  0.00  0.00    -0.391 OA
ATOM     30  H29 UNL     1      19.759  10.651  37.753  0.00  0.00    +0.210 HD
ENDBRANCH  27  29
ENDBRANCH  26  27
ENDBRANCH   8  26
TORSDOF 6
ENDMDL
MODEL 2
REMARK VINA RESULT:    -6.482     13.384     17.295
REMARK INTER + INTRA:          -9.550
REMARK INTER:                  -9.190
REMARK INTRA:                  -0.360
REMARK UNBOUND:                -0.984
REMARK  Name = /home/qwerty/github/datacon2025hack/step_04_hit_selection/docking/ligands/lig_535.pdb
REMARK  8 active torsions:
REMARK  status: ('A' for Active; 'I' for Inactive)
REMARK    1  A    between atoms: C1_1  and  C2_2
REMARK    2  A    between atoms: C2_2  and  C3_3
REMARK    3  A    between atoms: C5_6  and  C6_8
REMARK    4  A    between atoms: C9_12  and  C10_13
REMARK    5  A    between atoms: N3_25  and  C21_26
REMARK    6  A    between atoms: C21_26  and  C22_27
REMARK    7  A    between atoms: C22_27  and  C23_28
REMARK    8  A    between atoms: C22_27  and  O3_29
REMARK                            x       y       z     vdW  Elec       q    Type
REMARK                         _______ _______ _______ _____ _____    ______ ____
ROOT
ATOM      1  C3  UNL     1      10.825   8.195  20.916  0.00  0.00    +0.074 C 
ATOM      2  C4  UNL     1      10.430   6.828  20.340  0.00  0.00    +0.127 C 
ATOM      3  N1  UNL     1      10.373   5.846  21.427  0.00  0.00    -0.295 N 
ATOM      4  C5  UNL     1      10.695   4.473  21.152  0.00  0.00    +0.248 C 
ATOM      5  O1  UNL     1       9.824   3.583  21.339  0.00  0.00    -0.270 OA
ATOM      6  C19 UNL     1       9.628   6.182  22.641  0.00  0.00    +0.123 C 
ATOM      7  C20 UNL     1       9.963   7.613  23.113  0.00  0.00    +0.104 C 
ATOM      8  N3  UNL     1       9.904   8.602  22.011  0.00  0.00    -0.294 NA
ENDROOT
BRANCH   4   9
ATOM      9  C6  UNL     1      12.040   4.096  20.662  0.00  0.00    +0.056 A 
ATOM     10  C7  UNL     1      12.681   4.861  19.675  0.00  0.00    +0.123 A 
ATOM     11  N2  UNL     1      13.920   4.518  19.242  0.00  0.00    -0.262 NA
ATOM     12  C8  UNL     1      14.579   3.438  19.732  0.00  0.00    +0.119 A 
ATOM     13  C9  UNL     1      13.988   2.633  20.722  0.00  0.00    +0.001 A 
ATOM     14  C18 UNL     1      12.709   2.981  21.188  0.00  0.00    +0.024 A 
BRANCH  13  15
ATOM     15  C10 UNL     1      14.694   1.437  21.250  0.00  0.00    -0.016 A 
ATOM     16  C11 UNL     1      15.736   0.829  20.503  0.00  0.00    +0.012 A 
ATOM     17  C12 UNL     1      16.387  -0.320  20.986  0.00  0.00    +0.046 A 
ATOM     18  C13 UNL     1      15.985  -0.841  22.212  0.00  0.00    +0.124 A 
ATOM     19  C14 UNL     1      14.991  -0.262  22.946  0.00  0.00    -0.002 A 
ATOM     20  C15 UNL     1      14.324   0.877  22.496  0.00  0.00    +0.016 A 
ATOM     21  C16 UNL     1      14.790  -1.020  24.211  0.00  0.00    +0.080 C 
ATOM     22  C17 UNL     1      15.818  -2.172  24.082  0.00  0.00    +0.234 C 
ATOM     23  O2  UNL     1      16.493  -1.956  22.842  0.00  0.00    -0.491 OA
ENDBRANCH  13  15
ENDBRANCH   4   9
BRANCH   1  25
ATOM     24  C1  UNL     1      11.854  10.443  20.316  0.00  0.00    +0.005 C 
ATOM     25  C2  UNL     1      11.001   9.275  19.823  0.00  0.00    +0.017 C 
ENDBRANCH   1  25
BRANCH   8  26
ATOM     26  C21 UNL     1       8.500   8.890  21.607  0.00  0.00    +0.115 C 
BRANCH  26  27
ATOM     27  C22 UNL     1       8.112  10.318  22.037  0.00  0.00    +0.125 C 
ATOM     28  C23 UNL     1       7.467  10.322  23.430  0.00  0.00    +0.039 C 
BRANCH  27  29
ATOM     29  O3  UNL     1       7.253  10.912  21.095  0.00  0.00    -0.391 OA
ATOM     30  H29 UNL     1       7.378  11.897  21.153  0.00  0.00    +0.210 HD
ENDBRANCH  27  29
ENDBRANCH  26  27
ENDBRANCH   8  26
TORSDOF 6
ENDMDL
MODEL 3
REMARK VINA RESULT:    -6.331      8.248     11.879
REMARK INTER + INTRA:          -9.350
REMARK INTER:                  -8.529
REMARK INTRA:                  -0.820
REMARK UNBOUND:                -0.984
REMARK  Name = /home/qwerty/github/datacon2025hack/step_04_hit_selection/docking/ligands/lig_535.pdb
REMARK  8 active torsions:
REMARK  status: ('A' for Active; 'I' for Inactive)
REMARK    1  A    between atoms: C1_1  and  C2_2
REMARK    2  A    between atoms: C2_2  and  C3_3
REMARK    3  A    between atoms: C5_6  and  C6_8
REMARK    4  A    between atoms: C9_12  and  C10_13
REMARK    5  A    between atoms: N3_25  and  C21_26
REMARK    6  A    between atoms: C21_26  and  C22_27
REMARK    7  A    between atoms: C22_27  and  C23_28
REMARK    8  A    between atoms: C22_27  and  O3_29
REMARK                            x       y       z     vdW  Elec       q    Type
REMARK                         _______ _______ _______ _____ _____    ______ ____
ROOT
ATOM      1  C3  UNL     1       8.479   9.764  27.709  0.00  0.00    +0.074 C 
ATOM      2  C4  UNL     1       7.336   8.785  28.007  0.00  0.00    +0.127 C 
ATOM      3  N1  UNL     1       7.661   8.017  29.213  0.00  0.00    -0.295 N 
ATOM      4  C5  UNL     1       7.181   6.669  29.340  0.00  0.00    +0.248 C 
ATOM      5  O1  UNL     1       6.414   6.372  30.293  0.00  0.00    -0.270 OA
ATOM      6  C19 UNL     1       8.113   8.736  30.406  0.00  0.00    +0.123 C 
ATOM      7  C20 UNL     1       9.172   9.798  30.039  0.00  0.00    +0.104 C 
ATOM      8  N3  UNL     1       8.763  10.631  28.885  0.00  0.00    -0.294 NA
ENDROOT
BRANCH   4   9
ATOM      9  C6  UNL     1       7.587   5.628  28.369  0.00  0.00    +0.056 A 
ATOM     10  C7  UNL     1       7.927   4.338  28.805  0.00  0.00    +0.123 A 
ATOM     11  N2  UNL     1       8.283   3.384  27.909  0.00  0.00    -0.262 NA
ATOM     12  C8  UNL     1       8.329   3.633  26.576  0.00  0.00    +0.119 A 
ATOM     13  C9  UNL     1       8.000   4.906  26.079  0.00  0.00    +0.001 A 
ATOM     14  C18 UNL     1       7.619   5.902  26.994  0.00  0.00    +0.024 A 
BRANCH  13  15
ATOM     15  C10 UNL     1       8.068   5.193  24.622  0.00  0.00    -0.016 A 
ATOM     16  C11 UNL     1       7.573   4.255  23.681  0.00  0.00    +0.012 A 
ATOM     17  C12 UNL     1       7.660   4.511  22.301  0.00  0.00    +0.046 A 
ATOM     18  C13 UNL     1       8.241   5.705  21.885  0.00  0.00    +0.124 A 
ATOM     19  C14 UNL     1       8.712   6.622  22.779  0.00  0.00    -0.002 A 
ATOM     20  C15 UNL     1       8.642   6.399  24.155  0.00  0.00    +0.016 A 
ATOM     21  C16 UNL     1       9.259   7.801  22.054  0.00  0.00    +0.080 C 
ATOM     22  C17 UNL     1       9.058   7.407  20.569  0.00  0.00    +0.234 C 
ATOM     23  O2  UNL     1       8.422   6.128  20.586  0.00  0.00    -0.491 OA
ENDBRANCH  13  15
ENDBRANCH   4   9
BRANCH   1  25
ATOM     24  C1  UNL     1       7.592   9.694  25.326  0.00  0.00    +0.005 C 
ATOM     25  C2  UNL     1       8.262  10.553  26.397  0.00  0.00    +0.017 C 
ENDBRANCH   1  25
BRANCH   8  26
ATOM     26  C21 UNL     1       7.690  11.595  29.256  0.00  0.00    +0.115 C 
BRANCH  26  27
ATOM     27  C22 UNL     1       8.278  13.015  29.377  0.00  0.00    +0.125 C 
ATOM     28  C23 UNL     1       7.226  14.009  29.889  0.00  0.00    +0.039 C 
BRANCH  27  29
ATOM     29  O3  UNL     1       8.807  13.448  28.148  0.00  0.00    -0.391 OA
ATOM     30  H29 UNL     1       9.739  13.106  28.084  0.00  0.00    +0.210 HD
ENDBRANCH  27  29
ENDBRANCH  26  27
ENDBRANCH   8  26
TORSDOF 6
ENDMDL
MODEL 4
REMARK VINA RESULT:    -6.328      6.268     11.275
REMARK INTER + INTRA:          -9.346
REMARK INTER:                  -8.305
REMARK INTRA:                  -1.041
REMARK UNBOUND:                -0.984
REMARK  Name = /home/qwerty/github/datacon2025hack/step_04_hit_selection/docking/ligands/lig_535.pdb
REMARK  8 active torsions:
REMARK  status: ('A' for Active; 'I' for Inactive)
REMARK    1  A    between atoms: C1_1  and  C2_2
REMARK    2  A    between atoms: C2_2  and  C3_3
REMARK    3  A    between atoms: C5_6  and  C6_8
REMARK    4  A    between atoms: C9_12  and  C10_13
REMARK    5  A    between atoms: N3_25  and  C21_26
REMARK    6  A    between atoms: C21_26  and  C22_27
REMARK    7  A    between atoms: C22_27  and  C23_28
REMARK    8  A    between atoms: C22_27  and  O3_29
REMARK                            x       y       z     vdW  Elec       q    Type
REMARK                         _______ _______ _______ _____ _____    ______ ____
ROOT
ATOM      1  C3  UNL     1      18.726  10.056  35.388  0.00  0.00    +0.074 C 
ATOM      2  C4  UNL     1      18.331   8.581  35.235  0.00  0.00    +0.127 C 
ATOM      3  N1  UNL     1      18.791   7.835  36.411  0.00  0.00    -0.295 N 
ATOM      4  C5  UNL     1      19.167   6.456  36.265  0.00  0.00    +0.248 C 
ATOM      5  O1  UNL     1      18.542   5.572  36.909  0.00  0.00    -0.270 OA
ATOM      6  C19 UNL     1      18.491   8.363  37.742  0.00  0.00    +0.123 C 
ATOM      7  C20 UNL     1      18.785   9.877  37.812  0.00  0.00    +0.104 C 
ATOM      8  N3  UNL     1      18.211  10.620  36.666  0.00  0.00    -0.294 NA
ENDROOT
BRANCH   4   9
ATOM      9  C6  UNL     1      20.286   6.068  35.378  0.00  0.00    +0.056 A 
ATOM     10  C7  UNL     1      21.458   6.839  35.326  0.00  0.00    +0.123 A 
ATOM     11  N2  UNL     1      22.486   6.469  34.522  0.00  0.00    -0.262 NA
ATOM     12  C8  UNL     1      22.425   5.360  33.743  0.00  0.00    +0.119 A 
ATOM     13  C9  UNL     1      21.278   4.548  33.751  0.00  0.00    +0.001 A 
ATOM     14  C18 UNL     1      20.208   4.912  34.587  0.00  0.00    +0.024 A 
BRANCH  13  15
ATOM     15  C10 UNL     1      21.193   3.342  32.886  0.00  0.00    -0.016 A 
ATOM     16  C11 UNL     1      20.362   2.252  33.252  0.00  0.00    +0.012 A 
ATOM     17  C12 UNL     1      20.302   1.099  32.450  0.00  0.00    +0.046 A 
ATOM     18  C13 UNL     1      21.073   1.055  31.293  0.00  0.00    +0.124 A 
ATOM     19  C14 UNL     1      21.869   2.100  30.923  0.00  0.00    -0.002 A 
ATOM     20  C15 UNL     1      21.953   3.259  31.695  0.00  0.00    +0.016 A 
ATOM     21  C16 UNL     1      22.557   1.783  29.643  0.00  0.00    +0.080 C 
ATOM     22  C17 UNL     1      22.054   0.350  29.335  0.00  0.00    +0.234 C 
ATOM     23  O2  UNL     1      21.152   0.017  30.391  0.00  0.00    -0.491 OA
ENDBRANCH  13  15
ENDBRANCH   4   9
BRANCH   1  25
ATOM     24  C1  UNL     1      19.110  12.235  34.133  0.00  0.00    +0.005 C 
ATOM     25  C2  UNL     1      18.361  10.904  34.147  0.00  0.00    +0.017 C 
ENDBRANCH   1  25
BRANCH   8  26
ATOM     26  C21 UNL     1      16.731  10.738  36.774  0.00  0.00    +0.115 C 
BRANCH  26  27
ATOM     27  C22 UNL     1      16.335  12.213  36.981  0.00  0.00    +0.125 C 
ATOM     28  C23 UNL     1      15.495  12.733  35.806  0.00  0.00    +0.039 C 
BRANCH  27  29
ATOM     29  O3  UNL     1      17.473  13.019  37.166  0.00  0.00    -0.391 OA
ATOM     30  H29 UNL     1      18.049  12.916  36.362  0.00  0.00    +0.210 HD
ENDBRANCH  27  29
ENDBRANCH  26  27
ENDBRANCH   8  26
TORSDOF 6
ENDMDL
MODEL 5
REMARK VINA RESULT:    -6.318      9.944     14.075
REMARK INTER + INTRA:          -9.333
REMARK INTER:                  -8.431
REMARK INTRA:                  -0.902
REMARK UNBOUND:                -0.984
REMARK  Name = /home/qwerty/github/datacon2025hack/step_04_hit_selection/docking/ligands/lig_535.pdb
REMARK  8 active torsions:
REMARK  status: ('A' for Active; 'I' for Inactive)
REMARK    1  A    between atoms: C1_1  and  C2_2
REMARK    2  A    between atoms: C2_2  and  C3_3
REMARK    3  A    between atoms: C5_6  and  C6_8
REMARK    4  A    between atoms: C9_12  and  C10_13
REMARK    5  A    between atoms: N3_25  and  C21_26
REMARK    6  A    between atoms: C21_26  and  C22_27
REMARK    7  A    between atoms: C22_27  and  C23_28
REMARK    8  A    between atoms: C22_27  and  O3_29
REMARK                            x       y       z     vdW  Elec       q    Type
REMARK                         _______ _______ _______ _____ _____    ______ ____
ROOT
ATOM      1  C3  UNL     1       9.823   4.828  22.291  0.00  0.00    +0.074 C 
ATOM      2  C4  UNL     1       9.750   5.918  21.214  0.00  0.00    +0.127 C 
ATOM      3  N1  UNL     1      10.858   6.859  21.406  0.00  0.00    -0.295 N 
ATOM      4  C5  UNL     1      10.681   8.238  21.044  0.00  0.00    +0.248 C 
ATOM      5  O1  UNL     1      11.420   8.746  20.160  0.00  0.00    -0.270 OA
ATOM      6  C19 UNL     1      12.211   6.328  21.579  0.00  0.00    +0.123 C 
ATOM      7  C20 UNL     1      12.216   5.149  22.576  0.00  0.00    +0.104 C 
ATOM      8  N3  UNL     1      11.152   4.159  22.288  0.00  0.00    -0.294 NA
ENDROOT
BRANCH   4   9
ATOM      9  C6  UNL     1       9.648   9.066  21.706  0.00  0.00    +0.056 A 
ATOM     10  C7  UNL     1       8.883   9.981  20.965  0.00  0.00    +0.123 A 
ATOM     11  N2  UNL     1       7.927  10.726  21.574  0.00  0.00    -0.262 NA
ATOM     12  C8  UNL     1       7.678  10.624  22.905  0.00  0.00    +0.119 A 
ATOM     13  C9  UNL     1       8.411   9.726  23.699  0.00  0.00    +0.001 A 
ATOM     14  C18 UNL     1       9.398   8.940  23.080  0.00  0.00    +0.024 A 
BRANCH  13  15
ATOM     15  C10 UNL     1       8.159   9.623  25.160  0.00  0.00    -0.016 A 
ATOM     16  C11 UNL     1       7.682   8.411  25.722  0.00  0.00    +0.012 A 
ATOM     17  C12 UNL     1       7.416   8.318  27.100  0.00  0.00    +0.046 A 
ATOM     18  C13 UNL     1       7.632   9.440  27.893  0.00  0.00    +0.124 A 
ATOM     19  C14 UNL     1       8.100  10.609  27.368  0.00  0.00    -0.002 A 
ATOM     20  C15 UNL     1       8.374  10.736  26.006  0.00  0.00    +0.016 A 
ATOM     21  C16 UNL     1       8.252  11.623  28.447  0.00  0.00    +0.080 C 
ATOM     22  C17 UNL     1       7.759  10.858  29.701  0.00  0.00    +0.234 C 
ATOM     23  O2  UNL     1       7.424   9.545  29.251  0.00  0.00    -0.491 OA
ENDBRANCH  13  15
ENDBRANCH   4   9
BRANCH   1  25
ATOM     24  C1  UNL     1       7.318   4.514  22.606  0.00  0.00    +0.005 C 
ATOM     25  C2  UNL     1       8.635   3.840  22.222  0.00  0.00    +0.017 C 
ENDBRANCH   1  25
BRANCH   8  26
ATOM     26  C21 UNL     1      11.470   3.348  21.080  0.00  0.00    +0.115 C 
BRANCH  26  27
ATOM     27  C22 UNL     1      12.729   2.497  21.334  0.00  0.00    +0.125 C 
ATOM     28  C23 UNL     1      13.801   2.759  20.268  0.00  0.00    +0.039 C 
BRANCH  27  29
ATOM     29  O3  UNL     1      12.410   1.128  21.385  0.00  0.00    -0.391 OA
ATOM     30  H29 UNL     1      13.220   0.642  21.698  0.00  0.00    +0.210 HD
ENDBRANCH  27  29
ENDBRANCH  26  27
ENDBRANCH   8  26
TORSDOF 6
ENDMDL
MODEL 6
REMARK VINA RESULT:    -6.315     13.142     17.090
REMARK INTER + INTRA:          -9.329
REMARK INTER:                  -8.426
REMARK INTRA:                  -0.903
REMARK UNBOUND:                -0.984
REMARK  Name = /home/qwerty/github/datacon2025hack/step_04_hit_selection/docking/ligands/lig_535.pdb
REMARK  8 active torsions:
REMARK  status: ('A' for Active; 'I' for Inactive)
REMARK    1  A    between atoms: C1_1  and  C2_2
REMARK    2  A    between atoms: C2_2  and  C3_3
REMARK    3  A    between atoms: C5_6  and  C6_8
REMARK    4  A    between atoms: C9_12  and  C10_13
REMARK    5  A    between atoms: N3_25  and  C21_26
REMARK    6  A    between atoms: C21_26  and  C22_27
REMARK    7  A    between atoms: C22_27  and  C23_28
REMARK    8  A    between atoms: C22_27  and  O3_29
REMARK                            x       y       z     vdW  Elec       q    Type
REMARK                         _______ _______ _______ _____ _____    ______ ____
ROOT
ATOM      1  C3  UNL     1       9.364   6.912  23.193  0.00  0.00    +0.074 C 
ATOM      2  C4  UNL     1      10.651   6.457  22.492  0.00  0.00    +0.127 C 
ATOM      3  N1  UNL     1      10.319   5.954  21.156  0.00  0.00    -0.295 N 
ATOM      4  C5  UNL     1      11.118   4.907  20.580  0.00  0.00    +0.248 C 
ATOM      5  O1  UNL     1      11.734   5.120  19.503  0.00  0.00    -0.270 OA
ATOM      6  C19 UNL     1       9.462   6.765  20.290  0.00  0.00    +0.123 C 
ATOM      7  C20 UNL     1       8.245   7.305  21.071  0.00  0.00    +0.104 C 
ATOM      8  N3  UNL     1       8.627   7.908  22.369  0.00  0.00    -0.294 NA
ENDROOT
BRANCH   4   9
ATOM      9  C6  UNL     1      11.213   3.583  21.234  0.00  0.00    +0.056 A 
ATOM     10  C7  UNL     1      10.090   3.007  21.849  0.00  0.00    +0.123 A 
ATOM     11  N2  UNL     1      10.181   1.786  22.434  0.00  0.00    -0.262 NA
ATOM     12  C8  UNL     1      11.342   1.083  22.453  0.00  0.00    +0.119 A 
ATOM     13  C9  UNL     1      12.500   1.608  21.853  0.00  0.00    +0.001 A 
ATOM     14  C18 UNL     1      12.420   2.867  21.235  0.00  0.00    +0.024 A 
BRANCH  13  15
ATOM     15  C10 UNL     1      13.780   0.855  21.887  0.00  0.00    -0.016 A 
ATOM     16  C11 UNL     1      14.743   1.030  20.860  0.00  0.00    +0.012 A 
ATOM     17  C12 UNL     1      15.944   0.298  20.873  0.00  0.00    +0.046 A 
ATOM     18  C13 UNL     1      16.163  -0.597  21.916  0.00  0.00    +0.124 A 
ATOM     19  C14 UNL     1      15.250  -0.768  22.916  0.00  0.00    -0.002 A 
ATOM     20  C15 UNL     1      14.049  -0.059  22.933  0.00  0.00    +0.016 A 
ATOM     21  C16 UNL     1      15.756  -1.767  23.897  0.00  0.00    +0.080 C 
ATOM     22  C17 UNL     1      17.117  -2.183  23.284  0.00  0.00    +0.234 C 
ATOM     23  O2  UNL     1      17.266  -1.403  22.097  0.00  0.00    -0.491 OA
ENDBRANCH  13  15
ENDBRANCH   4   9
BRANCH   1  25
ATOM     24  C1  UNL     1       8.510   6.880  25.590  0.00  0.00    +0.005 C 
ATOM     25  C2  UNL     1       9.608   7.373  24.649  0.00  0.00    +0.017 C 
ENDBRANCH   1  25
BRANCH   8  26
ATOM     26  C21 UNL     1       9.298   9.224  22.187  0.00  0.00    +0.115 C 
BRANCH  26  27
ATOM     27  C22 UNL     1       8.289  10.366  22.419  0.00  0.00    +0.125 C 
ATOM     28  C23 UNL     1       7.378  10.067  23.618  0.00  0.00    +0.039 C 
BRANCH  27  29
ATOM     29  O3  UNL     1       7.522  10.603  21.265  0.00  0.00    -0.391 OA
ATOM     30  H29 UNL     1       7.896  10.042  20.534  0.00  0.00    +0.210 HD
ENDBRANCH  27  29
ENDBRANCH  26  27
ENDBRANCH   8  26
TORSDOF 6
ENDMDL
MODEL 7
REMARK VINA RESULT:    -6.279     13.959     17.476
REMARK INTER + INTRA:          -9.282
REMARK INTER:                  -8.265
REMARK INTRA:                  -1.017
REMARK UNBOUND:                -0.984
REMARK  Name = /home/qwerty/github/datacon2025hack/step_04_hit_selection/docking/ligands/lig_535.pdb
REMARK  8 active torsions:
REMARK  status: ('A' for Active; 'I' for Inactive)
REMARK    1  A    between atoms: C1_1  and  C2_2
REMARK    2  A    between atoms: C2_2  and  C3_3
REMARK    3  A    between atoms: C5_6  and  C6_8
REMARK    4  A    between atoms: C9_12  and  C10_13
REMARK    5  A    between atoms: N3_25  and  C21_26
REMARK    6  A    between atoms: C21_26  and  C22_27
REMARK    7  A    between atoms: C22_27  and  C23_28
REMARK    8  A    between atoms: C22_27  and  O3_29
REMARK                            x       y       z     vdW  Elec       q    Type
REMARK                         _______ _______ _______ _____ _____    ______ ____
ROOT
ATOM      1  C3  UNL     1      20.208  11.242  20.392  0.00  0.00    +0.074 C 
ATOM      2  C4  UNL     1      21.252  10.534  21.266  0.00  0.00    +0.127 C 
ATOM      3  N1  UNL     1      22.239   9.878  20.403  0.00  0.00    -0.295 N 
ATOM      4  C5  UNL     1      22.870   8.668  20.849  0.00  0.00    +0.248 C 
ATOM      5  O1  UNL     1      24.121   8.639  20.994  0.00  0.00    -0.270 OA
ATOM      6  C19 UNL     1      22.844  10.648  19.314  0.00  0.00    +0.123 C 
ATOM      7  C20 UNL     1      21.771  11.444  18.541  0.00  0.00    +0.104 C 
ATOM      8  N3  UNL     1      20.857  12.185  19.440  0.00  0.00    -0.294 NA
ENDROOT
BRANCH   4   9
ATOM      9  C6  UNL     1      22.068   7.456  21.129  0.00  0.00    +0.056 A 
ATOM     10  C7  UNL     1      21.102   7.011  20.213  0.00  0.00    +0.123 A 
ATOM     11  N2  UNL     1      20.381   5.890  20.468  0.00  0.00    -0.262 NA
ATOM     12  C8  UNL     1      20.556   5.167  21.603  0.00  0.00    +0.119 A 
ATOM     13  C9  UNL     1      21.508   5.563  22.558  0.00  0.00    +0.001 A 
ATOM     14  C18 UNL     1      22.271   6.716  22.303  0.00  0.00    +0.024 A 
BRANCH  13  15
ATOM     15  C10 UNL     1      21.693   4.789  23.813  0.00  0.00    -0.016 A 
ATOM     16  C11 UNL     1      22.574   5.256  24.822  0.00  0.00    +0.012 A 
ATOM     17  C12 UNL     1      22.773   4.512  25.999  0.00  0.00    +0.046 A 
ATOM     18  C13 UNL     1      22.084   3.312  26.148  0.00  0.00    +0.124 A 
ATOM     19  C14 UNL     1      21.225   2.856  25.191  0.00  0.00    -0.002 A 
ATOM     20  C15 UNL     1      21.006   3.568  24.011  0.00  0.00    +0.016 A 
ATOM     21  C16 UNL     1      20.622   1.567  25.626  0.00  0.00    +0.080 C 
ATOM     22  C17 UNL     1      21.300   1.323  26.997  0.00  0.00    +0.234 C 
ATOM     23  O2  UNL     1      22.152   2.447  27.218  0.00  0.00    -0.491 OA
ENDBRANCH  13  15
ENDBRANCH   4   9
BRANCH   1  25
ATOM     24  C1  UNL     1      19.357  11.813  22.720  0.00  0.00    +0.005 C 
ATOM     25  C2  UNL     1      19.072  11.885  21.221  0.00  0.00    +0.017 C 
ENDBRANCH   1  25
BRANCH   8  26
ATOM     26  C21 UNL     1      21.525  13.367  20.050  0.00  0.00    +0.115 C 
BRANCH  26  27
ATOM     27  C22 UNL     1      20.812  14.660  19.609  0.00  0.00    +0.125 C 
ATOM     28  C23 UNL     1      20.115  15.343  20.794  0.00  0.00    +0.039 C 
BRANCH  27  29
ATOM     29  O3  UNL     1      19.891  14.401  18.578  0.00  0.00    -0.391 OA
ATOM     30  H29 UNL     1      19.654  13.436  18.622  0.00  0.00    +0.210 HD
ENDBRANCH  27  29
ENDBRANCH  26  27
ENDBRANCH   8  26
TORSDOF 6
ENDMDL
MODEL 8
REMARK VINA RESULT:    -6.278     12.697     14.587
REMARK INTER + INTRA:          -9.281
REMARK INTER:                  -8.405
REMARK INTRA:                  -0.875
REMARK UNBOUND:                -0.984
REMARK  Name = /home/qwerty/github/datacon2025hack/step_04_hit_selection/docking/ligands/lig_535.pdb
REMARK  8 active torsions:
REMARK  status: ('A' for Active; 'I' for Inactive)
REMARK    1  A    between atoms: C1_1  and  C2_2
REMARK    2  A    between atoms: C2_2  and  C3_3
REMARK    3  A    between atoms: C5_6  and  C6_8
REMARK    4  A    between atoms: C9_12  and  C10_13
REMARK    5  A    between atoms: N3_25  and  C21_26
REMARK    6  A    between atoms: C21_26  and  C22_27
REMARK    7  A    between atoms: C22_27  and  C23_28
REMARK    8  A    between atoms: C22_27  and  O3_29
REMARK                            x       y       z     vdW  Elec       q    Type
REMARK                         _______ _______ _______ _____ _____    ______ ____
ROOT
ATOM      1  C3  UNL     1      21.370   1.153  28.887  0.00  0.00    +0.074 C 
ATOM      2  C4  UNL     1      21.422   2.649  28.548  0.00  0.00    +0.127 C 
ATOM      3  N1  UNL     1      20.056   3.182  28.512  0.00  0.00    -0.295 N 
ATOM      4  C5  UNL     1      19.748   4.265  27.621  0.00  0.00    +0.248 C 
ATOM      5  O1  UNL     1      19.335   5.357  28.094  0.00  0.00    -0.270 OA
ATOM      6  C19 UNL     1      19.156   2.887  29.628  0.00  0.00    +0.123 C 
ATOM      7  C20 UNL     1      19.231   1.395  30.017  0.00  0.00    +0.104 C 
ATOM      8  N3  UNL     1      20.626   0.915  30.154  0.00  0.00    -0.294 NA
ENDROOT
BRANCH   4   9
ATOM      9  C6  UNL     1      19.899   4.106  26.157  0.00  0.00    +0.056 A 
ATOM     10  C7  UNL     1      20.986   4.686  25.484  0.00  0.00    +0.123 A 
ATOM     11  N2  UNL     1      21.127   4.525  24.145  0.00  0.00    -0.262 NA
ATOM     12  C8  UNL     1      20.237   3.810  23.410  0.00  0.00    +0.119 A 
ATOM     13  C9  UNL     1      19.128   3.206  24.028  0.00  0.00    +0.001 A 
ATOM     14  C18 UNL     1      18.973   3.356  25.416  0.00  0.00    +0.024 A 
BRANCH  13  15
ATOM     15  C10 UNL     1      18.137   2.439  23.228  0.00  0.00    -0.016 A 
ATOM     16  C11 UNL     1      17.810   1.104  23.579  0.00  0.00    +0.012 A 
ATOM     17  C12 UNL     1      16.894   0.366  22.808  0.00  0.00    +0.046 A 
ATOM     18  C13 UNL     1      16.318   0.978  21.700  0.00  0.00    +0.124 A 
ATOM     19  C14 UNL     1      16.615   2.265  21.357  0.00  0.00    -0.002 A 
ATOM     20  C15 UNL     1      17.520   3.025  22.098  0.00  0.00    +0.016 A 
ATOM     21  C16 UNL     1      15.841   2.657  20.147  0.00  0.00    +0.080 C 
ATOM     22  C17 UNL     1      15.057   1.363  19.813  0.00  0.00    +0.234 C 
ATOM     23  O2  UNL     1      15.411   0.420  20.825  0.00  0.00    -0.491 OA
ENDBRANCH  13  15
ENDBRANCH   4   9
BRANCH   1  25
ATOM     24  C1  UNL     1      22.660  -1.039  28.824  0.00  0.00    +0.005 C 
ATOM     25  C2  UNL     1      22.765   0.485  28.855  0.00  0.00    +0.017 C 
ENDBRANCH   1  25
BRANCH   8  26
ATOM     26  C21 UNL     1      21.267   1.436  31.392  0.00  0.00    +0.115 C 
BRANCH  26  27
ATOM     27  C22 UNL     1      20.346   1.195  32.603  0.00  0.00    +0.125 C 
ATOM     28  C23 UNL     1      20.696   2.136  33.764  0.00  0.00    +0.039 C 
BRANCH  27  29
ATOM     29  O3  UNL     1      20.405  -0.146  33.023  0.00  0.00    -0.391 OA
ATOM     30  H29 UNL     1      20.807  -0.160  33.932  0.00  0.00    +0.210 HD
ENDBRANCH  27  29
ENDBRANCH  26  27
ENDBRANCH   8  26
TORSDOF 6
ENDMDL
MODEL 9
REMARK VINA RESULT:    -6.217      5.997     11.397
REMARK INTER + INTRA:          -9.200
REMARK INTER:                  -8.373
REMARK INTRA:                  -0.828
REMARK UNBOUND:                -0.984
REMARK  Name = /home/qwerty/github/datacon2025hack/step_04_hit_selection/docking/ligands/lig_535.pdb
REMARK  8 active torsions:
REMARK  status: ('A' for Active; 'I' for Inactive)
REMARK    1  A    between atoms: C1_1  and  C2_2
REMARK    2  A    between atoms: C2_2  and  C3_3
REMARK    3  A    between atoms: C5_6  and  C6_8
REMARK    4  A    between atoms: C9_12  and  C10_13
REMARK    5  A    between atoms: N3_25  and  C21_26
REMARK    6  A    between atoms: C21_26  and  C22_27
REMARK    7  A    between atoms: C22_27  and  C23_28
REMARK    8  A    between atoms: C22_27  and  O3_29
REMARK                            x       y       z     vdW  Elec       q    Type
REMARK                         _______ _______ _______ _____ _____    ______ ____
ROOT
ATOM      1  C3  UNL     1      18.790   9.906  36.305  0.00  0.00    +0.074 C 
ATOM      2  C4  UNL     1      20.227  10.104  35.803  0.00  0.00    +0.127 C 
ATOM      3  N1  UNL     1      20.280   9.813  34.368  0.00  0.00    -0.295 N 
ATOM      4  C5  UNL     1      21.484   9.270  33.804  0.00  0.00    +0.248 C 
ATOM      5  O1  UNL     1      22.094   9.915  32.910  0.00  0.00    -0.270 OA
ATOM      6  C19 UNL     1      19.285  10.427  33.487  0.00  0.00    +0.123 C 
ATOM      7  C20 UNL     1      17.870  10.316  34.093  0.00  0.00    +0.104 C 
ATOM      8  N3  UNL     1      17.829  10.724  35.517  0.00  0.00    -0.294 NA
ENDROOT
BRANCH   4   9
ATOM      9  C6  UNL     1      22.008   7.961  34.255  0.00  0.00    +0.056 A 
ATOM     10  C7  UNL     1      22.933   7.887  35.309  0.00  0.00    +0.123 A 
ATOM     11  N2  UNL     1      23.397   6.683  35.728  0.00  0.00    -0.262 NA
ATOM     12  C8  UNL     1      22.997   5.520  35.153  0.00  0.00    +0.119 A 
ATOM     13  C9  UNL     1      22.073   5.531  34.094  0.00  0.00    +0.001 A 
ATOM     14  C18 UNL     1      21.576   6.769  33.656  0.00  0.00    +0.024 A 
BRANCH  13  15
ATOM     15  C10 UNL     1      21.646   4.264  33.446  0.00  0.00    -0.016 A 
ATOM     16  C11 UNL     1      20.619   3.473  34.022  0.00  0.00    +0.012 A 
ATOM     17  C12 UNL     1      20.231   2.259  33.427  0.00  0.00    +0.046 A 
ATOM     18  C13 UNL     1      20.877   1.858  32.262  0.00  0.00    +0.124 A 
ATOM     19  C14 UNL     1      21.859   2.613  31.690  0.00  0.00    -0.002 A 
ATOM     20  C15 UNL     1      22.269   3.821  32.255  0.00  0.00    +0.016 A 
ATOM     21  C16 UNL     1      22.351   1.950  30.453  0.00  0.00    +0.080 C 
ATOM     22  C17 UNL     1      21.510   0.649  30.409  0.00  0.00    +0.234 C 
ATOM     23  O2  UNL     1      20.643   0.706  31.542  0.00  0.00    -0.491 OA
ENDBRANCH  13  15
ENDBRANCH   4   9
BRANCH   1  25
ATOM     24  C1  UNL     1      17.259   9.749  38.331  0.00  0.00    +0.005 C 
ATOM     25  C2  UNL     1      18.660  10.103  37.834  0.00  0.00    +0.017 C 
ENDBRANCH   1  25
BRANCH   8  26
ATOM     26  C21 UNL     1      17.953  12.200  35.668  0.00  0.00    +0.115 C 
BRANCH  26  27
ATOM     27  C22 UNL     1      16.643  12.782  36.235  0.00  0.00    +0.125 C 
ATOM     28  C23 UNL     1      16.016  13.790  35.262  0.00  0.00    +0.039 C 
BRANCH  27  29
ATOM     29  O3  UNL     1      16.858  13.378  37.490  0.00  0.00    -0.391 OA
ATOM     30  H29 UNL     1      17.841  13.448  37.626  0.00  0.00    +0.210 HD
ENDBRANCH  27  29
ENDBRANCH  26  27
ENDBRANCH   8  26
TORSDOF 6
ENDMDL
