REMARK  Name = /home/qwerty/github/datacon2025hack/step_04_hit_selection/docking/ligands/lig_380.pdb
REMARK  4 active torsions:
REMARK  status: ('A' for Active; 'I' for Inactive)
REMARK    1  A    between atoms: C1_2  and  C2_3
REMARK    2  A    between atoms: C2_3  and  C3_4
REMARK    3  A    between atoms: C9_12  and  N2_13
REMARK    4  A    between atoms: N2_13  and  C10_14
REMARK                            x       y       z     vdW  Elec       q    Type
REMARK                         _______ _______ _______ _____ _____    ______ ____
ROOT
ATOM      1  O1  UNL     1      -2.408   2.378   0.805  0.00  0.00    -0.275 OA
ATOM      2  C1  UNL     1      -2.127   1.154   0.916  0.00  0.00    +0.220 C 
ATOM      3  N1  UNL     1      -0.954   0.632   0.265  0.00  0.00    -0.299 N 
ATOM      4  C7  UNL     1      -0.540  -0.760   0.306  0.00  0.00    +0.109 C 
ATOM      5  C8  UNL     1       0.651  -0.861  -0.638  0.00  0.00    +0.043 C 
ATOM      6  C9  UNL     1       1.157   0.573  -0.829  0.00  0.00    +0.091 C 
ATOM      7  C14 UNL     1      -0.052   1.461  -0.515  0.00  0.00    +0.130 C 
ENDROOT
BRANCH   6   8
ATOM      8  N2  UNL     1       2.270   0.847   0.092  0.00  0.00    -0.323 N 
ATOM      9  H11 UNL     1       2.094   1.421   0.949  0.00  0.00    +0.148 HD
BRANCH   8  10
ATOM     10  C10 UNL     1       3.620   0.396  -0.118  0.00  0.00    +0.139 A 
ATOM     11  C11 UNL     1       3.981  -0.422  -1.205  0.00  0.00    +0.154 A 
ATOM     12  N3  UNL     1       5.275  -0.816  -1.346  0.00  0.00    -0.257 NA
ATOM     13  C12 UNL     1       6.230  -0.435  -0.459  0.00  0.00    +0.151 A 
ATOM     14  C13 UNL     1       5.878   0.375   0.621  0.00  0.00    +0.149 A 
ATOM     15 CL1  UNL     1       7.083   0.883   1.787  0.00  0.00    -0.060 Cl
ATOM     16  N4  UNL     1       4.586   0.769   0.766  0.00  0.00    -0.218 NA
ENDBRANCH   8  10
ENDBRANCH   6   8
BRANCH   2  17
ATOM     17  C2  UNL     1      -3.057   0.266   1.694  0.00  0.00    +0.134 C 
BRANCH  17  18
ATOM     18  C3  UNL     1      -4.050  -0.382   0.779  0.00  0.00    -0.001 A 
ATOM     19  C4  UNL     1      -5.020   0.254   0.032  0.00  0.00    +0.045 A 
ATOM     20  C5  UNL     1      -5.685  -0.751  -0.641  0.00  0.00    +0.195 A 
ATOM     21  O2  UNL     1      -5.164  -1.917  -0.327  0.00  0.00    -0.471 OA
ATOM     22  C6  UNL     1      -4.181  -1.732   0.524  0.00  0.00    +0.198 A 
ENDBRANCH  17  18
ENDBRANCH   2  17
TORSDOF 4
