MODEL 1
REMARK VINA RESULT:    -5.980      0.000      0.000
REMARK INTER + INTRA:          -8.242
REMARK INTER:                  -7.553
REMARK INTRA:                  -0.689
REMARK UNBOUND:                -0.689
REMARK  Name = /home/qwerty/github/datacon2025hack/step_04_hit_selection/docking/ligands/lig_88.pdb
REMARK  6 active torsions:
REMARK  status: ('A' for Active; 'I' for Inactive)
REMARK    1  A    between atoms: C1_1  and  O1_2
REMARK    2  A    between atoms: O1_2  and  C2_3
REMARK    3  A    between atoms: C5_6  and  N1_7
REMARK    4  A    between atoms: C6_8  and  C7_10
REMARK    5  A    between atoms: C10_13  and  C11_14
REMARK    6  A    between atoms: C12_19  and  O3_20
REMARK                            x       y       z     vdW  Elec       q    Type
REMARK                         _______ _______ _______ _____ _____    ______ ____
ROOT
ATOM      1  C7  UNL     1      15.827  10.664  37.144  0.00  0.00    +0.041 A 
ATOM      2  C8  UNL     1      14.723  10.058  36.524  0.00  0.00    +0.014 A 
ATOM      3  C9  UNL     1      13.606  10.815  36.170  0.00  0.00    +0.016 A 
ATOM      4  C10 UNL     1      13.563  12.198  36.419  0.00  0.00    +0.064 A 
ATOM      5  C12 UNL     1      14.659  12.807  37.075  0.00  0.00    +0.128 A 
ATOM      6  C13 UNL     1      15.785  12.042  37.406  0.00  0.00    +0.059 A 
ENDROOT
BRANCH   4   7
ATOM      7  C11 UNL     1      12.386  12.961  35.946  0.00  0.00    +0.208 A 
ATOM      8  N2  UNL     1      11.102  12.633  36.200  0.00  0.00    -0.108 NA
ATOM      9  N3  UNL     1      10.387  13.609  35.665  0.00  0.00    -0.049 NA
ATOM     10  N4  UNL     1      11.204  14.495  35.121  0.00  0.00    -0.176 N 
ATOM     11  N5  UNL     1      12.464  14.132  35.285  0.00  0.00    -0.133 NA
ATOM     12  H9  UNL     1      10.895  15.366  34.638  0.00  0.00    +0.214 HD
ENDBRANCH   4   7
BRANCH   1  14
ATOM     13  N1  UNL     1      17.562   8.887  36.604  0.00  0.00    -0.281 N 
ATOM     14  C6  UNL     1      17.028   9.871  37.507  0.00  0.00    +0.248 C 
ATOM     15  O2  UNL     1      17.559  10.032  38.641  0.00  0.00    -0.270 OA
ATOM     16  H6  UNL     1      16.906   8.432  35.930  0.00  0.00    +0.155 HD
BRANCH  13  20
ATOM     17  C2  UNL     1      21.567   7.460  36.847  0.00  0.00    +0.120 A 
ATOM     18  C3  UNL     1      21.266   8.639  36.156  0.00  0.00    +0.047 A 
ATOM     19  C4  UNL     1      19.949   9.100  36.079  0.00  0.00    +0.027 A 
ATOM     20  C5  UNL     1      18.907   8.380  36.679  0.00  0.00    +0.034 A 
ATOM     21  C14 UNL     1      19.209   7.206  37.390  0.00  0.00    +0.027 A 
ATOM     22  C15 UNL     1      20.527   6.745  37.468  0.00  0.00    +0.047 A 
BRANCH  17  24
ATOM     23  C1  UNL     1      23.600   6.451  35.800  0.00  0.00    +0.277 C 
ATOM     24  O1  UNL     1      22.905   7.038  36.894  0.00  0.00    -0.495 OA
ENDBRANCH  17  24
ENDBRANCH  13  20
ENDBRANCH   1  14
BRANCH   5  25
ATOM     25  O3  UNL     1      14.660  14.154  37.447  0.00  0.00    -0.506 OA
ATOM     26  H10 UNL     1      14.055  14.536  38.160  0.00  0.00    +0.292 HD
ENDBRANCH   5  25
TORSDOF 5
ENDMDL
MODEL 2
REMARK VINA RESULT:    -5.844      2.963      9.247
REMARK INTER + INTRA:          -8.070
REMARK INTER:                  -7.410
REMARK INTRA:                  -0.660
REMARK UNBOUND:                -0.689
REMARK  Name = /home/qwerty/github/datacon2025hack/step_04_hit_selection/docking/ligands/lig_88.pdb
REMARK  6 active torsions:
REMARK  status: ('A' for Active; 'I' for Inactive)
REMARK    1  A    between atoms: C1_1  and  O1_2
REMARK    2  A    between atoms: O1_2  and  C2_3
REMARK    3  A    between atoms: C5_6  and  N1_7
REMARK    4  A    between atoms: C6_8  and  C7_10
REMARK    5  A    between atoms: C10_13  and  C11_14
REMARK    6  A    between atoms: C12_19  and  O3_20
REMARK                            x       y       z     vdW  Elec       q    Type
REMARK                         _______ _______ _______ _____ _____    ______ ____
ROOT
ATOM      1  C7  UNL     1      17.967  10.855  36.676  0.00  0.00    +0.041 A 
ATOM      2  C8  UNL     1      19.076  11.189  35.881  0.00  0.00    +0.014 A 
ATOM      3  C9  UNL     1      20.223  10.396  35.898  0.00  0.00    +0.016 A 
ATOM      4  C10 UNL     1      20.295   9.246  36.703  0.00  0.00    +0.064 A 
ATOM      5  C12 UNL     1      19.193   8.924  37.532  0.00  0.00    +0.128 A 
ATOM      6  C13 UNL     1      18.037   9.714  37.491  0.00  0.00    +0.059 A 
ENDROOT
BRANCH   4   7
ATOM      7  C11 UNL     1      21.507   8.400  36.616  0.00  0.00    +0.208 A 
ATOM      8  N2  UNL     1      21.785   7.366  37.436  0.00  0.00    -0.108 NA
ATOM      9  N3  UNL     1      22.908   6.849  36.967  0.00  0.00    -0.049 NA
ATOM     10  N4  UNL     1      23.286   7.533  35.901  0.00  0.00    -0.176 N 
ATOM     11  N5  UNL     1      22.431   8.507  35.642  0.00  0.00    -0.133 NA
ATOM     12  H9  UNL     1      24.139   7.327  35.336  0.00  0.00    +0.214 HD
ENDBRANCH   4   7
BRANCH   1  14
ATOM     13  N1  UNL     1      16.222  12.201  35.411  0.00  0.00    -0.281 N 
ATOM     14  C6  UNL     1      16.735  11.681  36.650  0.00  0.00    +0.248 C 
ATOM     15  O2  UNL     1      16.156  11.966  37.735  0.00  0.00    -0.270 OA
ATOM     16  H6  UNL     1      16.898  12.373  34.633  0.00  0.00    +0.155 HD
BRANCH  13  20
ATOM     17  C2  UNL     1      12.181  13.458  34.933  0.00  0.00    +0.120 A 
ATOM     18  C3  UNL     1      12.520  12.101  34.892  0.00  0.00    +0.047 A 
ATOM     19  C4  UNL     1      13.848  11.696  35.047  0.00  0.00    +0.027 A 
ATOM     20  C5  UNL     1      14.864  12.644  35.232  0.00  0.00    +0.034 A 
ATOM     21  C14 UNL     1      14.524  14.007  35.293  0.00  0.00    +0.027 A 
ATOM     22  C15 UNL     1      13.194  14.412  35.139  0.00  0.00    +0.047 A 
BRANCH  17  24
ATOM     23  C1  UNL     1       9.992  14.273  35.823  0.00  0.00    +0.277 C 
ATOM     24  O1  UNL     1      10.833  13.813  34.770  0.00  0.00    -0.495 OA
ENDBRANCH  17  24
ENDBRANCH  13  20
ENDBRANCH   1  14
BRANCH   5  25
ATOM     25  O3  UNL     1      19.215   7.857  38.433  0.00  0.00    -0.506 OA
ATOM     26  H10 UNL     1      19.519   6.926  38.188  0.00  0.00    +0.292 HD
ENDBRANCH   5  25
TORSDOF 5
ENDMDL
MODEL 3
REMARK VINA RESULT:    -5.790     11.905     14.882
REMARK INTER + INTRA:          -8.002
REMARK INTER:                  -7.369
REMARK INTRA:                  -0.634
REMARK UNBOUND:                -0.689
REMARK  Name = /home/qwerty/github/datacon2025hack/step_04_hit_selection/docking/ligands/lig_88.pdb
REMARK  6 active torsions:
REMARK  status: ('A' for Active; 'I' for Inactive)
REMARK    1  A    between atoms: C1_1  and  O1_2
REMARK    2  A    between atoms: O1_2  and  C2_3
REMARK    3  A    between atoms: C5_6  and  N1_7
REMARK    4  A    between atoms: C6_8  and  C7_10
REMARK    5  A    between atoms: C10_13  and  C11_14
REMARK    6  A    between atoms: C12_19  and  O3_20
REMARK                            x       y       z     vdW  Elec       q    Type
REMARK                         _______ _______ _______ _____ _____    ______ ____
ROOT
ATOM      1  C7  UNL     1      21.676   2.910  27.452  0.00  0.00    +0.041 A 
ATOM      2  C8  UNL     1      21.320   3.928  28.351  0.00  0.00    +0.014 A 
ATOM      3  C9  UNL     1      21.161   3.651  29.709  0.00  0.00    +0.016 A 
ATOM      4  C10 UNL     1      21.359   2.352  30.208  0.00  0.00    +0.064 A 
ATOM      5  C12 UNL     1      21.685   1.314  29.301  0.00  0.00    +0.128 A 
ATOM      6  C13 UNL     1      21.864   1.608  27.943  0.00  0.00    +0.059 A 
ENDROOT
BRANCH   4   7
ATOM      7  C11 UNL     1      21.256   2.137  31.669  0.00  0.00    +0.208 A 
ATOM      8  N2  UNL     1      21.680   3.008  32.607  0.00  0.00    -0.108 NA
ATOM      9  N3  UNL     1      21.333   2.464  33.762  0.00  0.00    -0.049 NA
ATOM     10  N4  UNL     1      20.715   1.319  33.531  0.00  0.00    -0.176 N 
ATOM     11  N5  UNL     1      20.637   1.082  32.234  0.00  0.00    -0.133 NA
ATOM     12  H9  UNL     1      20.333   0.692  34.273  0.00  0.00    +0.214 HD
ENDBRANCH   4   7
BRANCH   1  14
ATOM     13  N1  UNL     1      20.818   3.802  25.233  0.00  0.00    -0.281 N 
ATOM     14  C6  UNL     1      21.867   3.198  26.009  0.00  0.00    +0.248 C 
ATOM     15  O2  UNL     1      22.948   2.869  25.448  0.00  0.00    -0.270 OA
ATOM     16  H6  UNL     1      19.830   3.645  25.537  0.00  0.00    +0.155 HD
BRANCH  13  20
ATOM     17  C2  UNL     1      21.543   5.800  21.543  0.00  0.00    +0.120 A 
ATOM     18  C3  UNL     1      22.107   6.267  22.735  0.00  0.00    +0.047 A 
ATOM     19  C4  UNL     1      21.863   5.608  23.943  0.00  0.00    +0.027 A 
ATOM     20  C5  UNL     1      21.036   4.477  23.981  0.00  0.00    +0.034 A 
ATOM     21  C14 UNL     1      20.484   3.993  22.782  0.00  0.00    +0.027 A 
ATOM     22  C15 UNL     1      20.729   4.652  21.573  0.00  0.00    +0.047 A 
BRANCH  17  24
ATOM     23  C1  UNL     1      21.660   5.953  19.051  0.00  0.00    +0.277 C 
ATOM     24  O1  UNL     1      21.817   6.498  20.357  0.00  0.00    -0.495 OA
ENDBRANCH  17  24
ENDBRANCH  13  20
ENDBRANCH   1  14
BRANCH   5  25
ATOM     25  O3  UNL     1      21.805  -0.020  29.696  0.00  0.00    -0.506 OA
ATOM     26  H10 UNL     1      21.137  -0.488  30.291  0.00  0.00    +0.292 HD
ENDBRANCH   5  25
TORSDOF 5
ENDMDL
MODEL 4
REMARK VINA RESULT:    -5.776     17.311     18.441
REMARK INTER + INTRA:          -7.984
REMARK INTER:                  -7.277
REMARK INTRA:                  -0.707
REMARK UNBOUND:                -0.689
REMARK  Name = /home/qwerty/github/datacon2025hack/step_04_hit_selection/docking/ligands/lig_88.pdb
REMARK  6 active torsions:
REMARK  status: ('A' for Active; 'I' for Inactive)
REMARK    1  A    between atoms: C1_1  and  O1_2
REMARK    2  A    between atoms: O1_2  and  C2_3
REMARK    3  A    between atoms: C5_6  and  N1_7
REMARK    4  A    between atoms: C6_8  and  C7_10
REMARK    5  A    between atoms: C10_13  and  C11_14
REMARK    6  A    between atoms: C12_19  and  O3_20
REMARK                            x       y       z     vdW  Elec       q    Type
REMARK                         _______ _______ _______ _____ _____    ______ ____
ROOT
ATOM      1  C7  UNL     1      17.628   6.265  20.341  0.00  0.00    +0.041 A 
ATOM      2  C8  UNL     1      18.074   5.112  21.005  0.00  0.00    +0.014 A 
ATOM      3  C9  UNL     1      17.289   3.958  21.025  0.00  0.00    +0.016 A 
ATOM      4  C10 UNL     1      16.041   3.923  20.381  0.00  0.00    +0.064 A 
ATOM      5  C12 UNL     1      15.571   5.094  19.739  0.00  0.00    +0.128 A 
ATOM      6  C13 UNL     1      16.377   6.239  19.704  0.00  0.00    +0.059 A 
ENDROOT
BRANCH   4   7
ATOM      7  C11 UNL     1      15.292   2.646  20.368  0.00  0.00    +0.208 A 
ATOM      8  N2  UNL     1      13.999   2.508  20.724  0.00  0.00    -0.108 NA
ATOM      9  N3  UNL     1      13.714   1.236  20.495  0.00  0.00    -0.049 NA
ATOM     10  N4  UNL     1      14.786   0.635  20.009  0.00  0.00    -0.176 N 
ATOM     11  N5  UNL     1      15.792   1.484  19.905  0.00  0.00    -0.133 NA
ATOM     12  H9  UNL     1      14.828  -0.372  19.738  0.00  0.00    +0.214 HD
ENDBRANCH   4   7
BRANCH   1  14
ATOM     13  N1  UNL     1      18.416   8.374  19.162  0.00  0.00    -0.281 N 
ATOM     14  C6  UNL     1      18.463   7.491  20.296  0.00  0.00    +0.248 C 
ATOM     15  O2  UNL     1      19.257   7.735  21.246  0.00  0.00    -0.270 OA
ATOM     16  H6  UNL     1      18.157   7.969  18.234  0.00  0.00    +0.155 HD
BRANCH  13  20
ATOM     17  C2  UNL     1      19.743  12.421  19.195  0.00  0.00    +0.120 A 
ATOM     18  C3  UNL     1      20.605  11.386  18.817  0.00  0.00    +0.047 A 
ATOM     19  C4  UNL     1      20.164  10.060  18.811  0.00  0.00    +0.027 A 
ATOM     20  C5  UNL     1      18.854   9.744  19.198  0.00  0.00    +0.034 A 
ATOM     21  C14 UNL     1      17.979  10.784  19.559  0.00  0.00    +0.027 A 
ATOM     22  C15 UNL     1      18.421  12.111  19.564  0.00  0.00    +0.047 A 
BRANCH  17  24
ATOM     23  C1  UNL     1      19.946  14.706  20.185  0.00  0.00    +0.277 C 
ATOM     24  O1  UNL     1      20.234  13.735  19.185  0.00  0.00    -0.495 OA
ENDBRANCH  17  24
ENDBRANCH  13  20
ENDBRANCH   1  14
BRANCH   5  25
ATOM     25  O3  UNL     1      14.304   5.176  19.157  0.00  0.00    -0.506 OA
ATOM     26  H10 UNL     1      14.135   5.565  18.240  0.00  0.00    +0.292 HD
ENDBRANCH   5  25
TORSDOF 5
ENDMDL
MODEL 5
REMARK VINA RESULT:    -5.736     10.162     13.116
REMARK INTER + INTRA:          -7.934
REMARK INTER:                  -7.279
REMARK INTRA:                  -0.655
REMARK UNBOUND:                -0.689
REMARK  Name = /home/qwerty/github/datacon2025hack/step_04_hit_selection/docking/ligands/lig_88.pdb
REMARK  6 active torsions:
REMARK  status: ('A' for Active; 'I' for Inactive)
REMARK    1  A    between atoms: C1_1  and  O1_2
REMARK    2  A    between atoms: O1_2  and  C2_3
REMARK    3  A    between atoms: C5_6  and  N1_7
REMARK    4  A    between atoms: C6_8  and  C7_10
REMARK    5  A    between atoms: C10_13  and  C11_14
REMARK    6  A    between atoms: C12_19  and  O3_20
REMARK                            x       y       z     vdW  Elec       q    Type
REMARK                         _______ _______ _______ _____ _____    ______ ____
ROOT
ATOM      1  C7  UNL     1      20.451   1.553  30.688  0.00  0.00    +0.041 A 
ATOM      2  C8  UNL     1      19.497   2.084  29.805  0.00  0.00    +0.014 A 
ATOM      3  C9  UNL     1      19.833   2.357  28.479  0.00  0.00    +0.016 A 
ATOM      4  C10 UNL     1      21.128   2.102  27.996  0.00  0.00    +0.064 A 
ATOM      5  C12 UNL     1      22.103   1.598  28.889  0.00  0.00    +0.128 A 
ATOM      6  C13 UNL     1      21.749   1.307  30.213  0.00  0.00    +0.059 A 
ENDROOT
BRANCH   4   7
ATOM      7  C11 UNL     1      21.401   2.334  26.559  0.00  0.00    +0.208 A 
ATOM      8  N2  UNL     1      20.511   2.137  25.564  0.00  0.00    -0.108 NA
ATOM      9  N3  UNL     1      21.133   2.532  24.465  0.00  0.00    -0.049 NA
ATOM     10  N4  UNL     1      22.341   2.962  24.784  0.00  0.00    -0.176 N 
ATOM     11  N5  UNL     1      22.545   2.864  26.086  0.00  0.00    -0.133 NA
ATOM     12  H9  UNL     1      23.036   3.335  24.101  0.00  0.00    +0.214 HD
ENDBRANCH   4   7
BRANCH   1  14
ATOM     13  N1  UNL     1      19.216   2.098  32.841  0.00  0.00    -0.281 N 
ATOM     14  C6  UNL     1      20.098   1.241  32.095  0.00  0.00    +0.248 C 
ATOM     15  O2  UNL     1      20.614   0.236  32.656  0.00  0.00    -0.270 OA
ATOM     16  H6  UNL     1      19.174   3.108  32.576  0.00  0.00    +0.155 HD
BRANCH  13  20
ATOM     17  C2  UNL     1      17.142   0.793  36.323  0.00  0.00    +0.120 A 
ATOM     18  C3  UNL     1      16.884   0.216  35.075  0.00  0.00    +0.047 A 
ATOM     19  C4  UNL     1      17.566   0.650  33.936  0.00  0.00    +0.027 A 
ATOM     20  C5  UNL     1      18.510   1.683  34.023  0.00  0.00    +0.034 A 
ATOM     21  C14 UNL     1      18.786   2.252  35.279  0.00  0.00    +0.027 A 
ATOM     22  C15 UNL     1      18.103   1.816  36.419  0.00  0.00    +0.047 A 
BRANCH  17  24
ATOM     23  C1  UNL     1      15.345  -0.598  37.364  0.00  0.00    +0.277 C 
ATOM     24  O1  UNL     1      16.428   0.323  37.436  0.00  0.00    -0.495 OA
ENDBRANCH  17  24
ENDBRANCH  13  20
ENDBRANCH   1  14
BRANCH   5  25
ATOM     25  O3  UNL     1      23.436   1.406  28.519  0.00  0.00    -0.506 OA
ATOM     26  H10 UNL     1      24.207   1.917  28.924  0.00  0.00    +0.292 HD
ENDBRANCH   5  25
TORSDOF 5
ENDMDL
MODEL 6
REMARK VINA RESULT:    -5.722      3.647      9.562
REMARK INTER + INTRA:          -7.916
REMARK INTER:                  -7.217
REMARK INTRA:                  -0.699
REMARK UNBOUND:                -0.689
REMARK  Name = /home/qwerty/github/datacon2025hack/step_04_hit_selection/docking/ligands/lig_88.pdb
REMARK  6 active torsions:
REMARK  status: ('A' for Active; 'I' for Inactive)
REMARK    1  A    between atoms: C1_1  and  O1_2
REMARK    2  A    between atoms: O1_2  and  C2_3
REMARK    3  A    between atoms: C5_6  and  N1_7
REMARK    4  A    between atoms: C6_8  and  C7_10
REMARK    5  A    between atoms: C10_13  and  C11_14
REMARK    6  A    between atoms: C12_19  and  O3_20
REMARK                            x       y       z     vdW  Elec       q    Type
REMARK                         _______ _______ _______ _____ _____    ______ ____
ROOT
ATOM      1  C7  UNL     1      20.221   9.371  36.077  0.00  0.00    +0.041 A 
ATOM      2  C8  UNL     1      20.597   9.627  34.748  0.00  0.00    +0.014 A 
ATOM      3  C9  UNL     1      21.755   9.057  34.218  0.00  0.00    +0.016 A 
ATOM      4  C10 UNL     1      22.566   8.214  34.996  0.00  0.00    +0.064 A 
ATOM      5  C12 UNL     1      22.211   7.981  36.346  0.00  0.00    +0.128 A 
ATOM      6  C13 UNL     1      21.034   8.539  36.862  0.00  0.00    +0.059 A 
ENDROOT
BRANCH   4   7
ATOM      7  C11 UNL     1      23.737   7.575  34.353  0.00  0.00    +0.208 A 
ATOM      8  N2  UNL     1      24.141   6.307  34.575  0.00  0.00    -0.108 NA
ATOM      9  N3  UNL     1      25.162   6.124  33.754  0.00  0.00    -0.049 NA
ATOM     10  N4  UNL     1      25.358   7.229  33.056  0.00  0.00    -0.176 N 
ATOM     11  N5  UNL     1      24.481   8.158  33.393  0.00  0.00    -0.133 NA
ATOM     12  H9  UNL     1      26.099   7.348  32.331  0.00  0.00    +0.214 HD
ENDBRANCH   4   7
BRANCH   1  14
ATOM     13  N1  UNL     1      18.074  10.706  35.817  0.00  0.00    -0.281 N 
ATOM     14  C6  UNL     1      18.981   9.956  36.644  0.00  0.00    +0.248 C 
ATOM     15  O2  UNL     1      18.743   9.830  37.877  0.00  0.00    -0.270 OA
ATOM     16  H6  UNL     1      18.464  11.196  34.981  0.00  0.00    +0.155 HD
BRANCH  13  20
ATOM     17  C2  UNL     1      14.007  11.502  36.797  0.00  0.00    +0.120 A 
ATOM     18  C3  UNL     1      15.019  12.402  37.148  0.00  0.00    +0.047 A 
ATOM     19  C4  UNL     1      16.352  12.133  36.826  0.00  0.00    +0.027 A 
ATOM     20  C5  UNL     1      16.698  10.950  36.158  0.00  0.00    +0.034 A 
ATOM     21  C14 UNL     1      15.681  10.053  35.786  0.00  0.00    +0.027 A 
ATOM     22  C15 UNL     1      14.347  10.323  36.108  0.00  0.00    +0.047 A 
BRANCH  17  24
ATOM     23  C1  UNL     1      11.702  10.856  37.516  0.00  0.00    +0.277 C 
ATOM     24  O1  UNL     1      12.685  11.817  37.145  0.00  0.00    -0.495 OA
ENDBRANCH  17  24
ENDBRANCH  13  20
ENDBRANCH   1  14
BRANCH   5  25
ATOM     25  O3  UNL     1      23.009   7.235  37.217  0.00  0.00    -0.506 OA
ATOM     26  H10 UNL     1      22.681   6.421  37.716  0.00  0.00    +0.292 HD
ENDBRANCH   5  25
TORSDOF 5
ENDMDL
MODEL 7
REMARK VINA RESULT:    -5.614     15.678     16.700
REMARK INTER + INTRA:          -7.780
REMARK INTER:                  -7.098
REMARK INTRA:                  -0.682
REMARK UNBOUND:                -0.689
REMARK  Name = /home/qwerty/github/datacon2025hack/step_04_hit_selection/docking/ligands/lig_88.pdb
REMARK  6 active torsions:
REMARK  status: ('A' for Active; 'I' for Inactive)
REMARK    1  A    between atoms: C1_1  and  O1_2
REMARK    2  A    between atoms: O1_2  and  C2_3
REMARK    3  A    between atoms: C5_6  and  N1_7
REMARK    4  A    between atoms: C6_8  and  C7_10
REMARK    5  A    between atoms: C10_13  and  C11_14
REMARK    6  A    between atoms: C12_19  and  O3_20
REMARK                            x       y       z     vdW  Elec       q    Type
REMARK                         _______ _______ _______ _____ _____    ______ ____
ROOT
ATOM      1  C7  UNL     1       8.849   1.366  25.341  0.00  0.00    +0.041 A 
ATOM      2  C8  UNL     1       8.309   2.661  25.392  0.00  0.00    +0.014 A 
ATOM      3  C9  UNL     1       8.411   3.514  24.293  0.00  0.00    +0.016 A 
ATOM      4  C10 UNL     1       9.050   3.097  23.113  0.00  0.00    +0.064 A 
ATOM      5  C12 UNL     1       9.626   1.805  23.068  0.00  0.00    +0.128 A 
ATOM      6  C13 UNL     1       9.498   0.948  24.168  0.00  0.00    +0.059 A 
ENDROOT
BRANCH   4   7
ATOM      7  C11 UNL     1       9.055   4.018  21.953  0.00  0.00    +0.208 A 
ATOM      8  N2  UNL     1      10.164   4.486  21.346  0.00  0.00    -0.108 NA
ATOM      9  N3  UNL     1       9.721   5.204  20.327  0.00  0.00    -0.049 NA
ATOM     10  N4  UNL     1       8.400   5.161  20.311  0.00  0.00    -0.176 N 
ATOM     11  N5  UNL     1       7.944   4.421  21.307  0.00  0.00    -0.133 NA
ATOM     12  H9  UNL     1       7.800   5.639  19.605  0.00  0.00    +0.214 HD
ENDBRANCH   4   7
BRANCH   1  14
ATOM     13  N1  UNL     1       9.872   0.121  27.306  0.00  0.00    -0.281 N 
ATOM     14  C6  UNL     1       8.728   0.443  26.497  0.00  0.00    +0.248 C 
ATOM     15  O2  UNL     1       7.615  -0.098  26.745  0.00  0.00    -0.270 OA
ATOM     16  H6  UNL     1      10.816   0.167  26.861  0.00  0.00    +0.155 HD
BRANCH  13  20
ATOM     17  C2  UNL     1       9.543  -1.412  31.265  0.00  0.00    +0.120 A 
ATOM     18  C3  UNL     1       9.365  -0.049  31.007  0.00  0.00    +0.047 A 
ATOM     19  C4  UNL     1       9.478   0.448  29.705  0.00  0.00    +0.027 A 
ATOM     20  C5  UNL     1       9.784  -0.410  28.640  0.00  0.00    +0.034 A 
ATOM     21  C14 UNL     1       9.943  -1.784  28.894  0.00  0.00    +0.027 A 
ATOM     22  C15 UNL     1       9.830  -2.281  30.196  0.00  0.00    +0.047 A 
BRANCH  17  24
ATOM     23  C1  UNL     1       9.868  -1.133  33.728  0.00  0.00    +0.277 C 
ATOM     24  O1  UNL     1       9.421  -1.861  32.589  0.00  0.00    -0.495 OA
ENDBRANCH  17  24
ENDBRANCH  13  20
ENDBRANCH   1  14
BRANCH   5  25
ATOM     25  O3  UNL     1      10.361   1.346  21.972  0.00  0.00    -0.506 OA
ATOM     26  H10 UNL     1      10.540   0.369  21.790  0.00  0.00    +0.292 HD
ENDBRANCH   5  25
TORSDOF 5
ENDMDL
MODEL 8
REMARK VINA RESULT:    -5.598     16.609     18.227
REMARK INTER + INTRA:          -7.760
REMARK INTER:                  -7.048
REMARK INTRA:                  -0.711
REMARK UNBOUND:                -0.689
REMARK  Name = /home/qwerty/github/datacon2025hack/step_04_hit_selection/docking/ligands/lig_88.pdb
REMARK  6 active torsions:
REMARK  status: ('A' for Active; 'I' for Inactive)
REMARK    1  A    between atoms: C1_1  and  O1_2
REMARK    2  A    between atoms: O1_2  and  C2_3
REMARK    3  A    between atoms: C5_6  and  N1_7
REMARK    4  A    between atoms: C6_8  and  C7_10
REMARK    5  A    between atoms: C10_13  and  C11_14
REMARK    6  A    between atoms: C12_19  and  O3_20
REMARK                            x       y       z     vdW  Elec       q    Type
REMARK                         _______ _______ _______ _____ _____    ______ ____
ROOT
ATOM      1  C7  UNL     1      10.118   1.619  23.929  0.00  0.00    +0.041 A 
ATOM      2  C8  UNL     1      11.331   0.931  24.094  0.00  0.00    +0.014 A 
ATOM      3  C9  UNL     1      12.341   1.038  23.137  0.00  0.00    +0.016 A 
ATOM      4  C10 UNL     1      12.171   1.838  21.994  0.00  0.00    +0.064 A 
ATOM      5  C12 UNL     1      10.937   2.507  21.806  0.00  0.00    +0.128 A 
ATOM      6  C13 UNL     1       9.938   2.410  22.784  0.00  0.00    +0.059 A 
ENDROOT
BRANCH   4   7
ATOM      7  C11 UNL     1      13.309   1.977  21.057  0.00  0.00    +0.208 A 
ATOM      8  N2  UNL     1      14.197   1.003  20.775  0.00  0.00    -0.108 NA
ATOM      9  N3  UNL     1      14.989   1.518  19.849  0.00  0.00    -0.049 NA
ATOM     10  N4  UNL     1      14.588   2.747  19.573  0.00  0.00    -0.176 N 
ATOM     11  N5  UNL     1      13.533   3.069  20.301  0.00  0.00    -0.133 NA
ATOM     12  H9  UNL     1      15.038   3.374  18.871  0.00  0.00    +0.214 HD
ENDBRANCH   4   7
BRANCH   1  14
ATOM     13  N1  UNL     1       8.614   0.250  25.453  0.00  0.00    -0.281 N 
ATOM     14  C6  UNL     1       9.045   1.527  24.950  0.00  0.00    +0.248 C 
ATOM     15  O2  UNL     1       8.475   2.580  25.348  0.00  0.00    -0.270 OA
ATOM     16  H6  UNL     1       8.721  -0.583  24.833  0.00  0.00    +0.155 HD
BRANCH  13  20
ATOM     17  C2  UNL     1       6.552  -0.195  29.153  0.00  0.00    +0.120 A 
ATOM     18  C3  UNL     1       7.943  -0.047  29.120  0.00  0.00    +0.047 A 
ATOM     19  C4  UNL     1       8.613   0.097  27.902  0.00  0.00    +0.027 A 
ATOM     20  C5  UNL     1       7.904   0.079  26.693  0.00  0.00    +0.034 A 
ATOM     21  C14 UNL     1       6.504  -0.051  26.724  0.00  0.00    +0.027 A 
ATOM     22  C15 UNL     1       5.834  -0.193  27.943  0.00  0.00    +0.047 A 
BRANCH  17  24
ATOM     23  C1  UNL     1       6.573  -0.821  31.573  0.00  0.00    +0.277 C 
ATOM     24  O1  UNL     1       5.926  -0.337  30.401  0.00  0.00    -0.495 OA
ENDBRANCH  17  24
ENDBRANCH  13  20
ENDBRANCH   1  14
BRANCH   5  25
ATOM     25  O3  UNL     1      10.647   3.244  20.656  0.00  0.00    -0.506 OA
ATOM     26  H10 UNL     1       9.737   3.633  20.457  0.00  0.00    +0.292 HD
ENDBRANCH   5  25
TORSDOF 5
ENDMDL
MODEL 9
REMARK VINA RESULT:    -5.587      9.886     11.846
REMARK INTER + INTRA:          -7.746
REMARK INTER:                  -7.050
REMARK INTRA:                  -0.696
REMARK UNBOUND:                -0.689
REMARK  Name = /home/qwerty/github/datacon2025hack/step_04_hit_selection/docking/ligands/lig_88.pdb
REMARK  6 active torsions:
REMARK  status: ('A' for Active; 'I' for Inactive)
REMARK    1  A    between atoms: C1_1  and  O1_2
REMARK    2  A    between atoms: O1_2  and  C2_3
REMARK    3  A    between atoms: C5_6  and  N1_7
REMARK    4  A    between atoms: C6_8  and  C7_10
REMARK    5  A    between atoms: C10_13  and  C11_14
REMARK    6  A    between atoms: C12_19  and  O3_20
REMARK                            x       y       z     vdW  Elec       q    Type
REMARK                         _______ _______ _______ _____ _____    ______ ____
ROOT
ATOM      1  C7  UNL     1      21.785  14.962  29.319  0.00  0.00    +0.041 A 
ATOM      2  C8  UNL     1      21.468  15.909  28.332  0.00  0.00    +0.014 A 
ATOM      3  C9  UNL     1      22.121  15.893  27.100  0.00  0.00    +0.016 A 
ATOM      4  C10 UNL     1      23.104  14.930  26.816  0.00  0.00    +0.064 A 
ATOM      5  C12 UNL     1      23.452  13.994  27.819  0.00  0.00    +0.128 A 
ATOM      6  C13 UNL     1      22.774  14.004  29.045  0.00  0.00    +0.059 A 
ENDROOT
BRANCH   4   7
ATOM      7  C11 UNL     1      23.703  14.913  25.462  0.00  0.00    +0.208 A 
ATOM      8  N2  UNL     1      24.288  15.972  24.865  0.00  0.00    -0.108 NA
ATOM      9  N3  UNL     1      24.746  15.507  23.715  0.00  0.00    -0.049 NA
ATOM     10  N4  UNL     1      24.462  14.219  23.626  0.00  0.00    -0.176 N 
ATOM     11  N5  UNL     1      23.818  13.806  24.703  0.00  0.00    -0.133 NA
ATOM     12  H9  UNL     1      24.719  13.610  22.818  0.00  0.00    +0.214 HD
ENDBRANCH   4   7
BRANCH   1  14
ATOM     13  N1  UNL     1      19.889  14.180  30.818  0.00  0.00    -0.281 N 
ATOM     14  C6  UNL     1      21.083  14.958  30.626  0.00  0.00    +0.248 C 
ATOM     15  O2  UNL     1      21.515  15.682  31.565  0.00  0.00    -0.270 OA
ATOM     16  H6  UNL     1      19.293  13.980  29.984  0.00  0.00    +0.155 HD
BRANCH  13  20
ATOM     17  C2  UNL     1      18.326  13.046  34.614  0.00  0.00    +0.120 A 
ATOM     18  C3  UNL     1      17.836  14.172  33.944  0.00  0.00    +0.047 A 
ATOM     19  C4  UNL     1      18.356  14.540  32.700  0.00  0.00    +0.027 A 
ATOM     20  C5  UNL     1      19.386  13.794  32.110  0.00  0.00    +0.034 A 
ATOM     21  C14 UNL     1      19.867  12.651  32.772  0.00  0.00    +0.027 A 
ATOM     22  C15 UNL     1      19.346  12.282  34.017  0.00  0.00    +0.047 A 
BRANCH  17  24
ATOM     23  C1  UNL     1      17.708  11.399  36.390  0.00  0.00    +0.277 C 
ATOM     24  O1  UNL     1      17.773  12.719  35.862  0.00  0.00    -0.495 OA
ENDBRANCH  17  24
ENDBRANCH  13  20
ENDBRANCH   1  14
BRANCH   5  25
ATOM     25  O3  UNL     1      24.482  13.064  27.658  0.00  0.00    -0.506 OA
ATOM     26  H10 UNL     1      25.087  13.036  26.850  0.00  0.00    +0.292 HD
ENDBRANCH   5  25
TORSDOF 5
ENDMDL
