MODEL 1
REMARK VINA RESULT:    -8.263      0.000      0.000
REMARK INTER + INTRA:         -10.620
REMARK INTER:                 -10.196
REMARK INTRA:                  -0.425
REMARK UNBOUND:                -0.425
REMARK  Name = /home/qwerty/github/datacon2025hack/step_04_hit_selection/docking/ligands/lig_809.pdb
REMARK  6 active torsions:
REMARK  status: ('A' for Active; 'I' for Inactive)
REMARK    1  A    between atoms: C1_1  and  C2_2
REMARK    2  A    between atoms: C2_2  and  C3_3
REMARK    3  A    between atoms: C2_2  and  C4_4
REMARK    4  A    between atoms: N4_14  and  C11_15
REMARK    5  A    between atoms: C13_17  and  C14_18
REMARK    6  A    between atoms: N5_20  and  C15_21
REMARK                            x       y       z     vdW  Elec       q    Type
REMARK                         _______ _______ _______ _____ _____    ______ ____
ROOT
ATOM      1  C4  UNL     1      14.162  -0.604  24.627  0.00  0.00    +0.082 A 
ATOM      2  N1  UNL     1      15.352  -0.411  24.010  0.00  0.00    -0.244 NA
ATOM      3  C5  UNL     1      15.231   0.432  22.952  0.00  0.00    +0.079 A 
ATOM      4  C6  UNL     1      16.307   0.837  22.166  0.00  0.00    +0.031 A 
ATOM      5  C7  UNL     1      16.086   1.752  21.129  0.00  0.00    +0.030 A 
ATOM      6  C8  UNL     1      14.793   2.246  20.873  0.00  0.00    +0.077 A 
ATOM      7  N2  UNL     1      14.614   3.162  19.887  0.00  0.00    -0.235 NA
ATOM      8  C9  UNL     1      13.387   3.670  19.616  0.00  0.00    +0.223 A 
ATOM      9  N3  UNL     1      12.306   3.249  20.318  0.00  0.00    -0.220 NA
ATOM     10  C10 UNL     1      12.410   2.330  21.316  0.00  0.00    +0.135 A 
ATOM     11  N4  UNL     1      11.210   1.864  21.948  0.00  0.00    -0.298 N 
ATOM     12  C24 UNL     1      13.684   1.807  21.643  0.00  0.00    +0.056 A 
ATOM     13  C25 UNL     1      13.946   0.907  22.698  0.00  0.00    +0.052 A 
ATOM     14  S1  UNL     1      12.924   0.261  23.873  0.00  0.00    -0.071 S 
ATOM     15  H11 UNL     1      11.064   0.832  21.989  0.00  0.00    +0.154 HD
ENDROOT
BRANCH  11  16
ATOM     16  C11 UNL     1      10.138   2.745  22.331  0.00  0.00    +0.052 A 
ATOM     17  C12 UNL     1       9.999   4.006  21.719  0.00  0.00    +0.037 A 
ATOM     18  C13 UNL     1       8.967   4.885  22.092  0.00  0.00    +0.039 A 
ATOM     19  C21 UNL     1       8.081   4.497  23.110  0.00  0.00    +0.014 A 
ATOM     20  C22 UNL     1       8.217   3.256  23.732  0.00  0.00    +0.022 A 
ATOM     21  C23 UNL     1       9.238   2.379  23.353  0.00  0.00    +0.062 A 
ATOM     22 CL1  UNL     1       9.341   0.821  24.165  0.00  0.00    -0.082 Cl
BRANCH  18  23
ATOM     23  C14 UNL     1       8.841   6.210  21.437  0.00  0.00    +0.248 C 
ATOM     24  O1  UNL     1       8.008   6.366  20.502  0.00  0.00    -0.270 OA
ATOM     25  N5  UNL     1       9.624   7.331  21.881  0.00  0.00    -0.279 N 
ATOM     26  H13 UNL     1       9.921   7.357  22.883  0.00  0.00    +0.155 HD
BRANCH  25  27
ATOM     27  C15 UNL     1       9.830   8.512  21.089  0.00  0.00    +0.069 A 
ATOM     28  C16 UNL     1       8.988   9.619  21.276  0.00  0.00    +0.026 A 
ATOM     29  C17 UNL     1       9.175  10.785  20.529  0.00  0.00    +0.002 A 
ATOM     30  C18 UNL     1      10.216  10.862  19.601  0.00  0.00    +0.003 A 
ATOM     31  C19 UNL     1      11.076   9.776  19.425  0.00  0.00    +0.040 A 
ATOM     32  C20 UNL     1      10.893   8.605  20.168  0.00  0.00    +0.144 A 
ATOM     33  F1  UNL     1      11.780   7.588  20.022  0.00  0.00    -0.204 F 
ENDBRANCH  25  27
ENDBRANCH  18  23
ENDBRANCH  11  16
BRANCH   1  35
ATOM     34  C1  UNL     1      14.375  -2.937  25.463  0.00  0.00    +0.014 C 
ATOM     35  C2  UNL     1      13.973  -1.503  25.815  0.00  0.00    +0.039 C 
ATOM     36  C3  UNL     1      14.774  -0.986  27.013  0.00  0.00    +0.014 C 
ENDBRANCH   1  35
TORSDOF 4
ENDMDL
MODEL 2
REMARK VINA RESULT:    -7.637     11.562     14.617
REMARK INTER + INTRA:          -9.847
REMARK INTER:                  -8.681
REMARK INTRA:                  -1.167
REMARK UNBOUND:                -0.425
REMARK  Name = /home/qwerty/github/datacon2025hack/step_04_hit_selection/docking/ligands/lig_809.pdb
REMARK  6 active torsions:
REMARK  status: ('A' for Active; 'I' for Inactive)
REMARK    1  A    between atoms: C1_1  and  C2_2
REMARK    2  A    between atoms: C2_2  and  C3_3
REMARK    3  A    between atoms: C2_2  and  C4_4
REMARK    4  A    between atoms: N4_14  and  C11_15
REMARK    5  A    between atoms: C13_17  and  C14_18
REMARK    6  A    between atoms: N5_20  and  C15_21
REMARK                            x       y       z     vdW  Elec       q    Type
REMARK                         _______ _______ _______ _____ _____    ______ ____
ROOT
ATOM      1  C4  UNL     1      21.009   9.789  30.320  0.00  0.00    +0.082 A 
ATOM      2  N1  UNL     1      22.105  10.459  30.748  0.00  0.00    -0.244 NA
ATOM      3  C5  UNL     1      22.976   9.631  31.382  0.00  0.00    +0.079 A 
ATOM      4  C6  UNL     1      24.206  10.050  31.885  0.00  0.00    +0.031 A 
ATOM      5  C7  UNL     1      25.057   9.106  32.475  0.00  0.00    +0.030 A 
ATOM      6  C8  UNL     1      24.671   7.757  32.573  0.00  0.00    +0.077 A 
ATOM      7  N2  UNL     1      25.531   6.857  33.115  0.00  0.00    -0.235 NA
ATOM      8  C9  UNL     1      25.201   5.546  33.217  0.00  0.00    +0.223 A 
ATOM      9  N3  UNL     1      23.986   5.115  32.799  0.00  0.00    -0.220 NA
ATOM     10  C10 UNL     1      23.072   5.961  32.252  0.00  0.00    +0.135 A 
ATOM     11  N4  UNL     1      21.774   5.449  31.920  0.00  0.00    -0.298 N 
ATOM     12  C24 UNL     1      23.402   7.330  32.101  0.00  0.00    +0.056 A 
ATOM     13  C25 UNL     1      22.581   8.299  31.486  0.00  0.00    +0.052 A 
ATOM     14  S1  UNL     1      21.085   8.152  30.722  0.00  0.00    -0.071 S 
ATOM     15  H11 UNL     1      20.949   5.959  32.305  0.00  0.00    +0.154 HD
ENDROOT
BRANCH  11  16
ATOM     16  C11 UNL     1      21.579   4.181  31.268  0.00  0.00    +0.052 A 
ATOM     17  C12 UNL     1      21.509   4.106  29.863  0.00  0.00    +0.037 A 
ATOM     18  C13 UNL     1      21.305   2.877  29.211  0.00  0.00    +0.039 A 
ATOM     19  C21 UNL     1      21.144   1.716  29.985  0.00  0.00    +0.014 A 
ATOM     20  C22 UNL     1      21.199   1.782  31.378  0.00  0.00    +0.022 A 
ATOM     21  C23 UNL     1      21.413   3.002  32.024  0.00  0.00    +0.062 A 
ATOM     22 CL1  UNL     1      21.490   3.011  33.783  0.00  0.00    -0.082 Cl
BRANCH  18  23
ATOM     23  C14 UNL     1      21.230   2.820  27.730  0.00  0.00    +0.248 C 
ATOM     24  O1  UNL     1      21.855   1.917  27.109  0.00  0.00    -0.270 OA
ATOM     25  N5  UNL     1      20.422   3.755  26.995  0.00  0.00    -0.279 N 
ATOM     26  H13 UNL     1      19.578   4.153  27.468  0.00  0.00    +0.155 HD
BRANCH  25  27
ATOM     27  C15 UNL     1      20.581   3.998  25.588  0.00  0.00    +0.069 A 
ATOM     28  C16 UNL     1      19.686   3.404  24.684  0.00  0.00    +0.026 A 
ATOM     29  C17 UNL     1      19.810   3.636  23.311  0.00  0.00    +0.002 A 
ATOM     30  C18 UNL     1      20.816   4.476  22.831  0.00  0.00    +0.003 A 
ATOM     31  C19 UNL     1      21.696   5.093  23.723  0.00  0.00    +0.040 A 
ATOM     32  C20 UNL     1      21.579   4.864  25.099  0.00  0.00    +0.144 A 
ATOM     33  F1  UNL     1      22.407   5.525  25.947  0.00  0.00    -0.204 F 
ENDBRANCH  25  27
ENDBRANCH  18  23
ENDBRANCH  11  16
BRANCH   1  35
ATOM     34  C1  UNL     1      20.266  11.826  29.100  0.00  0.00    +0.014 C 
ATOM     35  C2  UNL     1      19.859  10.440  29.605  0.00  0.00    +0.039 C 
ATOM     36  C3  UNL     1      19.373   9.555  28.454  0.00  0.00    +0.014 C 
ENDBRANCH   1  35
TORSDOF 4
ENDMDL
MODEL 3
REMARK VINA RESULT:    -7.625     11.718     13.898
REMARK INTER + INTRA:          -9.833
REMARK INTER:                  -8.659
REMARK INTRA:                  -1.174
REMARK UNBOUND:                -0.425
REMARK  Name = /home/qwerty/github/datacon2025hack/step_04_hit_selection/docking/ligands/lig_809.pdb
REMARK  6 active torsions:
REMARK  status: ('A' for Active; 'I' for Inactive)
REMARK    1  A    between atoms: C1_1  and  C2_2
REMARK    2  A    between atoms: C2_2  and  C3_3
REMARK    3  A    between atoms: C2_2  and  C4_4
REMARK    4  A    between atoms: N4_14  and  C11_15
REMARK    5  A    between atoms: C13_17  and  C14_18
REMARK    6  A    between atoms: N5_20  and  C15_21
REMARK                            x       y       z     vdW  Elec       q    Type
REMARK                         _______ _______ _______ _____ _____    ______ ____
ROOT
ATOM      1  C4  UNL     1      12.783   8.459  34.912  0.00  0.00    +0.082 A 
ATOM      2  N1  UNL     1      12.366   8.726  36.172  0.00  0.00    -0.244 NA
ATOM      3  C5  UNL     1      11.856   9.981  36.269  0.00  0.00    +0.079 A 
ATOM      4  C6  UNL     1      11.316  10.501  37.443  0.00  0.00    +0.031 A 
ATOM      5  C7  UNL     1      10.766  11.790  37.426  0.00  0.00    +0.030 A 
ATOM      6  C8  UNL     1      10.773  12.556  36.246  0.00  0.00    +0.077 A 
ATOM      7  N2  UNL     1      10.198  13.787  36.249  0.00  0.00    -0.235 NA
ATOM      8  C9  UNL     1      10.174  14.551  35.129  0.00  0.00    +0.223 A 
ATOM      9  N3  UNL     1      10.750  14.103  33.986  0.00  0.00    -0.220 NA
ATOM     10  C10 UNL     1      11.348  12.884  33.913  0.00  0.00    +0.135 A 
ATOM     11  N4  UNL     1      12.017  12.519  32.698  0.00  0.00    -0.298 N 
ATOM     12  C24 UNL     1      11.359  12.049  35.056  0.00  0.00    +0.056 A 
ATOM     13  C25 UNL     1      11.877  10.737  35.099  0.00  0.00    +0.052 A 
ATOM     14  S1  UNL     1      12.539   9.774  33.884  0.00  0.00    -0.071 S 
ATOM     15  H11 UNL     1      13.008  12.201  32.777  0.00  0.00    +0.154 HD
ENDROOT
BRANCH  11  16
ATOM     16  C11 UNL     1      11.457  12.765  31.395  0.00  0.00    +0.052 A 
ATOM     17  C12 UNL     1      10.587  11.827  30.805  0.00  0.00    +0.037 A 
ATOM     18  C13 UNL     1      10.043  12.045  29.526  0.00  0.00    +0.039 A 
ATOM     19  C21 UNL     1      10.400  13.209  28.827  0.00  0.00    +0.014 A 
ATOM     20  C22 UNL     1      11.271  14.138  29.397  0.00  0.00    +0.022 A 
ATOM     21  C23 UNL     1      11.803  13.926  30.671  0.00  0.00    +0.062 A 
ATOM     22 CL1  UNL     1      12.880  15.147  31.339  0.00  0.00    -0.082 Cl
BRANCH  18  23
ATOM     23  C14 UNL     1       9.132  11.042  28.922  0.00  0.00    +0.248 C 
ATOM     24  O1  UNL     1       7.949  11.371  28.631  0.00  0.00    -0.270 OA
ATOM     25  N5  UNL     1       9.591   9.713  28.622  0.00  0.00    -0.279 N 
ATOM     26  H13 UNL     1      10.605   9.581  28.404  0.00  0.00    +0.155 HD
BRANCH  25  27
ATOM     27  C15 UNL     1       8.705   8.607  28.389  0.00  0.00    +0.069 A 
ATOM     28  C16 UNL     1       8.562   8.105  27.086  0.00  0.00    +0.026 A 
ATOM     29  C17 UNL     1       7.717   7.020  26.835  0.00  0.00    +0.002 A 
ATOM     30  C18 UNL     1       7.021   6.417  27.884  0.00  0.00    +0.003 A 
ATOM     31  C19 UNL     1       7.175   6.892  29.189  0.00  0.00    +0.040 A 
ATOM     32  C20 UNL     1       8.018   7.978  29.448  0.00  0.00    +0.144 A 
ATOM     33  F1  UNL     1       8.198   8.379  30.732  0.00  0.00    -0.204 F 
ENDBRANCH  25  27
ENDBRANCH  18  23
ENDBRANCH  11  16
BRANCH   1  35
ATOM     34  C1  UNL     1      14.784   7.412  33.866  0.00  0.00    +0.014 C 
ATOM     35  C2  UNL     1      13.413   7.159  34.499  0.00  0.00    +0.039 C 
ATOM     36  C3  UNL     1      13.526   6.212  35.696  0.00  0.00    +0.014 C 
ENDBRANCH   1  35
TORSDOF 4
ENDMDL
MODEL 4
REMARK VINA RESULT:    -7.621      4.501      8.211
REMARK INTER + INTRA:          -9.828
REMARK INTER:                  -9.138
REMARK INTRA:                  -0.690
REMARK UNBOUND:                -0.425
REMARK  Name = /home/qwerty/github/datacon2025hack/step_04_hit_selection/docking/ligands/lig_809.pdb
REMARK  6 active torsions:
REMARK  status: ('A' for Active; 'I' for Inactive)
REMARK    1  A    between atoms: C1_1  and  C2_2
REMARK    2  A    between atoms: C2_2  and  C3_3
REMARK    3  A    between atoms: C2_2  and  C4_4
REMARK    4  A    between atoms: N4_14  and  C11_15
REMARK    5  A    between atoms: C13_17  and  C14_18
REMARK    6  A    between atoms: N5_20  and  C15_21
REMARK                            x       y       z     vdW  Elec       q    Type
REMARK                         _______ _______ _______ _____ _____    ______ ____
ROOT
ATOM      1  C4  UNL     1       9.908   8.305  21.136  0.00  0.00    +0.082 A 
ATOM      2  N1  UNL     1       9.184   8.071  22.256  0.00  0.00    -0.244 NA
ATOM      3  C5  UNL     1       9.571   6.920  22.865  0.00  0.00    +0.079 A 
ATOM      4  C6  UNL     1       9.022   6.462  24.060  0.00  0.00    +0.031 A 
ATOM      5  C7  UNL     1       9.528   5.289  24.636  0.00  0.00    +0.030 A 
ATOM      6  C8  UNL     1      10.566   4.574  24.010  0.00  0.00    +0.077 A 
ATOM      7  N2  UNL     1      11.064   3.462  24.610  0.00  0.00    -0.235 NA
ATOM      8  C9  UNL     1      12.072   2.753  24.045  0.00  0.00    +0.223 A 
ATOM      9  N3  UNL     1      12.585   3.133  22.849  0.00  0.00    -0.220 NA
ATOM     10  C10 UNL     1      12.131   4.233  22.189  0.00  0.00    +0.135 A 
ATOM     11  N4  UNL     1      12.658   4.517  20.886  0.00  0.00    -0.298 N 
ATOM     12  C24 UNL     1      11.103   5.013  22.771  0.00  0.00    +0.056 A 
ATOM     13  C25 UNL     1      10.591   6.213  22.233  0.00  0.00    +0.052 A 
ATOM     14  S1  UNL     1      11.045   7.088  20.865  0.00  0.00    -0.071 S 
ATOM     15  H11 UNL     1      11.970   4.656  20.114  0.00  0.00    +0.154 HD
ENDROOT
BRANCH  11  16
ATOM     16  C11 UNL     1      14.060   4.416  20.572  0.00  0.00    +0.052 A 
ATOM     17  C12 UNL     1      14.865   5.571  20.532  0.00  0.00    +0.037 A 
ATOM     18  C13 UNL     1      16.232   5.493  20.212  0.00  0.00    +0.039 A 
ATOM     19  C21 UNL     1      16.786   4.239  19.906  0.00  0.00    +0.014 A 
ATOM     20  C22 UNL     1      15.994   3.091  19.931  0.00  0.00    +0.022 A 
ATOM     21  C23 UNL     1      14.638   3.169  20.258  0.00  0.00    +0.062 A 
ATOM     22 CL1  UNL     1      13.701   1.679  20.289  0.00  0.00    -0.082 Cl
BRANCH  18  23
ATOM     23  C14 UNL     1      17.062   6.722  20.172  0.00  0.00    +0.248 C 
ATOM     24  O1  UNL     1      17.886   6.948  21.099  0.00  0.00    -0.270 OA
ATOM     25  N5  UNL     1      16.969   7.639  19.068  0.00  0.00    -0.279 N 
ATOM     26  H13 UNL     1      16.693   7.258  18.134  0.00  0.00    +0.155 HD
BRANCH  25  27
ATOM     27  C15 UNL     1      17.446   8.993  19.126  0.00  0.00    +0.069 A 
ATOM     28  C16 UNL     1      16.526  10.038  19.307  0.00  0.00    +0.026 A 
ATOM     29  C17 UNL     1      16.965  11.363  19.381  0.00  0.00    +0.002 A 
ATOM     30  C18 UNL     1      18.328  11.654  19.293  0.00  0.00    +0.003 A 
ATOM     31  C19 UNL     1      19.254  10.621  19.139  0.00  0.00    +0.040 A 
ATOM     32  C20 UNL     1      18.822   9.292  19.062  0.00  0.00    +0.144 A 
ATOM     33  F1  UNL     1      19.748   8.304  18.975  0.00  0.00    -0.204 F 
ENDBRANCH  25  27
ENDBRANCH  18  23
ENDBRANCH  11  16
BRANCH   1  35
ATOM     34  C1  UNL     1       8.907  10.577  20.971  0.00  0.00    +0.014 C 
ATOM     35  C2  UNL     1       9.696   9.490  20.237  0.00  0.00    +0.039 C 
ATOM     36  C3  UNL     1      11.037  10.029  19.732  0.00  0.00    +0.014 C 
ENDBRANCH   1  35
TORSDOF 4
ENDMDL
MODEL 5
REMARK VINA RESULT:    -7.613      4.348      6.223
REMARK INTER + INTRA:          -9.818
REMARK INTER:                  -8.842
REMARK INTRA:                  -0.976
REMARK UNBOUND:                -0.425
REMARK  Name = /home/qwerty/github/datacon2025hack/step_04_hit_selection/docking/ligands/lig_809.pdb
REMARK  6 active torsions:
REMARK  status: ('A' for Active; 'I' for Inactive)
REMARK    1  A    between atoms: C1_1  and  C2_2
REMARK    2  A    between atoms: C2_2  and  C3_3
REMARK    3  A    between atoms: C2_2  and  C4_4
REMARK    4  A    between atoms: N4_14  and  C11_15
REMARK    5  A    between atoms: C13_17  and  C14_18
REMARK    6  A    between atoms: N5_20  and  C15_21
REMARK                            x       y       z     vdW  Elec       q    Type
REMARK                         _______ _______ _______ _____ _____    ______ ____
ROOT
ATOM      1  C4  UNL     1      13.949   3.393  20.653  0.00  0.00    +0.082 A 
ATOM      2  N1  UNL     1      13.742   2.076  20.893  0.00  0.00    -0.244 NA
ATOM      3  C5  UNL     1      12.693   1.886  21.735  0.00  0.00    +0.079 A 
ATOM      4  C6  UNL     1      12.234   0.627  22.117  0.00  0.00    +0.031 A 
ATOM      5  C7  UNL     1      11.111   0.537  22.949  0.00  0.00    +0.030 A 
ATOM      6  C8  UNL     1      10.462   1.699  23.406  0.00  0.00    +0.077 A 
ATOM      7  N2  UNL     1       9.352   1.581  24.179  0.00  0.00    -0.235 NA
ATOM      8  C9  UNL     1       8.692   2.676  24.630  0.00  0.00    +0.223 A 
ATOM      9  N3  UNL     1       9.150   3.917  24.333  0.00  0.00    -0.220 NA
ATOM     10  C10 UNL     1      10.259   4.110  23.568  0.00  0.00    +0.135 A 
ATOM     11  N4  UNL     1      10.735   5.449  23.375  0.00  0.00    -0.298 N 
ATOM     12  C24 UNL     1      10.949   2.986  23.055  0.00  0.00    +0.056 A 
ATOM     13  C25 UNL     1      12.064   3.042  22.193  0.00  0.00    +0.052 A 
ATOM     14  S1  UNL     1      12.843   4.358  21.483  0.00  0.00    -0.071 S 
ATOM     15  H11 UNL     1      11.737   5.635  23.600  0.00  0.00    +0.154 HD
ENDROOT
BRANCH  11  16
ATOM     16  C11 UNL     1       9.858   6.555  23.089  0.00  0.00    +0.052 A 
ATOM     17  C12 UNL     1       9.476   7.443  24.113  0.00  0.00    +0.037 A 
ATOM     18  C13 UNL     1       8.608   8.520  23.854  0.00  0.00    +0.039 A 
ATOM     19  C21 UNL     1       8.103   8.686  22.555  0.00  0.00    +0.014 A 
ATOM     20  C22 UNL     1       8.466   7.805  21.536  0.00  0.00    +0.022 A 
ATOM     21  C23 UNL     1       9.336   6.741  21.793  0.00  0.00    +0.062 A 
ATOM     22 CL1  UNL     1       9.768   5.678  20.458  0.00  0.00    -0.082 Cl
BRANCH  18  23
ATOM     23  C14 UNL     1       8.214   9.442  24.949  0.00  0.00    +0.248 C 
ATOM     24  O1  UNL     1       7.369  10.350  24.723  0.00  0.00    -0.270 OA
ATOM     25  N5  UNL     1       8.751   9.287  26.273  0.00  0.00    -0.279 N 
ATOM     26  H13 UNL     1       9.034   8.328  26.580  0.00  0.00    +0.155 HD
BRANCH  25  27
ATOM     27  C15 UNL     1       8.712  10.325  27.266  0.00  0.00    +0.069 A 
ATOM     28  C16 UNL     1       9.606  11.403  27.167  0.00  0.00    +0.026 A 
ATOM     29  C17 UNL     1       9.579  12.433  28.112  0.00  0.00    +0.002 A 
ATOM     30  C18 UNL     1       8.648  12.405  29.152  0.00  0.00    +0.003 A 
ATOM     31  C19 UNL     1       7.737  11.350  29.245  0.00  0.00    +0.040 A 
ATOM     32  C20 UNL     1       7.759  10.315  28.304  0.00  0.00    +0.144 A 
ATOM     33  F1  UNL     1       6.822   9.336  28.382  0.00  0.00    -0.204 F 
ENDBRANCH  25  27
ENDBRANCH  18  23
ENDBRANCH  11  16
BRANCH   1  35
ATOM     34  C1  UNL     1      15.356   5.377  20.126  0.00  0.00    +0.014 C 
ATOM     35  C2  UNL     1      15.051   3.918  19.777  0.00  0.00    +0.039 C 
ATOM     36  C3  UNL     1      16.304   3.048  19.909  0.00  0.00    +0.014 C 
ENDBRANCH   1  35
TORSDOF 4
ENDMDL
MODEL 6
REMARK VINA RESULT:    -7.589     15.358     16.823
REMARK INTER + INTRA:          -9.789
REMARK INTER:                  -9.252
REMARK INTRA:                  -0.537
REMARK UNBOUND:                -0.425
REMARK  Name = /home/qwerty/github/datacon2025hack/step_04_hit_selection/docking/ligands/lig_809.pdb
REMARK  6 active torsions:
REMARK  status: ('A' for Active; 'I' for Inactive)
REMARK    1  A    between atoms: C1_1  and  C2_2
REMARK    2  A    between atoms: C2_2  and  C3_3
REMARK    3  A    between atoms: C2_2  and  C4_4
REMARK    4  A    between atoms: N4_14  and  C11_15
REMARK    5  A    between atoms: C13_17  and  C14_18
REMARK    6  A    between atoms: N5_20  and  C15_21
REMARK                            x       y       z     vdW  Elec       q    Type
REMARK                         _______ _______ _______ _____ _____    ______ ____
ROOT
ATOM      1  C4  UNL     1      22.929   8.921  33.128  0.00  0.00    +0.082 A 
ATOM      2  N1  UNL     1      23.119   8.017  34.119  0.00  0.00    -0.244 NA
ATOM      3  C5  UNL     1      22.214   8.182  35.118  0.00  0.00    +0.079 A 
ATOM      4  C6  UNL     1      22.153   7.360  36.241  0.00  0.00    +0.031 A 
ATOM      5  C7  UNL     1      21.147   7.580  37.191  0.00  0.00    +0.030 A 
ATOM      6  C8  UNL     1      20.220   8.625  37.024  0.00  0.00    +0.077 A 
ATOM      7  N2  UNL     1      19.232   8.791  37.941  0.00  0.00    -0.235 NA
ATOM      8  C9  UNL     1      18.313   9.778  37.810  0.00  0.00    +0.223 A 
ATOM      9  N3  UNL     1      18.381  10.638  36.764  0.00  0.00    -0.220 NA
ATOM     10  C10 UNL     1      19.347  10.535  35.811  0.00  0.00    +0.135 A 
ATOM     11  N4  UNL     1      19.411  11.537  34.787  0.00  0.00    -0.298 N 
ATOM     12  C24 UNL     1      20.301   9.493  35.903  0.00  0.00    +0.056 A 
ATOM     13  C25 UNL     1      21.307   9.226  34.950  0.00  0.00    +0.052 A 
ATOM     14  S1  UNL     1      21.640   9.954  33.467  0.00  0.00    -0.071 S 
ATOM     15  H11 UNL     1      20.329  12.012  34.643  0.00  0.00    +0.154 HD
ENDROOT
BRANCH  11  16
ATOM     16  C11 UNL     1      18.243  12.041  34.115  0.00  0.00    +0.052 A 
ATOM     17  C12 UNL     1      16.959  11.603  34.494  0.00  0.00    +0.037 A 
ATOM     18  C13 UNL     1      15.808  12.074  33.837  0.00  0.00    +0.039 A 
ATOM     19  C21 UNL     1      15.956  12.976  32.771  0.00  0.00    +0.014 A 
ATOM     20  C22 UNL     1      17.224  13.405  32.379  0.00  0.00    +0.022 A 
ATOM     21  C23 UNL     1      18.366  12.945  33.039  0.00  0.00    +0.062 A 
ATOM     22 CL1  UNL     1      19.934  13.542  32.506  0.00  0.00    -0.082 Cl
BRANCH  18  23
ATOM     23  C14 UNL     1      14.464  11.597  34.250  0.00  0.00    +0.248 C 
ATOM     24  O1  UNL     1      13.465  11.848  33.523  0.00  0.00    -0.270 OA
ATOM     25  N5  UNL     1      14.293  10.817  35.445  0.00  0.00    -0.279 N 
ATOM     26  H13 UNL     1      15.093  10.223  35.763  0.00  0.00    +0.155 HD
BRANCH  25  27
ATOM     27  C15 UNL     1      13.024  10.638  36.094  0.00  0.00    +0.069 A 
ATOM     28  C16 UNL     1      12.354   9.411  35.965  0.00  0.00    +0.026 A 
ATOM     29  C17 UNL     1      11.125   9.205  36.598  0.00  0.00    +0.002 A 
ATOM     30  C18 UNL     1      10.563  10.216  37.379  0.00  0.00    +0.003 A 
ATOM     31  C19 UNL     1      11.233  11.432  37.536  0.00  0.00    +0.040 A 
ATOM     32  C20 UNL     1      12.463  11.645  36.905  0.00  0.00    +0.144 A 
ATOM     33  F1  UNL     1      13.121  12.811  37.125  0.00  0.00    -0.204 F 
ENDBRANCH  25  27
ENDBRANCH  18  23
ENDBRANCH  11  16
BRANCH   1  35
ATOM     34  C1  UNL     1      23.197  10.007  30.905  0.00  0.00    +0.014 C 
ATOM     35  C2  UNL     1      23.788   9.004  31.898  0.00  0.00    +0.039 C 
ATOM     36  C3  UNL     1      25.225   9.379  32.270  0.00  0.00    +0.014 C 
ENDBRANCH   1  35
TORSDOF 4
ENDMDL
MODEL 7
REMARK VINA RESULT:    -7.528      7.105     10.246
REMARK INTER + INTRA:          -9.713
REMARK INTER:                  -8.591
REMARK INTRA:                  -1.121
REMARK UNBOUND:                -0.425
REMARK  Name = /home/qwerty/github/datacon2025hack/step_04_hit_selection/docking/ligands/lig_809.pdb
REMARK  6 active torsions:
REMARK  status: ('A' for Active; 'I' for Inactive)
REMARK    1  A    between atoms: C1_1  and  C2_2
REMARK    2  A    between atoms: C2_2  and  C3_3
REMARK    3  A    between atoms: C2_2  and  C4_4
REMARK    4  A    between atoms: N4_14  and  C11_15
REMARK    5  A    between atoms: C13_17  and  C14_18
REMARK    6  A    between atoms: N5_20  and  C15_21
REMARK                            x       y       z     vdW  Elec       q    Type
REMARK                         _______ _______ _______ _____ _____    ______ ____
ROOT
ATOM      1  C4  UNL     1      12.986   1.080  27.130  0.00  0.00    +0.082 A 
ATOM      2  N1  UNL     1      12.789  -0.256  27.238  0.00  0.00    -0.244 NA
ATOM      3  C5  UNL     1      13.623  -0.947  26.417  0.00  0.00    +0.079 A 
ATOM      4  C6  UNL     1      13.662  -2.338  26.359  0.00  0.00    +0.031 A 
ATOM      5  C7  UNL     1      14.596  -2.957  25.518  0.00  0.00    +0.030 A 
ATOM      6  C8  UNL     1      15.472  -2.187  24.730  0.00  0.00    +0.077 A 
ATOM      7  N2  UNL     1      16.393  -2.813  23.954  0.00  0.00    -0.235 NA
ATOM      8  C9  UNL     1      17.263  -2.107  23.190  0.00  0.00    +0.223 A 
ATOM      9  N3  UNL     1      17.208  -0.753  23.172  0.00  0.00    -0.220 NA
ATOM     10  C10 UNL     1      16.308  -0.059  23.920  0.00  0.00    +0.135 A 
ATOM     11  N4  UNL     1      16.249   1.367  23.776  0.00  0.00    -0.298 N 
ATOM     12  C24 UNL     1      15.410  -0.769  24.753  0.00  0.00    +0.056 A 
ATOM     13  C25 UNL     1      14.479  -0.176  25.633  0.00  0.00    +0.052 A 
ATOM     14  S1  UNL     1      14.194   1.442  26.009  0.00  0.00    -0.071 S 
ATOM     15  H11 UNL     1      15.316   1.786  23.568  0.00  0.00    +0.154 HD
ENDROOT
BRANCH  11  16
ATOM     16  C11 UNL     1      17.426   2.193  23.705  0.00  0.00    +0.052 A 
ATOM     17  C12 UNL     1      18.353   2.204  24.766  0.00  0.00    +0.037 A 
ATOM     18  C13 UNL     1      19.499   3.016  24.719  0.00  0.00    +0.039 A 
ATOM     19  C21 UNL     1      19.699   3.844  23.603  0.00  0.00    +0.014 A 
ATOM     20  C22 UNL     1      18.781   3.851  22.553  0.00  0.00    +0.022 A 
ATOM     21  C23 UNL     1      17.647   3.035  22.596  0.00  0.00    +0.062 A 
ATOM     22 CL1  UNL     1      16.538   3.078  21.229  0.00  0.00    -0.082 Cl
BRANCH  18  23
ATOM     23  C14 UNL     1      20.462   3.015  25.849  0.00  0.00    +0.248 C 
ATOM     24  O1  UNL     1      21.674   3.292  25.635  0.00  0.00    -0.270 OA
ATOM     25  N5  UNL     1      20.024   2.746  27.192  0.00  0.00    -0.279 N 
ATOM     26  H13 UNL     1      19.040   2.991  27.446  0.00  0.00    +0.155 HD
BRANCH  25  27
ATOM     27  C15 UNL     1      20.918   2.371  28.252  0.00  0.00    +0.069 A 
ATOM     28  C16 UNL     1      21.095   3.240  29.340  0.00  0.00    +0.026 A 
ATOM     29  C17 UNL     1      21.948   2.893  30.391  0.00  0.00    +0.002 A 
ATOM     30  C18 UNL     1      22.618   1.668  30.374  0.00  0.00    +0.003 A 
ATOM     31  C19 UNL     1      22.429   0.784  29.309  0.00  0.00    +0.040 A 
ATOM     32  C20 UNL     1      21.578   1.126  28.253  0.00  0.00    +0.144 A 
ATOM     33  F1  UNL     1      21.365   0.223  27.262  0.00  0.00    -0.204 F 
ENDBRANCH  25  27
ENDBRANCH  18  23
ENDBRANCH  11  16
BRANCH   1  35
ATOM     34  C1  UNL     1      10.803   1.565  28.221  0.00  0.00    +0.014 C 
ATOM     35  C2  UNL     1      12.198   2.104  27.896  0.00  0.00    +0.039 C 
ATOM     36  C3  UNL     1      12.942   2.511  29.171  0.00  0.00    +0.014 C 
ENDBRANCH   1  35
TORSDOF 4
ENDMDL
MODEL 8
REMARK VINA RESULT:    -7.504      4.116      9.168
REMARK INTER + INTRA:          -9.683
REMARK INTER:                  -8.780
REMARK INTRA:                  -0.904
REMARK UNBOUND:                -0.425
REMARK  Name = /home/qwerty/github/datacon2025hack/step_04_hit_selection/docking/ligands/lig_809.pdb
REMARK  6 active torsions:
REMARK  status: ('A' for Active; 'I' for Inactive)
REMARK    1  A    between atoms: C1_1  and  C2_2
REMARK    2  A    between atoms: C2_2  and  C3_3
REMARK    3  A    between atoms: C2_2  and  C4_4
REMARK    4  A    between atoms: N4_14  and  C11_15
REMARK    5  A    between atoms: C13_17  and  C14_18
REMARK    6  A    between atoms: N5_20  and  C15_21
REMARK                            x       y       z     vdW  Elec       q    Type
REMARK                         _______ _______ _______ _____ _____    ______ ____
ROOT
ATOM      1  C4  UNL     1       7.960   8.553  26.964  0.00  0.00    +0.082 A 
ATOM      2  N1  UNL     1       7.506   9.599  26.235  0.00  0.00    -0.244 NA
ATOM      3  C5  UNL     1       7.871   9.490  24.931  0.00  0.00    +0.079 A 
ATOM      4  C6  UNL     1       7.501  10.407  23.950  0.00  0.00    +0.031 A 
ATOM      5  C7  UNL     1       7.885  10.176  22.623  0.00  0.00    +0.030 A 
ATOM      6  C8  UNL     1       8.647   9.043  22.284  0.00  0.00    +0.077 A 
ATOM      7  N2  UNL     1       8.972   8.824  20.984  0.00  0.00    -0.235 NA
ATOM      8  C9  UNL     1       9.695   7.738  20.616  0.00  0.00    +0.223 A 
ATOM      9  N3  UNL     1      10.129   6.859  21.553  0.00  0.00    -0.220 NA
ATOM     10  C10 UNL     1       9.846   7.019  22.874  0.00  0.00    +0.135 A 
ATOM     11  N4  UNL     1      10.419   6.101  23.815  0.00  0.00    -0.298 N 
ATOM     12  C24 UNL     1       9.064   8.125  23.285  0.00  0.00    +0.056 A 
ATOM     13  C25 UNL     1       8.636   8.371  24.607  0.00  0.00    +0.052 A 
ATOM     14  S1  UNL     1       8.835   7.466  26.015  0.00  0.00    -0.071 S 
ATOM     15  H11 UNL     1      10.948   6.509  24.617  0.00  0.00    +0.154 HD
ENDROOT
BRANCH  11  16
ATOM     16  C11 UNL     1      10.466   4.680  23.588  0.00  0.00    +0.052 A 
ATOM     17  C12 UNL     1      11.703   4.021  23.451  0.00  0.00    +0.037 A 
ATOM     18  C13 UNL     1      11.767   2.636  23.214  0.00  0.00    +0.039 A 
ATOM     19  C21 UNL     1      10.569   1.914  23.090  0.00  0.00    +0.014 A 
ATOM     20  C22 UNL     1       9.338   2.559  23.211  0.00  0.00    +0.022 A 
ATOM     21  C23 UNL     1       9.277   3.933  23.457  0.00  0.00    +0.062 A 
ATOM     22 CL1  UNL     1       7.691   4.681  23.618  0.00  0.00    -0.082 Cl
BRANCH  18  23
ATOM     23  C14 UNL     1      13.081   1.962  23.069  0.00  0.00    +0.248 C 
ATOM     24  O1  UNL     1      14.117   2.512  23.533  0.00  0.00    -0.270 OA
ATOM     25  N5  UNL     1      13.183   0.672  22.444  0.00  0.00    -0.279 N 
ATOM     26  H13 UNL     1      12.359   0.031  22.501  0.00  0.00    +0.155 HD
BRANCH  25  27
ATOM     27  C15 UNL     1      14.419   0.134  21.945  0.00  0.00    +0.069 A 
ATOM     28  C16 UNL     1      14.961   0.648  20.757  0.00  0.00    +0.026 A 
ATOM     29  C17 UNL     1      16.169   0.152  20.257  0.00  0.00    +0.002 A 
ATOM     30  C18 UNL     1      16.854  -0.849  20.949  0.00  0.00    +0.003 A 
ATOM     31  C19 UNL     1      16.336  -1.350  22.145  0.00  0.00    +0.040 A 
ATOM     32  C20 UNL     1      15.127  -0.859  22.650  0.00  0.00    +0.144 A 
ATOM     33  F1  UNL     1      14.680  -1.319  23.846  0.00  0.00    -0.204 F 
ENDBRANCH  25  27
ENDBRANCH  18  23
ENDBRANCH  11  16
BRANCH   1  35
ATOM     34  C1  UNL     1       9.059   8.121  29.155  0.00  0.00    +0.014 C 
ATOM     35  C2  UNL     1       7.734   8.404  28.442  0.00  0.00    +0.039 C 
ATOM     36  C3  UNL     1       7.060   9.655  29.011  0.00  0.00    +0.014 C 
ENDBRANCH   1  35
TORSDOF 4
ENDMDL
MODEL 9
REMARK VINA RESULT:    -7.409      5.735     10.267
REMARK INTER + INTRA:          -9.566
REMARK INTER:                  -9.055
REMARK INTRA:                  -0.511
REMARK UNBOUND:                -0.425
REMARK  Name = /home/qwerty/github/datacon2025hack/step_04_hit_selection/docking/ligands/lig_809.pdb
REMARK  6 active torsions:
REMARK  status: ('A' for Active; 'I' for Inactive)
REMARK    1  A    between atoms: C1_1  and  C2_2
REMARK    2  A    between atoms: C2_2  and  C3_3
REMARK    3  A    between atoms: C2_2  and  C4_4
REMARK    4  A    between atoms: N4_14  and  C11_15
REMARK    5  A    between atoms: C13_17  and  C14_18
REMARK    6  A    between atoms: N5_20  and  C15_21
REMARK                            x       y       z     vdW  Elec       q    Type
REMARK                         _______ _______ _______ _____ _____    ______ ____
ROOT
ATOM      1  C4  UNL     1       8.300  12.026  28.449  0.00  0.00    +0.082 A 
ATOM      2  N1  UNL     1       8.031  11.368  29.602  0.00  0.00    -0.244 NA
ATOM      3  C5  UNL     1       7.835  10.043  29.381  0.00  0.00    +0.079 A 
ATOM      4  C6  UNL     1       7.584   9.124  30.398  0.00  0.00    +0.031 A 
ATOM      5  C7  UNL     1       7.450   7.768  30.072  0.00  0.00    +0.030 A 
ATOM      6  C8  UNL     1       7.551   7.339  28.735  0.00  0.00    +0.077 A 
ATOM      7  N2  UNL     1       7.456   6.015  28.453  0.00  0.00    -0.235 NA
ATOM      8  C9  UNL     1       7.560   5.560  27.180  0.00  0.00    +0.223 A 
ATOM      9  N3  UNL     1       7.738   6.433  26.158  0.00  0.00    -0.220 NA
ATOM     10  C10 UNL     1       7.837   7.774  26.366  0.00  0.00    +0.135 A 
ATOM     11  N4  UNL     1       7.930   8.641  25.228  0.00  0.00    -0.298 N 
ATOM     12  C24 UNL     1       7.766   8.274  27.689  0.00  0.00    +0.056 A 
ATOM     13  C25 UNL     1       7.926   9.628  28.054  0.00  0.00    +0.052 A 
ATOM     14  S1  UNL     1       8.297  10.984  27.123  0.00  0.00    -0.071 S 
ATOM     15  H11 UNL     1       7.246   9.427  25.171  0.00  0.00    +0.154 HD
ENDROOT
BRANCH  11  16
ATOM     16  C11 UNL     1       8.770   8.353  24.095  0.00  0.00    +0.052 A 
ATOM     17  C12 UNL     1       9.612   7.223  24.102  0.00  0.00    +0.037 A 
ATOM     18  C13 UNL     1      10.450   6.936  23.009  0.00  0.00    +0.039 A 
ATOM     19  C21 UNL     1      10.457   7.811  21.911  0.00  0.00    +0.014 A 
ATOM     20  C22 UNL     1       9.637   8.939  21.900  0.00  0.00    +0.022 A 
ATOM     21  C23 UNL     1       8.797   9.218  22.981  0.00  0.00    +0.062 A 
ATOM     22 CL1  UNL     1       7.774  10.648  22.894  0.00  0.00    -0.082 Cl
BRANCH  18  23
ATOM     23  C14 UNL     1      11.332   5.743  23.038  0.00  0.00    +0.248 C 
ATOM     24  O1  UNL     1      12.528   5.862  23.418  0.00  0.00    -0.270 OA
ATOM     25  N5  UNL     1      10.829   4.445  22.679  0.00  0.00    -0.279 N 
ATOM     26  H13 UNL     1       9.814   4.251  22.835  0.00  0.00    +0.155 HD
BRANCH  25  27
ATOM     27  C15 UNL     1      11.678   3.339  22.333  0.00  0.00    +0.069 A 
ATOM     28  C16 UNL     1      11.814   2.269  23.232  0.00  0.00    +0.026 A 
ATOM     29  C17 UNL     1      12.623   1.175  22.913  0.00  0.00    +0.002 A 
ATOM     30  C18 UNL     1      13.289   1.131  21.687  0.00  0.00    +0.003 A 
ATOM     31  C19 UNL     1      13.141   2.177  20.774  0.00  0.00    +0.040 A 
ATOM     32  C20 UNL     1      12.334   3.276  21.087  0.00  0.00    +0.144 A 
ATOM     33  F1  UNL     1      12.158   4.249  20.156  0.00  0.00    -0.204 F 
ENDBRANCH  25  27
ENDBRANCH  18  23
ENDBRANCH  11  16
BRANCH   1  35
ATOM     34  C1  UNL     1       9.991  13.788  27.971  0.00  0.00    +0.014 C 
ATOM     35  C2  UNL     1       8.540  13.507  28.370  0.00  0.00    +0.039 C 
ATOM     36  C3  UNL     1       7.564  14.159  27.387  0.00  0.00    +0.014 C 
ENDBRANCH   1  35
TORSDOF 4
ENDMDL
