MODEL 1
REMARK VINA RESULT:    -7.645      0.000      0.000
REMARK INTER + INTRA:          -9.081
REMARK INTER:                  -8.539
REMARK INTRA:                  -0.542
REMARK UNBOUND:                -0.542
REMARK  Name = /home/qwerty/github/datacon2025hack/step_04_hit_selection/docking/ligands/lig_36.pdb
REMARK  3 active torsions:
REMARK  status: ('A' for Active; 'I' for Inactive)
REMARK    1  A    between atoms: C1_1  and  C2_2
REMARK    2  A    between atoms: C5_7  and  N2_8
REMARK    3  A    between atoms: C6_9  and  C7_11
REMARK                            x       y       z     vdW  Elec       q    Type
REMARK                         _______ _______ _______ _____ _____    ______ ____
ROOT
ATOM      1  N2  UNL     1      21.269  11.510  20.617  0.00  0.00    -0.304 N 
ATOM      2  C6  UNL     1      21.724  12.858  20.821  0.00  0.00    +0.245 C 
ATOM      3  O2  UNL     1      21.548  13.719  19.917  0.00  0.00    -0.270 OA
ATOM      4  H9  UNL     1      21.196  10.870  21.440  0.00  0.00    +0.150 HD
ENDROOT
BRANCH   2   5
ATOM      5  C7  UNL     1      22.386  13.255  22.085  0.00  0.00    +0.037 A 
ATOM      6  C8  UNL     1      23.730  13.717  22.066  0.00  0.00    +0.015 A 
ATOM      7  C9  UNL     1      24.384  14.093  23.253  0.00  0.00    +0.027 A 
ATOM      8  C10 UNL     1      23.677  13.990  24.448  0.00  0.00    +0.047 A 
ATOM      9  N3  UNL     1      24.114  14.302  25.684  0.00  0.00    -0.358 N 
ATOM     10  C11 UNL     1      23.072  14.043  26.505  0.00  0.00    +0.020 A 
ATOM     11  C12 UNL     1      21.994  13.536  25.799  0.00  0.00    -0.019 A 
ATOM     12  C13 UNL     1      22.383  13.528  24.478  0.00  0.00    +0.004 A 
ATOM     13  C14 UNL     1      21.705  13.152  23.321  0.00  0.00    +0.023 A 
ATOM     14  C15 UNL     1      20.662  13.215  26.405  0.00  0.00    +0.037 C 
ATOM     15  C16 UNL     1      20.795  13.051  27.932  0.00  0.00    +0.005 C 
ATOM     16  C17 UNL     1      21.649  14.175  28.556  0.00  0.00    +0.006 C 
ATOM     17  C18 UNL     1      23.087  14.178  27.997  0.00  0.00    +0.053 C 
ATOM     18  H12 UNL     1      25.056  14.666  25.951  0.00  0.00    +0.166 HD
ENDBRANCH   2   5
BRANCH   1  25
ATOM     19  C1  UNL     1      20.008   5.840  20.304  0.00  0.00    +0.109 C 
ATOM     20  C2  UNL     1      19.437   6.908  19.427  0.00  0.00    +0.217 C 
ATOM     21  O1  UNL     1      18.621   6.584  18.521  0.00  0.00    -0.276 OA
ATOM     22  N1  UNL     1      19.862   8.280  19.556  0.00  0.00    -0.271 N 
ATOM     23  C3  UNL     1      21.284   8.563  19.788  0.00  0.00    +0.116 C 
ATOM     24  C4  UNL     1      21.725   9.760  18.946  0.00  0.00    +0.046 C 
ATOM     25  C5  UNL     1      20.894  11.004  19.292  0.00  0.00    +0.107 C 
ATOM     26  C19 UNL     1      19.410  10.703  19.258  0.00  0.00    -0.006 A 
ATOM     27  C20 UNL     1      18.502  11.769  19.142  0.00  0.00    +0.007 A 
ATOM     28  C21 UNL     1      17.129  11.540  19.207  0.00  0.00    +0.000 A 
ATOM     29  C22 UNL     1      16.646  10.249  19.413  0.00  0.00    +0.002 A 
ATOM     30  C23 UNL     1      17.534   9.179  19.540  0.00  0.00    +0.024 A 
ATOM     31  C24 UNL     1      18.926   9.384  19.445  0.00  0.00    +0.041 A 
ENDBRANCH   1  25
TORSDOF 2
ENDMDL
MODEL 2
REMARK VINA RESULT:    -7.586     17.942     20.279
REMARK INTER + INTRA:          -9.016
REMARK INTER:                  -8.494
REMARK INTRA:                  -0.521
REMARK UNBOUND:                -0.542
REMARK  Name = /home/qwerty/github/datacon2025hack/step_04_hit_selection/docking/ligands/lig_36.pdb
REMARK  3 active torsions:
REMARK  status: ('A' for Active; 'I' for Inactive)
REMARK    1  A    between atoms: C1_1  and  C2_2
REMARK    2  A    between atoms: C5_7  and  N2_8
REMARK    3  A    between atoms: C6_9  and  C7_11
REMARK                            x       y       z     vdW  Elec       q    Type
REMARK                         _______ _______ _______ _____ _____    ______ ____
ROOT
ATOM      1  N2  UNL     1       7.747  -0.281  33.077  0.00  0.00    -0.304 N 
ATOM      2  C6  UNL     1       7.787  -0.627  34.471  0.00  0.00    +0.245 C 
ATOM      3  O2  UNL     1       7.554  -1.815  34.826  0.00  0.00    -0.270 OA
ATOM      4  H9  UNL     1       8.168   0.624  32.768  0.00  0.00    +0.150 HD
ENDROOT
BRANCH   2   5
ATOM      5  C7  UNL     1       8.109   0.389  35.499  0.00  0.00    +0.037 A 
ATOM      6  C8  UNL     1       7.212   0.617  36.578  0.00  0.00    +0.015 A 
ATOM      7  C9  UNL     1       7.492   1.580  37.562  0.00  0.00    +0.027 A 
ATOM      8  C10 UNL     1       8.670   2.311  37.443  0.00  0.00    +0.047 A 
ATOM      9  N3  UNL     1       9.125   3.269  38.276  0.00  0.00    -0.358 N 
ATOM     10  C11 UNL     1      10.304   3.669  37.748  0.00  0.00    +0.020 A 
ATOM     11  C12 UNL     1      10.577   2.995  36.571  0.00  0.00    -0.019 A 
ATOM     12  C13 UNL     1       9.537   2.110  36.396  0.00  0.00    +0.004 A 
ATOM     13  C14 UNL     1       9.293   1.160  35.407  0.00  0.00    +0.023 A 
ATOM     14  C15 UNL     1      11.839   3.155  35.778  0.00  0.00    +0.037 C 
ATOM     15  C16 UNL     1      12.540   4.477  36.152  0.00  0.00    +0.005 C 
ATOM     16  C17 UNL     1      12.585   4.688  37.680  0.00  0.00    +0.006 C 
ATOM     17  C18 UNL     1      11.169   4.766  38.288  0.00  0.00    +0.053 C 
ATOM     18  H12 UNL     1       8.664   3.626  39.143  0.00  0.00    +0.166 HD
ENDBRANCH   2   5
BRANCH   1  25
ATOM     19  C1  UNL     1       5.981   2.283  28.164  0.00  0.00    +0.109 C 
ATOM     20  C2  UNL     1       6.452   0.868  28.287  0.00  0.00    +0.217 C 
ATOM     21  O1  UNL     1       6.465   0.137  27.259  0.00  0.00    -0.276 OA
ATOM     22  N1  UNL     1       6.817   0.317  29.568  0.00  0.00    -0.271 N 
ATOM     23  C3  UNL     1       6.001   0.651  30.743  0.00  0.00    +0.116 C 
ATOM     24  C4  UNL     1       5.794  -0.590  31.610  0.00  0.00    +0.046 C 
ATOM     25  C5  UNL     1       7.142  -1.161  32.071  0.00  0.00    +0.107 C 
ATOM     26  C19 UNL     1       8.094  -1.339  30.906  0.00  0.00    -0.006 A 
ATOM     27  C20 UNL     1       9.191  -2.205  31.050  0.00  0.00    +0.007 A 
ATOM     28  C21 UNL     1      10.142  -2.318  30.036  0.00  0.00    +0.000 A 
ATOM     29  C22 UNL     1      10.023  -1.550  28.879  0.00  0.00    +0.002 A 
ATOM     30  C23 UNL     1       8.943  -0.677  28.724  0.00  0.00    +0.024 A 
ATOM     31  C24 UNL     1       7.953  -0.572  29.722  0.00  0.00    +0.041 A 
ENDBRANCH   1  25
TORSDOF 2
ENDMDL
MODEL 3
REMARK VINA RESULT:    -7.507      3.317      9.183
REMARK INTER + INTRA:          -8.927
REMARK INTER:                  -8.385
REMARK INTRA:                  -0.541
REMARK UNBOUND:                -0.542
REMARK  Name = /home/qwerty/github/datacon2025hack/step_04_hit_selection/docking/ligands/lig_36.pdb
REMARK  3 active torsions:
REMARK  status: ('A' for Active; 'I' for Inactive)
REMARK    1  A    between atoms: C1_1  and  C2_2
REMARK    2  A    between atoms: C5_7  and  N2_8
REMARK    3  A    between atoms: C6_9  and  C7_11
REMARK                            x       y       z     vdW  Elec       q    Type
REMARK                         _______ _______ _______ _____ _____    ______ ____
ROOT
ATOM      1  N2  UNL     1      21.603  15.337  25.161  0.00  0.00    -0.304 N 
ATOM      2  C6  UNL     1      22.182  15.272  23.847  0.00  0.00    +0.245 C 
ATOM      3  O2  UNL     1      23.389  15.599  23.680  0.00  0.00    -0.270 OA
ATOM      4  H9  UNL     1      20.698  14.847  25.340  0.00  0.00    +0.150 HD
ENDROOT
BRANCH   2   5
ATOM      5  C7  UNL     1      21.385  14.815  22.686  0.00  0.00    +0.037 A 
ATOM      6  C8  UNL     1      21.225  15.664  21.557  0.00  0.00    +0.015 A 
ATOM      7  C9  UNL     1      20.468  15.256  20.445  0.00  0.00    +0.027 A 
ATOM      8  C10 UNL     1      19.871  13.999  20.487  0.00  0.00    +0.047 A 
ATOM      9  N3  UNL     1      19.116  13.421  19.533  0.00  0.00    -0.358 N 
ATOM     10  C11 UNL     1      18.780  12.209  20.029  0.00  0.00    +0.020 A 
ATOM     11  C12 UNL     1      19.288  12.035  21.305  0.00  0.00    -0.019 A 
ATOM     12  C13 UNL     1      20.006  13.177  21.581  0.00  0.00    +0.004 A 
ATOM     13  C14 UNL     1      20.753  13.548  22.696  0.00  0.00    +0.023 A 
ATOM     14  C15 UNL     1      19.155  10.774  22.104  0.00  0.00    +0.037 C 
ATOM     15  C16 UNL     1      18.000   9.913  21.554  0.00  0.00    +0.005 C 
ATOM     16  C17 UNL     1      18.038   9.823  20.014  0.00  0.00    +0.006 C 
ATOM     17  C18 UNL     1      17.890  11.210  19.355  0.00  0.00    +0.053 C 
ATOM     18  H12 UNL     1      18.847  13.822  18.606  0.00  0.00    +0.166 HD
ENDBRANCH   2   5
BRANCH   1  25
ATOM     19  C1  UNL     1      18.457  15.925  30.018  0.00  0.00    +0.109 C 
ATOM     20  C2  UNL     1      19.950  15.856  29.951  0.00  0.00    +0.217 C 
ATOM     21  O1  UNL     1      20.615  15.946  31.019  0.00  0.00    -0.276 OA
ATOM     22  N1  UNL     1      20.632  15.764  28.684  0.00  0.00    -0.271 N 
ATOM     23  C3  UNL     1      20.140  16.563  27.554  0.00  0.00    +0.116 C 
ATOM     24  C4  UNL     1      21.316  17.165  26.785  0.00  0.00    +0.046 C 
ATOM     25  C5  UNL     1      22.246  16.061  26.263  0.00  0.00    +0.107 C 
ATOM     26  C19 UNL     1      22.624  15.091  27.364  0.00  0.00    -0.006 A 
ATOM     27  C20 UNL     1      23.757  14.278  27.195  0.00  0.00    +0.007 A 
ATOM     28  C21 UNL     1      24.078  13.305  28.141  0.00  0.00    +0.000 A 
ATOM     29  C22 UNL     1      23.259  13.116  29.252  0.00  0.00    +0.002 A 
ATOM     30  C23 UNL     1      22.123  13.909  29.431  0.00  0.00    +0.024 A 
ATOM     31  C24 UNL     1      21.798  14.920  28.504  0.00  0.00    +0.041 A 
ENDBRANCH   1  25
TORSDOF 2
ENDMDL
MODEL 4
REMARK VINA RESULT:    -7.460     10.332     14.185
REMARK INTER + INTRA:          -8.874
REMARK INTER:                  -8.350
REMARK INTRA:                  -0.524
REMARK UNBOUND:                -0.542
REMARK  Name = /home/qwerty/github/datacon2025hack/step_04_hit_selection/docking/ligands/lig_36.pdb
REMARK  3 active torsions:
REMARK  status: ('A' for Active; 'I' for Inactive)
REMARK    1  A    between atoms: C1_1  and  C2_2
REMARK    2  A    between atoms: C5_7  and  N2_8
REMARK    3  A    between atoms: C6_9  and  C7_11
REMARK                            x       y       z     vdW  Elec       q    Type
REMARK                         _______ _______ _______ _____ _____    ______ ____
ROOT
ATOM      1  N2  UNL     1      14.790   0.906  22.400  0.00  0.00    -0.304 N 
ATOM      2  C6  UNL     1      13.804   1.166  21.386  0.00  0.00    +0.245 C 
ATOM      3  O2  UNL     1      14.107   1.023  20.170  0.00  0.00    -0.270 OA
ATOM      4  H9  UNL     1      14.478   0.791  23.391  0.00  0.00    +0.150 HD
ENDROOT
BRANCH   2   5
ATOM      5  C7  UNL     1      12.433   1.592  21.749  0.00  0.00    +0.037 A 
ATOM      6  C8  UNL     1      11.591   0.716  22.487  0.00  0.00    +0.015 A 
ATOM      7  C9  UNL     1      10.283   1.094  22.837  0.00  0.00    +0.027 A 
ATOM      8  C10 UNL     1       9.835   2.348  22.432  0.00  0.00    +0.047 A 
ATOM      9  N3  UNL     1       8.628   2.899  22.668  0.00  0.00    -0.358 N 
ATOM     10  C11 UNL     1       8.675   4.119  22.089  0.00  0.00    +0.020 A 
ATOM     11  C12 UNL     1       9.890   4.326  21.459  0.00  0.00    -0.019 A 
ATOM     12  C13 UNL     1      10.636   3.195  21.705  0.00  0.00    +0.004 A 
ATOM     13  C14 UNL     1      11.937   2.855  21.345  0.00  0.00    +0.023 A 
ATOM     14  C15 UNL     1      10.287   5.604  20.785  0.00  0.00    +0.037 C 
ATOM     15  C16 UNL     1       9.037   6.445  20.457  0.00  0.00    +0.005 C 
ATOM     16  C17 UNL     1       8.056   6.501  21.648  0.00  0.00    +0.006 C 
ATOM     17  C18 UNL     1       7.541   5.098  22.030  0.00  0.00    +0.053 C 
ATOM     18  H12 UNL     1       7.826   2.474  23.187  0.00  0.00    +0.166 HD
ENDBRANCH   2   5
BRANCH   1  25
ATOM     19  C1  UNL     1      18.455   3.353  26.196  0.00  0.00    +0.109 C 
ATOM     20  C2  UNL     1      18.753   2.161  25.343  0.00  0.00    +0.217 C 
ATOM     21  O1  UNL     1      19.893   1.625  25.417  0.00  0.00    -0.276 OA
ATOM     22  N1  UNL     1      17.787   1.668  24.393  0.00  0.00    -0.271 N 
ATOM     23  C3  UNL     1      17.009   2.634  23.607  0.00  0.00    +0.116 C 
ATOM     24  C4  UNL     1      16.894   2.162  22.158  0.00  0.00    +0.046 C 
ATOM     25  C5  UNL     1      16.218   0.784  22.088  0.00  0.00    +0.107 C 
ATOM     26  C19 UNL     1      16.870  -0.199  23.037  0.00  0.00    -0.006 A 
ATOM     27  C20 UNL     1      16.676  -1.575  22.830  0.00  0.00    +0.007 A 
ATOM     28  C21 UNL     1      17.177  -2.506  23.740  0.00  0.00    +0.000 A 
ATOM     29  C22 UNL     1      17.855  -2.073  24.878  0.00  0.00    +0.002 A 
ATOM     30  C23 UNL     1      18.048  -0.709  25.104  0.00  0.00    +0.024 A 
ATOM     31  C24 UNL     1      17.578   0.247  24.182  0.00  0.00    +0.041 A 
ENDBRANCH   1  25
TORSDOF 2
ENDMDL
MODEL 5
REMARK VINA RESULT:    -7.356     11.465     14.413
REMARK INTER + INTRA:          -8.758
REMARK INTER:                  -8.240
REMARK INTRA:                  -0.518
REMARK UNBOUND:                -0.542
REMARK  Name = /home/qwerty/github/datacon2025hack/step_04_hit_selection/docking/ligands/lig_36.pdb
REMARK  3 active torsions:
REMARK  status: ('A' for Active; 'I' for Inactive)
REMARK    1  A    between atoms: C1_1  and  C2_2
REMARK    2  A    between atoms: C5_7  and  N2_8
REMARK    3  A    between atoms: C6_9  and  C7_11
REMARK                            x       y       z     vdW  Elec       q    Type
REMARK                         _______ _______ _______ _____ _____    ______ ____
ROOT
ATOM      1  N2  UNL     1      10.486   4.230  22.994  0.00  0.00    -0.304 N 
ATOM      2  C6  UNL     1      10.570   2.799  22.893  0.00  0.00    +0.245 C 
ATOM      3  O2  UNL     1       9.576   2.091  23.215  0.00  0.00    -0.270 OA
ATOM      4  H9  UNL     1      11.204   4.815  22.510  0.00  0.00    +0.150 HD
ENDROOT
BRANCH   2   5
ATOM      5  C7  UNL     1      11.803   2.142  22.404  0.00  0.00    +0.037 A 
ATOM      6  C8  UNL     1      12.313   2.457  21.115  0.00  0.00    +0.015 A 
ATOM      7  C9  UNL     1      13.478   1.842  20.626  0.00  0.00    +0.027 A 
ATOM      8  C10 UNL     1      14.113   0.907  21.439  0.00  0.00    +0.047 A 
ATOM      9  N3  UNL     1      15.235   0.213  21.164  0.00  0.00    -0.358 N 
ATOM     10  C11 UNL     1      15.458  -0.552  22.255  0.00  0.00    +0.020 A 
ATOM     11  C12 UNL     1      14.464  -0.372  23.202  0.00  0.00    -0.019 A 
ATOM     12  C13 UNL     1      13.619   0.583  22.680  0.00  0.00    +0.004 A 
ATOM     13  C14 UNL     1      12.470   1.177  23.197  0.00  0.00    +0.023 A 
ATOM     14  C15 UNL     1      14.455  -1.019  24.553  0.00  0.00    +0.037 C 
ATOM     15  C16 UNL     1      15.387  -2.247  24.562  0.00  0.00    +0.005 C 
ATOM     16  C17 UNL     1      16.741  -1.943  23.888  0.00  0.00    +0.006 C 
ATOM     17  C18 UNL     1      16.566  -1.549  22.407  0.00  0.00    +0.053 C 
ATOM     18  H12 UNL     1      15.811   0.257  20.292  0.00  0.00    +0.166 HD
ENDBRANCH   2   5
BRANCH   1  25
ATOM     19  C1  UNL     1      10.712  10.041  23.143  0.00  0.00    +0.109 C 
ATOM     20  C2  UNL     1       9.466   9.216  23.222  0.00  0.00    +0.217 C 
ATOM     21  O1  UNL     1       8.354   9.798  23.348  0.00  0.00    -0.276 OA
ATOM     22  N1  UNL     1       9.530   7.775  23.231  0.00  0.00    -0.271 N 
ATOM     23  C3  UNL     1      10.588   7.117  24.007  0.00  0.00    +0.116 C 
ATOM     24  C4  UNL     1      10.022   5.902  24.742  0.00  0.00    +0.046 C 
ATOM     25  C5  UNL     1       9.419   4.899  23.748  0.00  0.00    +0.107 C 
ATOM     26  C19 UNL     1       8.461   5.578  22.791  0.00  0.00    -0.006 A 
ATOM     27  C20 UNL     1       7.523   4.795  22.098  0.00  0.00    +0.007 A 
ATOM     28  C21 UNL     1       6.694   5.370  21.136  0.00  0.00    +0.000 A 
ATOM     29  C22 UNL     1       6.807   6.727  20.838  0.00  0.00    +0.002 A 
ATOM     30  C23 UNL     1       7.741   7.518  21.511  0.00  0.00    +0.024 A 
ATOM     31  C24 UNL     1       8.567   6.963  22.510  0.00  0.00    +0.041 A 
ENDBRANCH   1  25
TORSDOF 2
ENDMDL
MODEL 6
REMARK VINA RESULT:    -7.343     10.728     15.280
REMARK INTER + INTRA:          -8.743
REMARK INTER:                  -8.222
REMARK INTRA:                  -0.521
REMARK UNBOUND:                -0.542
REMARK  Name = /home/qwerty/github/datacon2025hack/step_04_hit_selection/docking/ligands/lig_36.pdb
REMARK  3 active torsions:
REMARK  status: ('A' for Active; 'I' for Inactive)
REMARK    1  A    between atoms: C1_1  and  C2_2
REMARK    2  A    between atoms: C5_7  and  N2_8
REMARK    3  A    between atoms: C6_9  and  C7_11
REMARK                            x       y       z     vdW  Elec       q    Type
REMARK                         _______ _______ _______ _____ _____    ______ ____
ROOT
ATOM      1  N2  UNL     1      21.228   5.966  33.535  0.00  0.00    -0.304 N 
ATOM      2  C6  UNL     1      22.162   5.411  32.594  0.00  0.00    +0.245 C 
ATOM      3  O2  UNL     1      23.291   5.952  32.443  0.00  0.00    -0.270 OA
ATOM      4  H9  UNL     1      20.406   5.392  33.832  0.00  0.00    +0.150 HD
ENDROOT
BRANCH   2   5
ATOM      5  C7  UNL     1      21.822   4.205  31.806  0.00  0.00    +0.037 A 
ATOM      6  C8  UNL     1      21.490   2.993  32.471  0.00  0.00    +0.015 A 
ATOM      7  C9  UNL     1      21.170   1.832  31.745  0.00  0.00    +0.027 A 
ATOM      8  C10 UNL     1      21.198   1.903  30.355  0.00  0.00    +0.047 A 
ATOM      9  N3  UNL     1      20.921   0.916  29.481  0.00  0.00    -0.358 N 
ATOM     10  C11 UNL     1      21.073   1.469  28.258  0.00  0.00    +0.020 A 
ATOM     11  C12 UNL     1      21.479   2.789  28.355  0.00  0.00    -0.019 A 
ATOM     12  C13 UNL     1      21.533   3.066  29.703  0.00  0.00    +0.004 A 
ATOM     13  C14 UNL     1      21.850   4.234  30.391  0.00  0.00    +0.023 A 
ATOM     14  C15 UNL     1      21.668   3.705  27.184  0.00  0.00    +0.037 C 
ATOM     15  C16 UNL     1      21.834   2.886  25.888  0.00  0.00    +0.005 C 
ATOM     16  C17 UNL     1      20.792   1.752  25.790  0.00  0.00    +0.006 C 
ATOM     17  C18 UNL     1      20.931   0.747  26.953  0.00  0.00    +0.053 C 
ATOM     18  H12 UNL     1      20.647  -0.069  29.702  0.00  0.00    +0.166 HD
ENDBRANCH   2   5
BRANCH   1  25
ATOM     19  C1  UNL     1      17.006   7.783  37.100  0.00  0.00    +0.109 C 
ATOM     20  C2  UNL     1      18.442   8.200  37.167  0.00  0.00    +0.217 C 
ATOM     21  O1  UNL     1      18.797   9.027  38.051  0.00  0.00    -0.276 OA
ATOM     22  N1  UNL     1      19.397   7.729  36.196  0.00  0.00    -0.271 N 
ATOM     23  C3  UNL     1      18.991   7.640  34.787  0.00  0.00    +0.116 C 
ATOM     24  C4  UNL     1      20.119   8.137  33.883  0.00  0.00    +0.046 C 
ATOM     25  C5  UNL     1      21.394   7.310  34.101  0.00  0.00    +0.107 C 
ATOM     26  C19 UNL     1      21.743   7.209  35.571  0.00  0.00    -0.006 A 
ATOM     27  C20 UNL     1      23.053   6.859  35.937  0.00  0.00    +0.007 A 
ATOM     28  C21 UNL     1      23.385   6.659  37.277  0.00  0.00    +0.000 A 
ATOM     29  C22 UNL     1      22.408   6.782  38.263  0.00  0.00    +0.002 A 
ATOM     30  C23 UNL     1      21.099   7.120  37.916  0.00  0.00    +0.024 A 
ATOM     31  C24 UNL     1      20.749   7.358  36.571  0.00  0.00    +0.041 A 
ENDBRANCH   1  25
TORSDOF 2
ENDMDL
MODEL 7
REMARK VINA RESULT:    -7.211      9.965     12.155
REMARK INTER + INTRA:          -8.596
REMARK INTER:                  -8.032
REMARK INTRA:                  -0.565
REMARK UNBOUND:                -0.542
REMARK  Name = /home/qwerty/github/datacon2025hack/step_04_hit_selection/docking/ligands/lig_36.pdb
REMARK  3 active torsions:
REMARK  status: ('A' for Active; 'I' for Inactive)
REMARK    1  A    between atoms: C1_1  and  C2_2
REMARK    2  A    between atoms: C5_7  and  N2_8
REMARK    3  A    between atoms: C6_9  and  C7_11
REMARK                            x       y       z     vdW  Elec       q    Type
REMARK                         _______ _______ _______ _____ _____    ______ ____
ROOT
ATOM      1  N2  UNL     1       8.743  10.370  25.601  0.00  0.00    -0.304 N 
ATOM      2  C6  UNL     1       8.406  10.580  26.982  0.00  0.00    +0.245 C 
ATOM      3  O2  UNL     1       7.521   9.863  27.524  0.00  0.00    -0.270 OA
ATOM      4  H9  UNL     1       9.624  10.789  25.226  0.00  0.00    +0.150 HD
ENDROOT
BRANCH   2   5
ATOM      5  C7  UNL     1       9.090  11.620  27.784  0.00  0.00    +0.037 A 
ATOM      6  C8  UNL     1       8.383  12.306  28.809  0.00  0.00    +0.015 A 
ATOM      7  C9  UNL     1       9.008  13.302  29.579  0.00  0.00    +0.027 A 
ATOM      8  C10 UNL     1      10.338  13.603  29.301  0.00  0.00    +0.047 A 
ATOM      9  N3  UNL     1      11.117  14.512  29.920  0.00  0.00    -0.358 N 
ATOM     10  C11 UNL     1      12.319  14.428  29.307  0.00  0.00    +0.020 A 
ATOM     11  C12 UNL     1      12.292  13.498  28.283  0.00  0.00    -0.019 A 
ATOM     12  C13 UNL     1      11.026  12.957  28.301  0.00  0.00    +0.004 A 
ATOM     13  C14 UNL     1      10.439  11.962  27.523  0.00  0.00    +0.023 A 
ATOM     14  C15 UNL     1      13.482  13.117  27.456  0.00  0.00    +0.037 C 
ATOM     15  C16 UNL     1      14.569  14.206  27.550  0.00  0.00    +0.005 C 
ATOM     16  C17 UNL     1      14.788  14.671  29.005  0.00  0.00    +0.006 C 
ATOM     17  C18 UNL     1      13.508  15.289  29.606  0.00  0.00    +0.053 C 
ATOM     18  H12 UNL     1      10.849  15.146  30.706  0.00  0.00    +0.166 HD
ENDBRANCH   2   5
BRANCH   1  25
ATOM     19  C1  UNL     1      10.629   9.835  20.124  0.00  0.00    +0.109 C 
ATOM     20  C2  UNL     1       9.793   8.835  20.859  0.00  0.00    +0.217 C 
ATOM     21  O1  UNL     1       9.437   7.781  20.265  0.00  0.00    -0.276 OA
ATOM     22  N1  UNL     1       9.335   9.094  22.201  0.00  0.00    -0.271 N 
ATOM     23  C3  UNL     1       8.872  10.445  22.544  0.00  0.00    +0.116 C 
ATOM     24  C4  UNL     1       7.616  10.366  23.412  0.00  0.00    +0.046 C 
ATOM     25  C5  UNL     1       7.896   9.580  24.701  0.00  0.00    +0.107 C 
ATOM     26  C19 UNL     1       8.560   8.251  24.405  0.00  0.00    -0.006 A 
ATOM     27  C20 UNL     1       8.523   7.240  25.378  0.00  0.00    +0.007 A 
ATOM     28  C21 UNL     1       9.208   6.041  25.181  0.00  0.00    +0.000 A 
ATOM     29  C22 UNL     1       9.957   5.849  24.022  0.00  0.00    +0.002 A 
ATOM     30  C23 UNL     1      10.013   6.847  23.048  0.00  0.00    +0.024 A 
ATOM     31  C24 UNL     1       9.302   8.054  23.212  0.00  0.00    +0.041 A 
ENDBRANCH   1  25
TORSDOF 2
ENDMDL
MODEL 8
REMARK VINA RESULT:    -7.168     10.220     11.793
REMARK INTER + INTRA:          -8.548
REMARK INTER:                  -8.029
REMARK INTRA:                  -0.519
REMARK UNBOUND:                -0.542
REMARK  Name = /home/qwerty/github/datacon2025hack/step_04_hit_selection/docking/ligands/lig_36.pdb
REMARK  3 active torsions:
REMARK  status: ('A' for Active; 'I' for Inactive)
REMARK    1  A    between atoms: C1_1  and  C2_2
REMARK    2  A    between atoms: C5_7  and  N2_8
REMARK    3  A    between atoms: C6_9  and  C7_11
REMARK                            x       y       z     vdW  Elec       q    Type
REMARK                         _______ _______ _______ _____ _____    ______ ____
ROOT
ATOM      1  N2  UNL     1      17.159   0.973  24.281  0.00  0.00    -0.304 N 
ATOM      2  C6  UNL     1      17.973   0.166  25.147  0.00  0.00    +0.245 C 
ATOM      3  O2  UNL     1      17.741  -1.070  25.249  0.00  0.00    -0.270 OA
ATOM      4  H9  UNL     1      17.495   1.927  24.015  0.00  0.00    +0.150 HD
ENDROOT
BRANCH   2   5
ATOM      5  C7  UNL     1      19.089   0.761  25.916  0.00  0.00    +0.037 A 
ATOM      6  C8  UNL     1      20.156   1.407  25.234  0.00  0.00    +0.015 A 
ATOM      7  C9  UNL     1      21.231   1.974  25.941  0.00  0.00    +0.027 A 
ATOM      8  C10 UNL     1      21.223   1.876  27.329  0.00  0.00    +0.047 A 
ATOM      9  N3  UNL     1      22.146   2.353  28.187  0.00  0.00    -0.358 N 
ATOM     10  C11 UNL     1      21.695   2.021  29.417  0.00  0.00    +0.020 A 
ATOM     11  C12 UNL     1      20.512   1.307  29.339  0.00  0.00    -0.019 A 
ATOM     12  C13 UNL     1      20.205   1.239  27.997  0.00  0.00    +0.004 A 
ATOM     13  C14 UNL     1      19.123   0.672  27.329  0.00  0.00    +0.023 A 
ATOM     14  C15 UNL     1      19.717   0.853  30.525  0.00  0.00    +0.037 C 
ATOM     15  C16 UNL     1      20.601   0.844  31.788  0.00  0.00    +0.005 C 
ATOM     16  C17 UNL     1      21.449   2.128  31.902  0.00  0.00    +0.006 C 
ATOM     17  C18 UNL     1      22.411   2.286  30.706  0.00  0.00    +0.053 C 
ATOM     18  H12 UNL     1      23.024   2.869  27.952  0.00  0.00    +0.166 HD
ENDBRANCH   2   5
BRANCH   1  25
ATOM     19  C1  UNL     1      14.231   4.730  20.941  0.00  0.00    +0.109 C 
ATOM     20  C2  UNL     1      14.176   3.239  20.829  0.00  0.00    +0.217 C 
ATOM     21  O1  UNL     1      13.428   2.719  19.957  0.00  0.00    -0.276 OA
ATOM     22  N1  UNL     1      14.903   2.398  21.747  0.00  0.00    -0.271 N 
ATOM     23  C3  UNL     1      14.944   2.769  23.168  0.00  0.00    +0.116 C 
ATOM     24  C4  UNL     1      14.772   1.526  24.040  0.00  0.00    +0.046 C 
ATOM     25  C5  UNL     1      15.877   0.500  23.748  0.00  0.00    +0.107 C 
ATOM     26  C19 UNL     1      16.004   0.233  22.263  0.00  0.00    -0.006 A 
ATOM     27  C20 UNL     1      16.649  -0.939  21.835  0.00  0.00    +0.007 A 
ATOM     28  C21 UNL     1      16.873  -1.168  20.478  0.00  0.00    +0.000 A 
ATOM     29  C22 UNL     1      16.478  -0.221  19.535  0.00  0.00    +0.002 A 
ATOM     30  C23 UNL     1      15.843   0.953  19.944  0.00  0.00    +0.024 A 
ATOM     31  C24 UNL     1      15.578   1.191  21.308  0.00  0.00    +0.041 A 
ENDBRANCH   1  25
TORSDOF 2
ENDMDL
MODEL 9
REMARK VINA RESULT:    -7.112     12.543     16.049
REMARK INTER + INTRA:          -8.485
REMARK INTER:                  -7.907
REMARK INTRA:                  -0.578
REMARK UNBOUND:                -0.542
REMARK  Name = /home/qwerty/github/datacon2025hack/step_04_hit_selection/docking/ligands/lig_36.pdb
REMARK  3 active torsions:
REMARK  status: ('A' for Active; 'I' for Inactive)
REMARK    1  A    between atoms: C1_1  and  C2_2
REMARK    2  A    between atoms: C5_7  and  N2_8
REMARK    3  A    between atoms: C6_9  and  C7_11
REMARK                            x       y       z     vdW  Elec       q    Type
REMARK                         _______ _______ _______ _____ _____    ______ ____
ROOT
ATOM      1  N2  UNL     1      11.271  13.140  31.782  0.00  0.00    -0.304 N 
ATOM      2  C6  UNL     1      11.031  13.515  30.415  0.00  0.00    +0.245 C 
ATOM      3  O2  UNL     1      11.631  14.511  29.927  0.00  0.00    -0.270 OA
ATOM      4  H9  UNL     1      10.968  12.194  32.108  0.00  0.00    +0.150 HD
ENDROOT
BRANCH   2   5
ATOM      5  C7  UNL     1      10.096  12.741  29.567  0.00  0.00    +0.037 A 
ATOM      6  C8  UNL     1       9.469  13.362  28.452  0.00  0.00    +0.015 A 
ATOM      7  C9  UNL     1       8.573  12.650  27.636  0.00  0.00    +0.027 A 
ATOM      8  C10 UNL     1       8.311  11.322  27.957  0.00  0.00    +0.047 A 
ATOM      9  N3  UNL     1       7.495  10.470  27.306  0.00  0.00    -0.358 N 
ATOM     10  C11 UNL     1       7.580   9.305  27.986  0.00  0.00    +0.020 A 
ATOM     11  C12 UNL     1       8.417   9.427  29.082  0.00  0.00    -0.019 A 
ATOM     12  C13 UNL     1       8.899  10.717  29.042  0.00  0.00    +0.004 A 
ATOM     13  C14 UNL     1       9.795  11.391  29.868  0.00  0.00    +0.023 A 
ATOM     14  C15 UNL     1       8.780   8.300  30.000  0.00  0.00    +0.037 C 
ATOM     15  C16 UNL     1       7.754   7.156  29.872  0.00  0.00    +0.005 C 
ATOM     16  C17 UNL     1       7.426   6.844  28.397  0.00  0.00    +0.006 C 
ATOM     17  C18 UNL     1       6.805   8.060  27.680  0.00  0.00    +0.053 C 
ATOM     18  H12 UNL     1       6.919  10.667  26.456  0.00  0.00    +0.166 HD
ENDBRANCH   2   5
BRANCH   1  25
ATOM     19  C1  UNL     1      11.872  11.131  37.207  0.00  0.00    +0.109 C 
ATOM     20  C2  UNL     1      12.791  12.099  36.531  0.00  0.00    +0.217 C 
ATOM     21  O1  UNL     1      13.781  12.550  37.168  0.00  0.00    -0.276 OA
ATOM     22  N1  UNL     1      12.516  12.574  35.198  0.00  0.00    -0.271 N 
ATOM     23  C3  UNL     1      11.131  12.894  34.829  0.00  0.00    +0.116 C 
ATOM     24  C4  UNL     1      11.090  14.181  34.006  0.00  0.00    +0.046 C 
ATOM     25  C5  UNL     1      11.936  14.038  32.733  0.00  0.00    +0.107 C 
ATOM     26  C19 UNL     1      13.323  13.517  33.047  0.00  0.00    -0.006 A 
ATOM     27  C20 UNL     1      14.349  13.703  32.106  0.00  0.00    +0.007 A 
ATOM     28  C21 UNL     1      15.612  13.151  32.317  0.00  0.00    +0.000 A 
ATOM     29  C22 UNL     1      15.858  12.387  33.456  0.00  0.00    +0.002 A 
ATOM     30  C23 UNL     1      14.847  12.184  34.397  0.00  0.00    +0.024 A 
ATOM     31  C24 UNL     1      13.572  12.760  34.220  0.00  0.00    +0.041 A 
ENDBRANCH   1  25
TORSDOF 2
ENDMDL
