MODEL 1
REMARK VINA RESULT:    -6.295      0.000      0.000
REMARK INTER + INTRA:          -7.873
REMARK INTER:                  -7.399
REMARK INTRA:                  -0.474
REMARK UNBOUND:                -0.474
REMARK  Name = /home/qwerty/github/datacon2025hack/step_04_hit_selection/docking/ligands/lig_497.pdb
REMARK  6 active torsions:
REMARK  status: ('A' for Active; 'I' for Inactive)
REMARK    1  A    between atoms: C1_1  and  C2_2
REMARK    2  A    between atoms: C4_5  and  C5_6
REMARK    3  A    between atoms: C8_11  and  N3_12
REMARK    4  A    between atoms: C9_13  and  C10_15
REMARK    5  A    between atoms: C11_19  and  C12_20
REMARK    6  A    between atoms: C13_21  and  C14_22
REMARK                            x       y       z     vdW  Elec       q    Type
REMARK                         _______ _______ _______ _____ _____    ______ ____
ROOT
ATOM      1  C5  UNL     1      19.644   8.812  37.212  0.00  0.00    +0.265 C 
ATOM      2  O1  UNL     1      18.707   8.423  37.961  0.00  0.00    -0.268 OA
ATOM      3  N2  UNL     1      19.481  10.014  36.436  0.00  0.00    -0.292 N 
ATOM      4  C6  UNL     1      20.571  10.949  36.188  0.00  0.00    +0.110 C 
ATOM      5  C7  UNL     1      19.910  12.305  35.985  0.00  0.00    +0.043 C 
ATOM      6  C8  UNL     1      18.472  11.989  35.570  0.00  0.00    +0.095 C 
ATOM      7  C13 UNL     1      18.175  10.610  36.175  0.00  0.00    +0.094 C 
ATOM      8  C14 UNL     1      17.360   9.732  35.219  0.00  0.00    +0.030 C 
ENDROOT
BRANCH   1  13
ATOM      9  C1  UNL     1      23.638   6.284  38.659  0.00  0.00    +0.086 C 
ATOM     10  C2  UNL     1      22.603   6.910  37.785  0.00  0.00    +0.104 A 
ATOM     11  N1  UNL     1      22.577   6.767  36.443  0.00  0.00    -0.240 NA
ATOM     12  C3  UNL     1      21.491   7.466  36.057  0.00  0.00    +0.143 A 
ATOM     13  C4  UNL     1      20.887   8.018  37.169  0.00  0.00    +0.122 A 
ATOM     14  N7  UNL     1      21.585   7.654  38.257  0.00  0.00    -0.338 N 
ATOM     15  H19 UNL     1      21.384   7.893  39.254  0.00  0.00    +0.167 HD
ENDBRANCH   1  13
BRANCH   6  16
ATOM     16  N3  UNL     1      17.537  13.003  36.069  0.00  0.00    -0.305 N 
ATOM     17  C9  UNL     1      16.771  13.840  35.189  0.00  0.00    +0.264 C 
ATOM     18  O2  UNL     1      16.879  13.705  33.940  0.00  0.00    -0.268 OA
ATOM     19  H10 UNL     1      17.297  12.991  37.085  0.00  0.00    +0.149 HD
BRANCH  17  20
ATOM     20  C10 UNL     1      15.850  14.861  35.731  0.00  0.00    +0.143 A 
ATOM     21  N4  UNL     1      16.222  15.989  36.364  0.00  0.00    -0.252 N 
ATOM     22  N5  UNL     1      15.125  16.658  36.683  0.00  0.00    -0.067 NA
ATOM     23  N6  UNL     1      14.043  16.007  36.281  0.00  0.00    -0.134 NA
ATOM     24  C11 UNL     1      14.468  14.878  35.681  0.00  0.00    +0.092 A 
ATOM     25  C12 UNL     1      13.558  13.855  35.081  0.00  0.00    +0.070 C 
ATOM     26  H11 UNL     1      17.190  16.321  36.565  0.00  0.00    +0.191 HD
ENDBRANCH  17  20
ENDBRANCH   6  16
TORSDOF 3
ENDMDL
MODEL 2
REMARK VINA RESULT:    -6.187      1.456      8.693
REMARK INTER + INTRA:          -7.746
REMARK INTER:                  -7.352
REMARK INTRA:                  -0.395
REMARK UNBOUND:                -0.474
REMARK  Name = /home/qwerty/github/datacon2025hack/step_04_hit_selection/docking/ligands/lig_497.pdb
REMARK  6 active torsions:
REMARK  status: ('A' for Active; 'I' for Inactive)
REMARK    1  A    between atoms: C1_1  and  C2_2
REMARK    2  A    between atoms: C4_5  and  C5_6
REMARK    3  A    between atoms: C8_11  and  N3_12
REMARK    4  A    between atoms: C9_13  and  C10_15
REMARK    5  A    between atoms: C11_19  and  C12_20
REMARK    6  A    between atoms: C13_21  and  C14_22
REMARK                            x       y       z     vdW  Elec       q    Type
REMARK                         _______ _______ _______ _____ _____    ______ ____
ROOT
ATOM      1  C5  UNL     1      17.222  12.894  35.174  0.00  0.00    +0.265 C 
ATOM      2  O1  UNL     1      18.084  13.251  34.325  0.00  0.00    -0.268 OA
ATOM      3  N2  UNL     1      17.370  11.627  35.845  0.00  0.00    -0.292 N 
ATOM      4  C6  UNL     1      17.007  11.425  37.241  0.00  0.00    +0.110 C 
ATOM      5  C7  UNL     1      17.897  10.295  37.736  0.00  0.00    +0.043 C 
ATOM      6  C8  UNL     1      18.317   9.536  36.476  0.00  0.00    +0.095 C 
ATOM      7  C13 UNL     1      18.243  10.570  35.344  0.00  0.00    +0.094 C 
ATOM      8  C14 UNL     1      17.677   9.964  34.055  0.00  0.00    +0.030 C 
ENDROOT
BRANCH   1  13
ATOM      9  C1  UNL     1      14.652  16.873  36.583  0.00  0.00    +0.086 C 
ATOM     10  C2  UNL     1      14.977  15.520  36.046  0.00  0.00    +0.104 A 
ATOM     11  N1  UNL     1      14.054  14.685  35.524  0.00  0.00    -0.240 NA
ATOM     12  C3  UNL     1      14.762  13.601  35.151  0.00  0.00    +0.143 A 
ATOM     13  C4  UNL     1      16.093  13.799  35.457  0.00  0.00    +0.122 A 
ATOM     14  N7  UNL     1      16.225  15.015  36.010  0.00  0.00    -0.338 N 
ATOM     15  H19 UNL     1      17.104  15.475  36.340  0.00  0.00    +0.167 HD
ENDBRANCH   1  13
BRANCH   6  16
ATOM     16  N3  UNL     1      19.670   8.987  36.609  0.00  0.00    -0.305 N 
ATOM     17  C9  UNL     1      19.948   7.805  37.378  0.00  0.00    +0.264 C 
ATOM     18  O2  UNL     1      19.007   7.195  37.954  0.00  0.00    -0.268 OA
ATOM     19  H10 UNL     1      20.417   9.367  35.987  0.00  0.00    +0.149 HD
BRANCH  17  20
ATOM     20  C10 UNL     1      21.328   7.293  37.501  0.00  0.00    +0.143 A 
ATOM     21  N4  UNL     1      22.027   7.200  38.647  0.00  0.00    -0.252 N 
ATOM     22  N5  UNL     1      23.209   6.677  38.363  0.00  0.00    -0.067 NA
ATOM     23  N6  UNL     1      23.313   6.424  37.066  0.00  0.00    -0.134 NA
ATOM     24  C11 UNL     1      22.148   6.799  36.502  0.00  0.00    +0.092 A 
ATOM     25  C12 UNL     1      21.848   6.681  35.042  0.00  0.00    +0.070 C 
ATOM     26  H11 UNL     1      21.718   7.460  39.608  0.00  0.00    +0.191 HD
ENDBRANCH  17  20
ENDBRANCH   6  16
TORSDOF 3
ENDMDL
MODEL 3
REMARK VINA RESULT:    -6.099     17.574     20.449
REMARK INTER + INTRA:          -7.642
REMARK INTER:                  -7.379
REMARK INTRA:                  -0.264
REMARK UNBOUND:                -0.474
REMARK  Name = /home/qwerty/github/datacon2025hack/step_04_hit_selection/docking/ligands/lig_497.pdb
REMARK  6 active torsions:
REMARK  status: ('A' for Active; 'I' for Inactive)
REMARK    1  A    between atoms: C1_1  and  C2_2
REMARK    2  A    between atoms: C4_5  and  C5_6
REMARK    3  A    between atoms: C8_11  and  N3_12
REMARK    4  A    between atoms: C9_13  and  C10_15
REMARK    5  A    between atoms: C11_19  and  C12_20
REMARK    6  A    between atoms: C13_21  and  C14_22
REMARK                            x       y       z     vdW  Elec       q    Type
REMARK                         _______ _______ _______ _____ _____    ______ ____
ROOT
ATOM      1  C5  UNL     1       9.385   3.923  21.906  0.00  0.00    +0.265 C 
ATOM      2  O1  UNL     1       8.977   2.924  22.559  0.00  0.00    -0.268 OA
ATOM      3  N2  UNL     1      10.762   3.985  21.488  0.00  0.00    -0.292 N 
ATOM      4  C6  UNL     1      11.176   4.554  20.213  0.00  0.00    +0.110 C 
ATOM      5  C7  UNL     1      12.474   3.847  19.850  0.00  0.00    +0.043 C 
ATOM      6  C8  UNL     1      13.029   3.327  21.177  0.00  0.00    +0.095 C 
ATOM      7  C13 UNL     1      11.801   3.150  22.082  0.00  0.00    +0.094 C 
ATOM      8  C14 UNL     1      12.089   3.584  23.523  0.00  0.00    +0.030 C 
ENDROOT
BRANCH   1  13
ATOM      9  C1  UNL     1       5.308   6.242  20.347  0.00  0.00    +0.086 C 
ATOM     10  C2  UNL     1       6.660   6.002  20.930  0.00  0.00    +0.104 A 
ATOM     11  N1  UNL     1       7.420   6.977  21.472  0.00  0.00    -0.240 NA
ATOM     12  C3  UNL     1       8.532   6.337  21.886  0.00  0.00    +0.143 A 
ATOM     13  C4  UNL     1       8.423   4.995  21.584  0.00  0.00    +0.122 A 
ATOM     14  N7  UNL     1       7.236   4.787  20.993  0.00  0.00    -0.338 N 
ATOM     15  H19 UNL     1       6.840   3.880  20.655  0.00  0.00    +0.167 HD
ENDBRANCH   1  13
BRANCH   6  16
ATOM     16  N3  UNL     1      13.745   2.060  20.996  0.00  0.00    -0.305 N 
ATOM     17  C9  UNL     1      14.982   1.974  20.271  0.00  0.00    +0.264 C 
ATOM     18  O2  UNL     1      15.494   3.014  19.777  0.00  0.00    -0.268 OA
ATOM     19  H10 UNL     1      13.435   1.236  21.559  0.00  0.00    +0.149 HD
BRANCH  17  20
ATOM     20  C10 UNL     1      15.665   0.675  20.097  0.00  0.00    +0.143 A 
ATOM     21  N4  UNL     1      15.677  -0.056  18.967  0.00  0.00    -0.252 N 
ATOM     22  N5  UNL     1      16.405  -1.138  19.189  0.00  0.00    -0.067 NA
ATOM     23  N6  UNL     1      16.873  -1.146  20.429  0.00  0.00    -0.134 NA
ATOM     24  C11 UNL     1      16.425  -0.020  21.020  0.00  0.00    +0.092 A 
ATOM     25  C12 UNL     1      16.728   0.360  22.434  0.00  0.00    +0.070 C 
ATOM     26  H11 UNL     1      15.226   0.169  18.054  0.00  0.00    +0.191 HD
ENDBRANCH  17  20
ENDBRANCH   6  16
TORSDOF 3
ENDMDL
MODEL 4
REMARK VINA RESULT:    -5.764      8.594     11.296
REMARK INTER + INTRA:          -7.249
REMARK INTER:                  -6.666
REMARK INTRA:                  -0.583
REMARK UNBOUND:                -0.474
REMARK  Name = /home/qwerty/github/datacon2025hack/step_04_hit_selection/docking/ligands/lig_497.pdb
REMARK  6 active torsions:
REMARK  status: ('A' for Active; 'I' for Inactive)
REMARK    1  A    between atoms: C1_1  and  C2_2
REMARK    2  A    between atoms: C4_5  and  C5_6
REMARK    3  A    between atoms: C8_11  and  N3_12
REMARK    4  A    between atoms: C9_13  and  C10_15
REMARK    5  A    between atoms: C11_19  and  C12_20
REMARK    6  A    between atoms: C13_21  and  C14_22
REMARK                            x       y       z     vdW  Elec       q    Type
REMARK                         _______ _______ _______ _____ _____    ______ ____
ROOT
ATOM      1  C5  UNL     1      15.049  14.462  28.634  0.00  0.00    +0.265 C 
ATOM      2  O1  UNL     1      15.329  13.569  27.789  0.00  0.00    -0.268 OA
ATOM      3  N2  UNL     1      13.697  14.583  29.118  0.00  0.00    -0.292 N 
ATOM      4  C6  UNL     1      13.378  14.939  30.494  0.00  0.00    +0.110 C 
ATOM      5  C7  UNL     1      12.020  14.312  30.776  0.00  0.00    +0.043 C 
ATOM      6  C8  UNL     1      11.380  14.114  29.401  0.00  0.00    +0.095 C 
ATOM      7  C13 UNL     1      12.558  13.988  28.426  0.00  0.00    +0.094 C 
ATOM      8  C14 UNL     1      12.285  14.716  27.105  0.00  0.00    +0.030 C 
ENDROOT
BRANCH   1  13
ATOM      9  C1  UNL     1      19.024  16.112  31.064  0.00  0.00    +0.086 C 
ATOM     10  C2  UNL     1      17.854  16.062  30.139  0.00  0.00    +0.104 A 
ATOM     11  N1  UNL     1      17.529  17.066  29.297  0.00  0.00    -0.240 NA
ATOM     12  C3  UNL     1      16.440  16.611  28.646  0.00  0.00    +0.143 A 
ATOM     13  C4  UNL     1      16.129  15.348  29.108  0.00  0.00    +0.122 A 
ATOM     14  N7  UNL     1      17.030  15.002  30.040  0.00  0.00    -0.338 N 
ATOM     15  H19 UNL     1      17.086  14.105  30.574  0.00  0.00    +0.167 HD
ENDBRANCH   1  13
BRANCH   6  16
ATOM     16  N3  UNL     1      10.534  12.916  29.373  0.00  0.00    -0.305 N 
ATOM     17  C9  UNL     1       9.277  12.879  28.679  0.00  0.00    +0.264 C 
ATOM     18  O2  UNL     1       8.876  13.896  28.052  0.00  0.00    -0.268 OA
ATOM     19  H10 UNL     1      10.942  12.020  29.720  0.00  0.00    +0.149 HD
BRANCH  17  20
ATOM     20  C10 UNL     1       8.447  11.657  28.687  0.00  0.00    +0.143 A 
ATOM     21  N4  UNL     1       7.591  11.302  29.663  0.00  0.00    -0.252 N 
ATOM     22  N5  UNL     1       7.017  10.163  29.309  0.00  0.00    -0.067 NA
ATOM     23  N6  UNL     1       7.468   9.755  28.131  0.00  0.00    -0.134 NA
ATOM     24  C11 UNL     1       8.365  10.673  27.719  0.00  0.00    +0.092 A 
ATOM     25  C12 UNL     1       9.114  10.591  26.428  0.00  0.00    +0.070 C 
ATOM     26  H11 UNL     1       7.374  11.818  30.544  0.00  0.00    +0.191 HD
ENDBRANCH  17  20
ENDBRANCH   6  16
TORSDOF 3
ENDMDL
MODEL 5
REMARK VINA RESULT:    -5.735      3.000      8.794
REMARK INTER + INTRA:          -7.215
REMARK INTER:                  -6.625
REMARK INTRA:                  -0.591
REMARK UNBOUND:                -0.474
REMARK  Name = /home/qwerty/github/datacon2025hack/step_04_hit_selection/docking/ligands/lig_497.pdb
REMARK  6 active torsions:
REMARK  status: ('A' for Active; 'I' for Inactive)
REMARK    1  A    between atoms: C1_1  and  C2_2
REMARK    2  A    between atoms: C4_5  and  C5_6
REMARK    3  A    between atoms: C8_11  and  N3_12
REMARK    4  A    between atoms: C9_13  and  C10_15
REMARK    5  A    between atoms: C11_19  and  C12_20
REMARK    6  A    between atoms: C13_21  and  C14_22
REMARK                            x       y       z     vdW  Elec       q    Type
REMARK                         _______ _______ _______ _____ _____    ______ ____
ROOT
ATOM      1  C5  UNL     1      15.115   9.927  35.867  0.00  0.00    +0.265 C 
ATOM      2  O1  UNL     1      15.201   9.561  34.663  0.00  0.00    -0.268 OA
ATOM      3  N2  UNL     1      16.150   9.554  36.798  0.00  0.00    -0.292 N 
ATOM      4  C6  UNL     1      16.605  10.432  37.868  0.00  0.00    +0.110 C 
ATOM      5  C7  UNL     1      18.048  10.032  38.141  0.00  0.00    +0.043 C 
ATOM      6  C8  UNL     1      18.169   8.598  37.621  0.00  0.00    +0.095 C 
ATOM      7  C13 UNL     1      17.097   8.477  36.529  0.00  0.00    +0.094 C 
ATOM      8  C14 UNL     1      16.396   7.115  36.569  0.00  0.00    +0.030 C 
ENDROOT
BRANCH   1  13
ATOM      9  C1  UNL     1      10.788  11.234  37.865  0.00  0.00    +0.086 C 
ATOM     10  C2  UNL     1      12.095  11.315  37.152  0.00  0.00    +0.104 A 
ATOM     11  N1  UNL     1      12.619  12.470  36.688  0.00  0.00    -0.240 NA
ATOM     12  C3  UNL     1      13.794  12.102  36.138  0.00  0.00    +0.143 A 
ATOM     13  C4  UNL     1      13.954  10.739  36.277  0.00  0.00    +0.122 A 
ATOM     14  N7  UNL     1      12.887  10.249  36.927  0.00  0.00    -0.338 N 
ATOM     15  H19 UNL     1      12.706   9.257  37.204  0.00  0.00    +0.167 HD
ENDBRANCH   1  13
BRANCH   6  16
ATOM     16  N3  UNL     1      19.509   8.337  37.085  0.00  0.00    -0.305 N 
ATOM     17  C9  UNL     1      20.162   7.067  37.236  0.00  0.00    +0.264 C 
ATOM     18  O2  UNL     1      19.575   6.126  37.835  0.00  0.00    -0.268 OA
ATOM     19  H10 UNL     1      19.919   9.037  36.427  0.00  0.00    +0.149 HD
BRANCH  17  20
ATOM     20  C10 UNL     1      21.519   6.847  36.694  0.00  0.00    +0.143 A 
ATOM     21  N4  UNL     1      22.669   7.043  37.366  0.00  0.00    -0.252 N 
ATOM     22  N5  UNL     1      23.671   6.722  36.563  0.00  0.00    -0.067 NA
ATOM     23  N6  UNL     1      23.219   6.323  35.382  0.00  0.00    -0.134 NA
ATOM     24  C11 UNL     1      21.874   6.391  35.438  0.00  0.00    +0.092 A 
ATOM     25  C12 UNL     1      20.970   6.025  34.305  0.00  0.00    +0.070 C 
ATOM     26  H11 UNL     1      22.788   7.365  38.351  0.00  0.00    +0.191 HD
ENDBRANCH  17  20
ENDBRANCH   6  16
TORSDOF 3
ENDMDL
MODEL 6
REMARK VINA RESULT:    -5.718     16.895     17.909
REMARK INTER + INTRA:          -7.195
REMARK INTER:                  -6.770
REMARK INTRA:                  -0.425
REMARK UNBOUND:                -0.474
REMARK  Name = /home/qwerty/github/datacon2025hack/step_04_hit_selection/docking/ligands/lig_497.pdb
REMARK  6 active torsions:
REMARK  status: ('A' for Active; 'I' for Inactive)
REMARK    1  A    between atoms: C1_1  and  C2_2
REMARK    2  A    between atoms: C4_5  and  C5_6
REMARK    3  A    between atoms: C8_11  and  N3_12
REMARK    4  A    between atoms: C9_13  and  C10_15
REMARK    5  A    between atoms: C11_19  and  C12_20
REMARK    6  A    between atoms: C13_21  and  C14_22
REMARK                            x       y       z     vdW  Elec       q    Type
REMARK                         _______ _______ _______ _____ _____    ______ ____
ROOT
ATOM      1  C5  UNL     1      14.488   1.659  21.516  0.00  0.00    +0.265 C 
ATOM      2  O1  UNL     1      14.006   1.562  22.677  0.00  0.00    -0.268 OA
ATOM      3  N2  UNL     1      14.175   2.813  20.711  0.00  0.00    -0.292 N 
ATOM      4  C6  UNL     1      15.138   3.433  19.811  0.00  0.00    +0.110 C 
ATOM      5  C7  UNL     1      14.724   4.894  19.710  0.00  0.00    +0.043 C 
ATOM      6  C8  UNL     1      13.244   4.916  20.096  0.00  0.00    +0.095 C 
ATOM      7  C13 UNL     1      13.050   3.694  21.005  0.00  0.00    +0.094 C 
ATOM      8  C14 UNL     1      11.720   2.984  20.728  0.00  0.00    +0.030 C 
ENDROOT
BRANCH   1  13
ATOM      9  C1  UNL     1      16.687  -1.586  18.506  0.00  0.00    +0.086 C 
ATOM     10  C2  UNL     1      16.337  -0.808  19.729  0.00  0.00    +0.104 A 
ATOM     11  N1  UNL     1      16.985  -0.942  20.906  0.00  0.00    -0.240 NA
ATOM     12  C3  UNL     1      16.374  -0.060  21.722  0.00  0.00    +0.143 A 
ATOM     13  C4  UNL     1      15.370   0.583  21.026  0.00  0.00    +0.122 A 
ATOM     14  N7  UNL     1      15.359   0.117  19.767  0.00  0.00    -0.338 N 
ATOM     15  H19 UNL     1      14.732   0.407  18.983  0.00  0.00    +0.167 HD
ENDBRANCH   1  13
BRANCH   6  16
ATOM     16  N3  UNL     1      12.892   6.158  20.791  0.00  0.00    -0.305 N 
ATOM     17  C9  UNL     1      11.589   6.755  20.685  0.00  0.00    +0.264 C 
ATOM     18  O2  UNL     1      10.699   6.200  19.987  0.00  0.00    -0.268 OA
ATOM     19  H10 UNL     1      13.551   6.518  21.517  0.00  0.00    +0.149 HD
BRANCH  17  20
ATOM     20  C10 UNL     1      11.278   8.016  21.389  0.00  0.00    +0.143 A 
ATOM     21  N4  UNL     1      11.112   8.147  22.718  0.00  0.00    -0.252 N 
ATOM     22  N5  UNL     1      10.868   9.422  22.975  0.00  0.00    -0.067 NA
ATOM     23  N6  UNL     1      10.866  10.136  21.858  0.00  0.00    -0.134 NA
ATOM     24  C11 UNL     1      11.122   9.280  20.849  0.00  0.00    +0.092 A 
ATOM     25  C12 UNL     1      11.209   9.681  19.412  0.00  0.00    +0.070 C 
ATOM     26  H11 UNL     1      11.179   7.406  23.448  0.00  0.00    +0.191 HD
ENDBRANCH  17  20
ENDBRANCH   6  16
TORSDOF 3
ENDMDL
MODEL 7
REMARK VINA RESULT:    -5.646     16.937     17.622
REMARK INTER + INTRA:          -7.110
REMARK INTER:                  -6.767
REMARK INTRA:                  -0.342
REMARK UNBOUND:                -0.474
REMARK  Name = /home/qwerty/github/datacon2025hack/step_04_hit_selection/docking/ligands/lig_497.pdb
REMARK  6 active torsions:
REMARK  status: ('A' for Active; 'I' for Inactive)
REMARK    1  A    between atoms: C1_1  and  C2_2
REMARK    2  A    between atoms: C4_5  and  C5_6
REMARK    3  A    between atoms: C8_11  and  N3_12
REMARK    4  A    between atoms: C9_13  and  C10_15
REMARK    5  A    between atoms: C11_19  and  C12_20
REMARK    6  A    between atoms: C13_21  and  C14_22
REMARK                            x       y       z     vdW  Elec       q    Type
REMARK                         _______ _______ _______ _____ _____    ______ ____
ROOT
ATOM      1  C5  UNL     1      13.832   2.491  22.796  0.00  0.00    +0.265 C 
ATOM      2  O1  UNL     1      13.996   3.161  23.852  0.00  0.00    -0.268 OA
ATOM      3  N2  UNL     1      13.051   3.044  21.718  0.00  0.00    -0.292 N 
ATOM      4  C6  UNL     1      13.379   2.833  20.315  0.00  0.00    +0.110 C 
ATOM      5  C7  UNL     1      12.826   4.044  19.578  0.00  0.00    +0.043 C 
ATOM      6  C8  UNL     1      11.733   4.602  20.492  0.00  0.00    +0.095 C 
ATOM      7  C13 UNL     1      12.134   4.164  21.907  0.00  0.00    +0.094 C 
ATOM      8  C14 UNL     1      10.918   3.735  22.736  0.00  0.00    +0.030 C 
ENDROOT
BRANCH   1  13
ATOM      9  C1  UNL     1      17.128  -1.072  21.866  0.00  0.00    +0.086 C 
ATOM     10  C2  UNL     1      15.886  -0.381  22.318  0.00  0.00    +0.104 A 
ATOM     11  N1  UNL     1      14.871  -1.012  22.947  0.00  0.00    -0.240 NA
ATOM     12  C3  UNL     1      13.974  -0.034  23.189  0.00  0.00    +0.143 A 
ATOM     13  C4  UNL     1      14.461   1.160  22.699  0.00  0.00    +0.122 A 
ATOM     14  N7  UNL     1      15.672   0.939  22.162  0.00  0.00    -0.338 N 
ATOM     15  H19 UNL     1      16.313   1.637  21.721  0.00  0.00    +0.167 HD
ENDBRANCH   1  13
BRANCH   6  16
ATOM     16  N3  UNL     1      11.647   6.063  20.390  0.00  0.00    -0.305 N 
ATOM     17  C9  UNL     1      10.390   6.757  20.348  0.00  0.00    +0.264 C 
ATOM     18  O2  UNL     1       9.312   6.108  20.414  0.00  0.00    -0.268 OA
ATOM     19  H10 UNL     1      12.522   6.617  20.529  0.00  0.00    +0.149 HD
BRANCH  17  20
ATOM     20  C10 UNL     1      10.345   8.229  20.230  0.00  0.00    +0.143 A 
ATOM     21  N4  UNL     1      11.160   8.975  19.463  0.00  0.00    -0.252 N 
ATOM     22  N5  UNL     1      10.804  10.243  19.601  0.00  0.00    -0.067 NA
ATOM     23  N6  UNL     1       9.782  10.356  20.437  0.00  0.00    -0.134 NA
ATOM     24  C11 UNL     1       9.473   9.109  20.845  0.00  0.00    +0.092 A 
ATOM     25  C12 UNL     1       8.369   8.790  21.801  0.00  0.00    +0.070 C 
ATOM     26  H11 UNL     1      11.930   8.649  18.839  0.00  0.00    +0.191 HD
ENDBRANCH  17  20
ENDBRANCH   6  16
TORSDOF 3
ENDMDL
MODEL 8
REMARK VINA RESULT:    -5.635     16.924     18.036
REMARK INTER + INTRA:          -7.098
REMARK INTER:                  -6.531
REMARK INTRA:                  -0.567
REMARK UNBOUND:                -0.474
REMARK  Name = /home/qwerty/github/datacon2025hack/step_04_hit_selection/docking/ligands/lig_497.pdb
REMARK  6 active torsions:
REMARK  status: ('A' for Active; 'I' for Inactive)
REMARK    1  A    between atoms: C1_1  and  C2_2
REMARK    2  A    between atoms: C4_5  and  C5_6
REMARK    3  A    between atoms: C8_11  and  N3_12
REMARK    4  A    between atoms: C9_13  and  C10_15
REMARK    5  A    between atoms: C11_19  and  C12_20
REMARK    6  A    between atoms: C13_21  and  C14_22
REMARK                            x       y       z     vdW  Elec       q    Type
REMARK                         _______ _______ _______ _____ _____    ______ ____
ROOT
ATOM      1  C5  UNL     1      15.403   2.971  20.126  0.00  0.00    +0.265 C 
ATOM      2  O1  UNL     1      16.198   3.770  19.561  0.00  0.00    -0.268 OA
ATOM      3  N2  UNL     1      14.154   3.464  20.650  0.00  0.00    -0.292 N 
ATOM      4  C6  UNL     1      12.918   2.695  20.600  0.00  0.00    +0.110 C 
ATOM      5  C7  UNL     1      11.796   3.723  20.579  0.00  0.00    +0.043 C 
ATOM      6  C8  UNL     1      12.406   4.991  21.179  0.00  0.00    +0.095 C 
ATOM      7  C13 UNL     1      13.911   4.881  20.900  0.00  0.00    +0.094 C 
ATOM      8  C14 UNL     1      14.748   5.374  22.086  0.00  0.00    +0.030 C 
ENDROOT
BRANCH   1  13
ATOM      9  C1  UNL     1      16.648  -1.636  18.840  0.00  0.00    +0.086 C 
ATOM     10  C2  UNL     1      16.336  -0.438  19.673  0.00  0.00    +0.104 A 
ATOM     11  N1  UNL     1      16.434  -0.422  21.019  0.00  0.00    -0.240 NA
ATOM     12  C3  UNL     1      16.084   0.835  21.361  0.00  0.00    +0.143 A 
ATOM     13  C4  UNL     1      15.780   1.548  20.219  0.00  0.00    +0.122 A 
ATOM     14  N7  UNL     1      15.952   0.746  19.157  0.00  0.00    -0.338 N 
ATOM     15  H19 UNL     1      15.821   0.983  18.148  0.00  0.00    +0.167 HD
ENDBRANCH   1  13
BRANCH   6  16
ATOM     16  N3  UNL     1      11.837   6.197  20.568  0.00  0.00    -0.305 N 
ATOM     17  C9  UNL     1      11.648   7.415  21.306  0.00  0.00    +0.264 C 
ATOM     18  O2  UNL     1      11.989   7.475  22.518  0.00  0.00    -0.268 OA
ATOM     19  H10 UNL     1      11.733   6.219  19.529  0.00  0.00    +0.149 HD
BRANCH  17  20
ATOM     20  C10 UNL     1      11.058   8.605  20.659  0.00  0.00    +0.143 A 
ATOM     21  N4  UNL     1      11.704   9.441  19.826  0.00  0.00    -0.252 N 
ATOM     22  N5  UNL     1      10.846  10.370  19.434  0.00  0.00    -0.067 NA
ATOM     23  N6  UNL     1       9.656  10.174  19.983  0.00  0.00    -0.134 NA
ATOM     24  C11 UNL     1       9.760   9.074  20.755  0.00  0.00    +0.092 A 
ATOM     25  C12 UNL     1       8.634   8.504  21.556  0.00  0.00    +0.070 C 
ATOM     26  H11 UNL     1      12.694   9.386  19.504  0.00  0.00    +0.191 HD
ENDBRANCH  17  20
ENDBRANCH   6  16
TORSDOF 3
ENDMDL
MODEL 9
REMARK VINA RESULT:    -5.559     17.465     18.612
REMARK INTER + INTRA:          -7.008
REMARK INTER:                  -6.764
REMARK INTRA:                  -0.243
REMARK UNBOUND:                -0.474
REMARK  Name = /home/qwerty/github/datacon2025hack/step_04_hit_selection/docking/ligands/lig_497.pdb
REMARK  6 active torsions:
REMARK  status: ('A' for Active; 'I' for Inactive)
REMARK    1  A    between atoms: C1_1  and  C2_2
REMARK    2  A    between atoms: C4_5  and  C5_6
REMARK    3  A    between atoms: C8_11  and  N3_12
REMARK    4  A    between atoms: C9_13  and  C10_15
REMARK    5  A    between atoms: C11_19  and  C12_20
REMARK    6  A    between atoms: C13_21  and  C14_22
REMARK                            x       y       z     vdW  Elec       q    Type
REMARK                         _______ _______ _______ _____ _____    ______ ____
ROOT
ATOM      1  C5  UNL     1      14.651   2.142  20.516  0.00  0.00    +0.265 C 
ATOM      2  O1  UNL     1      15.002   3.012  19.673  0.00  0.00    -0.268 OA
ATOM      3  N2  UNL     1      13.440   2.334  21.272  0.00  0.00    -0.292 N 
ATOM      4  C6  UNL     1      12.551   1.237  21.633  0.00  0.00    +0.110 C 
ATOM      5  C7  UNL     1      11.168   1.858  21.767  0.00  0.00    +0.043 C 
ATOM      6  C8  UNL     1      11.421   3.343  22.030  0.00  0.00    +0.095 C 
ATOM      7  C13 UNL     1      12.789   3.634  21.395  0.00  0.00    +0.094 C 
ATOM      8  C14 UNL     1      13.628   4.581  22.260  0.00  0.00    +0.030 C 
ENDROOT
BRANCH   1  13
ATOM      9  C1  UNL     1      17.276  -1.470  22.636  0.00  0.00    +0.086 C 
ATOM     10  C2  UNL     1      16.617  -0.627  21.596  0.00  0.00    +0.104 A 
ATOM     11  N1  UNL     1      16.624  -0.929  20.280  0.00  0.00    -0.240 NA
ATOM     12  C3  UNL     1      15.914   0.066  19.710  0.00  0.00    +0.143 A 
ATOM     13  C4  UNL     1      15.497   0.945  20.688  0.00  0.00    +0.122 A 
ATOM     14  N7  UNL     1      15.932   0.498  21.877  0.00  0.00    -0.338 N 
ATOM     15  H19 UNL     1      15.774   0.925  22.817  0.00  0.00    +0.167 HD
ENDBRANCH   1  13
BRANCH   6  16
ATOM     16  N3  UNL     1      10.371   4.177  21.436  0.00  0.00    -0.305 N 
ATOM     17  C9  UNL     1       9.009   4.137  21.893  0.00  0.00    +0.264 C 
ATOM     18  O2  UNL     1       8.688   3.377  22.846  0.00  0.00    -0.268 OA
ATOM     19  H10 UNL     1      10.659   4.941  20.786  0.00  0.00    +0.149 HD
BRANCH  17  20
ATOM     20  C10 UNL     1       7.976   4.981  21.259  0.00  0.00    +0.143 A 
ATOM     21  N4  UNL     1       7.113   4.577  20.309  0.00  0.00    -0.252 N 
ATOM     22  N5  UNL     1       6.331   5.601  20.005  0.00  0.00    -0.067 NA
ATOM     23  N6  UNL     1       6.652   6.668  20.724  0.00  0.00    -0.134 NA
ATOM     24  C11 UNL     1       7.678   6.307  21.519  0.00  0.00    +0.092 A 
ATOM     25  C12 UNL     1       8.344   7.223  22.494  0.00  0.00    +0.070 C 
ATOM     26  H11 UNL     1       7.029   3.630  19.881  0.00  0.00    +0.191 HD
ENDBRANCH  17  20
ENDBRANCH   6  16
TORSDOF 3
ENDMDL
