REMARK  Name = /home/qwerty/github/datacon2025hack/step_04_hit_selection/docking/ligands/lig_292.pdb
REMARK  5 active torsions:
REMARK  status: ('A' for Active; 'I' for Inactive)
REMARK    1  A    between atoms: C1_1  and  C2_2
REMARK    2  A    between atoms: C2_2  and  C3_3
REMARK    3  A    between atoms: C2_2  and  N1_10
REMARK    4  A    between atoms: C11_13  and  C12_14
REMARK    5  A    between atoms: N2_16  and  C13_17
REMARK                            x       y       z     vdW  Elec       q    Type
REMARK                         _______ _______ _______ _____ _____    ______ ____
ROOT
ATOM      1  N1  UNL     1       1.977  -1.190  -1.221  0.00  0.00    -0.296 NA
ATOM      2  C9  UNL     1       1.409  -1.695   0.055  0.00  0.00    +0.086 C 
ATOM      3  C10 UNL     1       0.171  -0.897   0.503  0.00  0.00    +0.028 C 
ATOM      4  C11 UNL     1      -0.744  -0.514  -0.683  0.00  0.00    +0.078 C 
ATOM      5  C19 UNL     1      -0.479  -1.411  -1.900  0.00  0.00    +0.028 C 
ATOM      6  C20 UNL     1       0.997  -1.309  -2.343  0.00  0.00    +0.086 C 
ENDROOT
BRANCH   4   7
ATOM      7  C12 UNL     1      -2.199  -0.567  -0.287  0.00  0.00    +0.220 C 
ATOM      8  O1  UNL     1      -2.719  -1.674   0.026  0.00  0.00    -0.275 OA
ATOM      9  N2  UNL     1      -2.995   0.629  -0.304  0.00  0.00    -0.285 N 
ATOM     10  H14 UNL     1      -2.641   1.446  -0.852  0.00  0.00    +0.155 HD
BRANCH   9  11
ATOM     11  C13 UNL     1      -4.299   0.735   0.293  0.00  0.00    +0.035 A 
ATOM     12  C14 UNL     1      -4.622   0.047   1.478  0.00  0.00    +0.023 A 
ATOM     13  C15 UNL     1      -5.890   0.187   2.050  0.00  0.00    +0.003 A 
ATOM     14  C16 UNL     1      -6.840   1.021   1.456  0.00  0.00    +0.020 A 
ATOM     15  C17 UNL     1      -6.521   1.726   0.292  0.00  0.00    +0.043 A 
ATOM     16 CL1  UNL     1      -7.710   2.784  -0.447  0.00  0.00    -0.083 Cl
ATOM     17  C18 UNL     1      -5.253   1.589  -0.283  0.00  0.00    +0.043 A 
ENDBRANCH   9  11
ENDBRANCH   4   7
BRANCH   1  19
ATOM     18  C1  UNL     1       3.499   0.441  -2.360  0.00  0.00    +0.029 C 
ATOM     19  C2  UNL     1       2.611   0.161  -1.129  0.00  0.00    +0.084 C 
BRANCH  19  20
ATOM     20  C3  UNL     1       3.480   0.311   0.112  0.00  0.00    -0.030 A 
ATOM     21  C4  UNL     1       3.211   1.326   1.047  0.00  0.00    +0.008 A 
ATOM     22  C5  UNL     1       4.009   1.468   2.187  0.00  0.00    +0.038 A 
ATOM     23  C6  UNL     1       5.084   0.602   2.402  0.00  0.00    +0.123 A 
ATOM     24  F1  UNL     1       5.855   0.741   3.508  0.00  0.00    -0.205 F 
ATOM     25  C7  UNL     1       5.364  -0.408   1.478  0.00  0.00    +0.038 A 
ATOM     26  C8  UNL     1       4.569  -0.553   0.337  0.00  0.00    +0.008 A 
ENDBRANCH  19  20
ENDBRANCH   1  19
TORSDOF 4
