MODEL 1
REMARK VINA RESULT:    -6.705      0.000      0.000
REMARK INTER + INTRA:          -9.834
REMARK INTER:                  -8.469
REMARK INTRA:                  -1.365
REMARK UNBOUND:                -1.365
REMARK  Name = /home/qwerty/github/datacon2025hack/step_04_hit_selection/docking/ligands/lig_578.pdb
REMARK  8 active torsions:
REMARK  status: ('A' for Active; 'I' for Inactive)
REMARK    1  A    between atoms: C1_1  and  C2_2
REMARK    2  A    between atoms: C5_5  and  N1_6
REMARK    3  A    between atoms: C6_7  and  C7_9
REMARK    4  A    between atoms: C11_16  and  C12_17
REMARK    5  A    between atoms: C13_18  and  C14_19
REMARK    6  A    between atoms: N5_20  and  C15_21
REMARK    7  A    between atoms: C15_21  and  C16_22
REMARK    8  A    between atoms: C16_22  and  O2_23
REMARK                            x       y       z     vdW  Elec       q    Type
REMARK                         _______ _______ _______ _____ _____    ______ ____
ROOT
ATOM      1  C7  UNL     1      19.313   4.364  34.803  0.00  0.00    +0.221 A 
ATOM      2  N2  UNL     1      19.704   5.407  35.564  0.00  0.00    -0.123 NA
ATOM      3  N3  UNL     1      20.601   6.088  34.872  0.00  0.00    -0.113 NA
ATOM      4  C8  UNL     1      20.753   5.448  33.699  0.00  0.00    +0.220 A 
ATOM      5  N4  UNL     1      21.582   5.955  32.644  0.00  0.00    -0.297 N 
ATOM      6  C9  UNL     1      23.025   6.044  32.836  0.00  0.00    +0.108 C 
ATOM      7  C10 UNL     1      23.479   7.299  32.103  0.00  0.00    +0.024 C 
ATOM      8  C11 UNL     1      22.352   7.620  31.123  0.00  0.00    +0.008 C 
ATOM      9  C12 UNL     1      22.222   9.123  30.854  0.00  0.00    +0.009 C 
ATOM     10  C13 UNL     1      21.096   7.018  31.767  0.00  0.00    +0.076 C 
ATOM     11  C14 UNL     1      20.118   6.482  30.717  0.00  0.00    +0.028 C 
ATOM     12  N5  UNL     1      19.965   4.352  33.612  0.00  0.00    -0.289 N 
ENDROOT
BRANCH   1  14
ATOM     13  N1  UNL     1      18.619   2.023  35.437  0.00  0.00    -0.279 N 
ATOM     14  C6  UNL     1      18.277   3.406  35.254  0.00  0.00    +0.286 C 
ATOM     15  O1  UNL     1      17.095   3.793  35.458  0.00  0.00    -0.266 OA
ATOM     16  H6  UNL     1      19.485   1.664  34.973  0.00  0.00    +0.155 HD
BRANCH  13  21
ATOM     17  C1  UNL     1      15.300  -1.889  38.042  0.00  0.00    +0.044 C 
ATOM     18  C2  UNL     1      16.141  -0.843  37.373  0.00  0.00    -0.050 A 
ATOM     19  C3  UNL     1      16.934   0.028  38.137  0.00  0.00    +0.005 A 
ATOM     20  C4  UNL     1      17.743   0.979  37.509  0.00  0.00    +0.023 A 
ATOM     21  C5  UNL     1      17.774   1.071  36.105  0.00  0.00    +0.034 A 
ATOM     22  C21 UNL     1      17.013   0.172  35.346  0.00  0.00    +0.023 A 
ATOM     23  C22 UNL     1      16.200  -0.777  35.974  0.00  0.00    +0.005 A 
ENDBRANCH  13  21
ENDBRANCH   1  14
BRANCH  12  24
ATOM     24  C15 UNL     1      19.865   3.391  32.502  0.00  0.00    +0.161 C 
BRANCH  24  25
ATOM     25  C16 UNL     1      20.948   2.267  32.560  0.00  0.00    +0.087 C 
ATOM     26  C17 UNL     1      20.298   0.883  32.283  0.00  0.00    +0.059 C 
ATOM     27  C18 UNL     1      19.673   0.731  30.892  0.00  0.00    +0.169 C 
ATOM     28  S1  UNL     1      20.900   1.015  29.642  0.00  0.00    -0.031 S 
ATOM     29  O3  UNL     1      21.875  -0.128  29.609  0.00  0.00    -0.174 OA
ATOM     30  O4  UNL     1      20.244   1.159  28.298  0.00  0.00    -0.174 OA
ATOM     31  C19 UNL     1      21.741   2.518  30.074  0.00  0.00    +0.169 C 
ATOM     32  C20 UNL     1      22.124   2.523  31.562  0.00  0.00    +0.059 C 
BRANCH  25  33
ATOM     33  O2  UNL     1      21.470   2.188  33.868  0.00  0.00    -0.387 OA
ATOM     34  H21 UNL     1      21.650   1.236  34.086  0.00  0.00    +0.210 HD
ENDBRANCH  25  33
ENDBRANCH  24  25
ENDBRANCH  12  24
TORSDOF 5
ENDMDL
MODEL 2
REMARK VINA RESULT:    -6.546      7.505     12.155
REMARK INTER + INTRA:          -9.633
REMARK INTER:                  -8.341
REMARK INTRA:                  -1.292
REMARK UNBOUND:                -1.365
REMARK  Name = /home/qwerty/github/datacon2025hack/step_04_hit_selection/docking/ligands/lig_578.pdb
REMARK  8 active torsions:
REMARK  status: ('A' for Active; 'I' for Inactive)
REMARK    1  A    between atoms: C1_1  and  C2_2
REMARK    2  A    between atoms: C5_5  and  N1_6
REMARK    3  A    between atoms: C6_7  and  C7_9
REMARK    4  A    between atoms: C11_16  and  C12_17
REMARK    5  A    between atoms: C13_18  and  C14_19
REMARK    6  A    between atoms: N5_20  and  C15_21
REMARK    7  A    between atoms: C15_21  and  C16_22
REMARK    8  A    between atoms: C16_22  and  O2_23
REMARK                            x       y       z     vdW  Elec       q    Type
REMARK                         _______ _______ _______ _____ _____    ______ ____
ROOT
ATOM      1  C7  UNL     1      18.336   3.046  23.274  0.00  0.00    +0.221 A 
ATOM      2  N2  UNL     1      17.396   2.509  22.470  0.00  0.00    -0.123 NA
ATOM      3  N3  UNL     1      16.821   1.522  23.136  0.00  0.00    -0.113 NA
ATOM      4  C8  UNL     1      17.423   1.464  24.337  0.00  0.00    +0.220 A 
ATOM      5  N4  UNL     1      16.993   0.571  25.374  0.00  0.00    -0.297 N 
ATOM      6  C9  UNL     1      17.123  -0.870  25.187  0.00  0.00    +0.108 C 
ATOM      7  C10 UNL     1      15.915  -1.501  25.866  0.00  0.00    +0.024 C 
ATOM      8  C11 UNL     1      15.390  -0.433  26.822  0.00  0.00    +0.008 C 
ATOM      9  C12 UNL     1      13.873  -0.523  27.022  0.00  0.00    +0.009 C 
ATOM     10  C13 UNL     1      15.832   0.897  26.198  0.00  0.00    +0.076 C 
ATOM     11  C14 UNL     1      16.172   1.942  27.265  0.00  0.00    +0.028 C 
ATOM     12  N5  UNL     1      18.388   2.402  24.468  0.00  0.00    -0.289 N 
ENDROOT
BRANCH   1  14
ATOM     13  N1  UNL     1      20.551   4.034  22.580  0.00  0.00    -0.279 N 
ATOM     14  C6  UNL     1      19.153   4.210  22.860  0.00  0.00    +0.286 C 
ATOM     15  O1  UNL     1      18.635   5.356  22.773  0.00  0.00    -0.266 OA
ATOM     16  H6  UNL     1      21.024   3.179  22.952  0.00  0.00    +0.155 HD
BRANCH  13  21
ATOM     17  C1  UNL     1      23.935   7.950  20.067  0.00  0.00    +0.044 C 
ATOM     18  C2  UNL     1      23.023   6.949  20.712  0.00  0.00    -0.050 A 
ATOM     19  C3  UNL     1      22.293   6.044  19.927  0.00  0.00    +0.005 A 
ATOM     20  C4  UNL     1      21.471   5.089  20.533  0.00  0.00    +0.023 A 
ATOM     21  C5  UNL     1      21.369   5.025  21.934  0.00  0.00    +0.034 A 
ATOM     22  C21 UNL     1      22.133   5.904  22.715  0.00  0.00    +0.023 A 
ATOM     23  C22 UNL     1      22.952   6.861  22.109  0.00  0.00    +0.005 A 
ENDBRANCH  13  21
ENDBRANCH   1  14
BRANCH  12  24
ATOM     24  C15 UNL     1      19.272   2.641  25.620  0.00  0.00    +0.161 C 
BRANCH  24  25
ATOM     25  C16 UNL     1      20.597   1.815  25.562  0.00  0.00    +0.087 C 
ATOM     26  C17 UNL     1      21.823   2.763  25.665  0.00  0.00    +0.059 C 
ATOM     27  C18 UNL     1      21.926   3.544  26.980  0.00  0.00    +0.169 C 
ATOM     28  S1  UNL     1      21.991   2.419  28.350  0.00  0.00    -0.031 S 
ATOM     29  O3  UNL     1      23.316   1.711  28.372  0.00  0.00    -0.174 OA
ATOM     30  O4  UNL     1      21.795   3.165  29.640  0.00  0.00    -0.174 OA
ATOM     31  C19 UNL     1      20.679   1.245  28.120  0.00  0.00    +0.169 C 
ATOM     32  C20 UNL     1      20.663   0.720  26.676  0.00  0.00    +0.059 C 
BRANCH  25  33
ATOM     33  O2  UNL     1      20.703   1.190  24.302  0.00  0.00    -0.387 OA
ATOM     34  H21 UNL     1      20.343   1.801  23.607  0.00  0.00    +0.210 HD
ENDBRANCH  25  33
ENDBRANCH  24  25
ENDBRANCH  12  24
TORSDOF 5
ENDMDL
MODEL 3
REMARK VINA RESULT:    -6.459     12.278     14.667
REMARK INTER + INTRA:          -9.523
REMARK INTER:                  -8.241
REMARK INTRA:                  -1.283
REMARK UNBOUND:                -1.365
REMARK  Name = /home/qwerty/github/datacon2025hack/step_04_hit_selection/docking/ligands/lig_578.pdb
REMARK  8 active torsions:
REMARK  status: ('A' for Active; 'I' for Inactive)
REMARK    1  A    between atoms: C1_1  and  C2_2
REMARK    2  A    between atoms: C5_5  and  N1_6
REMARK    3  A    between atoms: C6_7  and  C7_9
REMARK    4  A    between atoms: C11_16  and  C12_17
REMARK    5  A    between atoms: C13_18  and  C14_19
REMARK    6  A    between atoms: N5_20  and  C15_21
REMARK    7  A    between atoms: C15_21  and  C16_22
REMARK    8  A    between atoms: C16_22  and  O2_23
REMARK                            x       y       z     vdW  Elec       q    Type
REMARK                         _______ _______ _______ _____ _____    ______ ____
ROOT
ATOM      1  C7  UNL     1      12.663   2.670  21.233  0.00  0.00    +0.221 A 
ATOM      2  N2  UNL     1      12.961   3.259  20.057  0.00  0.00    -0.123 NA
ATOM      3  N3  UNL     1      12.250   4.370  19.978  0.00  0.00    -0.113 NA
ATOM      4  C8  UNL     1      11.519   4.443  21.105  0.00  0.00    +0.220 A 
ATOM      5  N4  UNL     1      10.691   5.572  21.416  0.00  0.00    -0.297 N 
ATOM      6  C9  UNL     1       9.528   5.868  20.588  0.00  0.00    +0.108 C 
ATOM      7  C10 UNL     1       9.418   7.385  20.530  0.00  0.00    +0.024 C 
ATOM      8  C11 UNL     1      10.238   7.892  21.713  0.00  0.00    +0.008 C 
ATOM      9  C12 UNL     1      10.870   9.262  21.443  0.00  0.00    +0.009 C 
ATOM     10  C13 UNL     1      11.280   6.793  21.962  0.00  0.00    +0.076 C 
ATOM     11  C14 UNL     1      11.609   6.646  23.451  0.00  0.00    +0.028 C 
ATOM     12  N5  UNL     1      11.742   3.390  21.924  0.00  0.00    -0.289 N 
ENDROOT
BRANCH   1  14
ATOM     13  N1  UNL     1      14.734   1.391  21.894  0.00  0.00    -0.279 N 
ATOM     14  C6  UNL     1      13.315   1.415  21.671  0.00  0.00    +0.286 C 
ATOM     15  O1  UNL     1      12.637   0.364  21.829  0.00  0.00    -0.266 OA
ATOM     16  H6  UNL     1      15.313   2.149  21.465  0.00  0.00    +0.155 HD
BRANCH  13  21
ATOM     17  C1  UNL     1      17.609  -2.861  24.495  0.00  0.00    +0.044 C 
ATOM     18  C2  UNL     1      16.828  -1.772  23.820  0.00  0.00    -0.050 A 
ATOM     19  C3  UNL     1      16.009  -0.915  24.571  0.00  0.00    +0.005 A 
ATOM     20  C4  UNL     1      15.310   0.120  23.944  0.00  0.00    +0.023 A 
ATOM     21  C5  UNL     1      15.422   0.316  22.556  0.00  0.00    +0.034 A 
ATOM     22  C21 UNL     1      16.275  -0.516  21.817  0.00  0.00    +0.023 A 
ATOM     23  C22 UNL     1      16.971  -1.555  22.443  0.00  0.00    +0.005 A 
ENDBRANCH  13  21
ENDBRANCH   1  14
BRANCH  12  24
ATOM     24  C15 UNL     1      11.122   3.108  23.228  0.00  0.00    +0.161 C 
BRANCH  24  25
ATOM     25  C16 UNL     1       9.783   2.312  23.114  0.00  0.00    +0.087 C 
ATOM     26  C17 UNL     1       9.687   1.259  24.253  0.00  0.00    +0.059 C 
ATOM     27  C18 UNL     1       9.657   1.844  25.670  0.00  0.00    +0.169 C 
ATOM     28  S1  UNL     1       8.284   2.955  25.839  0.00  0.00    -0.031 S 
ATOM     29  O3  UNL     1       6.995   2.182  25.856  0.00  0.00    -0.174 OA
ATOM     30  O4  UNL     1       8.415   3.748  27.108  0.00  0.00    -0.174 OA
ATOM     31  C19 UNL     1       8.321   4.042  24.435  0.00  0.00    +0.169 C 
ATOM     32  C20 UNL     1       8.531   3.249  23.136  0.00  0.00    +0.059 C 
BRANCH  25  33
ATOM     33  O2  UNL     1       9.778   1.574  21.912  0.00  0.00    -0.387 OA
ATOM     34  H21 UNL     1      10.486   1.928  21.313  0.00  0.00    +0.210 HD
ENDBRANCH  25  33
ENDBRANCH  24  25
ENDBRANCH  12  24
TORSDOF 5
ENDMDL
MODEL 4
REMARK VINA RESULT:    -6.349     12.940     15.409
REMARK INTER + INTRA:          -9.384
REMARK INTER:                  -8.106
REMARK INTRA:                  -1.278
REMARK UNBOUND:                -1.365
REMARK  Name = /home/qwerty/github/datacon2025hack/step_04_hit_selection/docking/ligands/lig_578.pdb
REMARK  8 active torsions:
REMARK  status: ('A' for Active; 'I' for Inactive)
REMARK    1  A    between atoms: C1_1  and  C2_2
REMARK    2  A    between atoms: C5_5  and  N1_6
REMARK    3  A    between atoms: C6_7  and  C7_9
REMARK    4  A    between atoms: C11_16  and  C12_17
REMARK    5  A    between atoms: C13_18  and  C14_19
REMARK    6  A    between atoms: N5_20  and  C15_21
REMARK    7  A    between atoms: C15_21  and  C16_22
REMARK    8  A    between atoms: C16_22  and  O2_23
REMARK                            x       y       z     vdW  Elec       q    Type
REMARK                         _______ _______ _______ _____ _____    ______ ____
ROOT
ATOM      1  C7  UNL     1      11.491   4.115  20.994  0.00  0.00    +0.221 A 
ATOM      2  N2  UNL     1      11.427   4.864  19.876  0.00  0.00    -0.123 NA
ATOM      3  N3  UNL     1      10.646   5.898  20.135  0.00  0.00    -0.113 NA
ATOM      4  C8  UNL     1      10.234   5.763  21.408  0.00  0.00    +0.220 A 
ATOM      5  N4  UNL     1       9.443   6.757  22.074  0.00  0.00    -0.297 N 
ATOM      6  C9  UNL     1       8.085   7.026  21.615  0.00  0.00    +0.108 C 
ATOM      7  C10 UNL     1       7.859   8.521  21.799  0.00  0.00    +0.024 C 
ATOM      8  C11 UNL     1       8.925   8.967  22.797  0.00  0.00    +0.008 C 
ATOM      9  C12 UNL     1       9.368  10.417  22.570  0.00  0.00    +0.009 C 
ATOM     10  C13 UNL     1      10.069   7.959  22.618  0.00  0.00    +0.076 C 
ATOM     11  C14 UNL     1      10.788   7.674  23.940  0.00  0.00    +0.028 C 
ATOM     12  N5  UNL     1      10.738   4.650  21.989  0.00  0.00    -0.289 N 
ENDROOT
BRANCH   1  14
ATOM     13  N1  UNL     1      13.727   2.965  20.795  0.00  0.00    -0.279 N 
ATOM     14  C6  UNL     1      12.321   2.890  21.075  0.00  0.00    +0.286 C 
ATOM     15  O1  UNL     1      11.796   1.781  21.366  0.00  0.00    -0.266 OA
ATOM     16  H6  UNL     1      14.080   3.791  20.260  0.00  0.00    +0.155 HD
BRANCH  13  21
ATOM     17  C1  UNL     1      17.362  -1.315  22.051  0.00  0.00    +0.044 C 
ATOM     18  C2  UNL     1      16.443  -0.180  21.709  0.00  0.00    -0.050 A 
ATOM     19  C3  UNL     1      16.033   0.028  20.383  0.00  0.00    +0.005 A 
ATOM     20  C4  UNL     1      15.149   1.065  20.073  0.00  0.00    +0.023 A 
ATOM     21  C5  UNL     1      14.659   1.909  21.086  0.00  0.00    +0.034 A 
ATOM     22  C21 UNL     1      15.038   1.671  22.415  0.00  0.00    +0.023 A 
ATOM     23  C22 UNL     1      15.925   0.636  22.725  0.00  0.00    +0.005 A 
ENDBRANCH  13  21
ENDBRANCH   1  14
BRANCH  12  24
ATOM     24  C15 UNL     1      10.505   4.155  23.355  0.00  0.00    +0.161 C 
BRANCH  24  25
ATOM     25  C16 UNL     1       9.230   3.259  23.476  0.00  0.00    +0.087 C 
ATOM     26  C17 UNL     1       9.472   2.122  24.507  0.00  0.00    +0.059 C 
ATOM     27  C18 UNL     1       9.735   2.596  25.940  0.00  0.00    +0.169 C 
ATOM     28  S1  UNL     1       8.370   3.572  26.517  0.00  0.00    -0.031 S 
ATOM     29  O3  UNL     1       7.174   2.694  26.756  0.00  0.00    -0.174 OA
ATOM     30  O4  UNL     1       8.741   4.278  27.790  0.00  0.00    -0.174 OA
ATOM     31  C19 UNL     1       8.007   4.758  25.246  0.00  0.00    +0.169 C 
ATOM     32  C20 UNL     1       7.960   4.084  23.866  0.00  0.00    +0.059 C 
BRANCH  25  33
ATOM     33  O2  UNL     1       8.993   2.614  22.245  0.00  0.00    -0.387 OA
ATOM     34  H21 UNL     1       8.643   3.277  21.595  0.00  0.00    +0.210 HD
ENDBRANCH  25  33
ENDBRANCH  24  25
ENDBRANCH  12  24
TORSDOF 5
ENDMDL
MODEL 5
REMARK VINA RESULT:    -6.310     13.945     15.799
REMARK INTER + INTRA:          -9.334
REMARK INTER:                  -8.119
REMARK INTRA:                  -1.216
REMARK UNBOUND:                -1.365
REMARK  Name = /home/qwerty/github/datacon2025hack/step_04_hit_selection/docking/ligands/lig_578.pdb
REMARK  8 active torsions:
REMARK  status: ('A' for Active; 'I' for Inactive)
REMARK    1  A    between atoms: C1_1  and  C2_2
REMARK    2  A    between atoms: C5_5  and  N1_6
REMARK    3  A    between atoms: C6_7  and  C7_9
REMARK    4  A    between atoms: C11_16  and  C12_17
REMARK    5  A    between atoms: C13_18  and  C14_19
REMARK    6  A    between atoms: N5_20  and  C15_21
REMARK    7  A    between atoms: C15_21  and  C16_22
REMARK    8  A    between atoms: C16_22  and  O2_23
REMARK                            x       y       z     vdW  Elec       q    Type
REMARK                         _______ _______ _______ _____ _____    ______ ____
ROOT
ATOM      1  C7  UNL     1       8.587   6.797  25.100  0.00  0.00    +0.221 A 
ATOM      2  N2  UNL     1       8.086   5.625  25.543  0.00  0.00    -0.123 NA
ATOM      3  N3  UNL     1       8.577   4.669  24.774  0.00  0.00    -0.113 NA
ATOM      4  C8  UNL     1       9.365   5.269  23.864  0.00  0.00    +0.220 A 
ATOM      5  N4  UNL     1      10.148   4.532  22.915  0.00  0.00    -0.297 N 
ATOM      6  C9  UNL     1       9.483   3.743  21.885  0.00  0.00    +0.108 C 
ATOM      7  C10 UNL     1      10.342   2.503  21.673  0.00  0.00    +0.024 C 
ATOM      8  C11 UNL     1      11.710   2.862  22.248  0.00  0.00    +0.008 C 
ATOM      9  C12 UNL     1      12.445   1.640  22.812  0.00  0.00    +0.009 C 
ATOM     10  C13 UNL     1      11.416   3.926  23.314  0.00  0.00    +0.076 C 
ATOM     11  C14 UNL     1      12.537   4.966  23.404  0.00  0.00    +0.028 C 
ATOM     12  N5  UNL     1       9.398   6.611  24.028  0.00  0.00    -0.289 N 
ENDROOT
BRANCH   1  14
ATOM     13  N1  UNL     1       8.808   8.358  27.069  0.00  0.00    -0.279 N 
ATOM     14  C6  UNL     1       8.277   8.085  25.763  0.00  0.00    +0.286 C 
ATOM     15  O1  UNL     1       7.534   8.931  25.197  0.00  0.00    -0.266 OA
ATOM     16  H6  UNL     1       9.143   7.551  27.644  0.00  0.00    +0.155 HD
BRANCH  13  21
ATOM     17  C1  UNL     1       8.728  13.491  29.667  0.00  0.00    +0.044 C 
ATOM     18  C2  UNL     1       8.734  12.168  28.960  0.00  0.00    -0.050 A 
ATOM     19  C3  UNL     1       9.682  11.901  27.961  0.00  0.00    +0.005 A 
ATOM     20  C4  UNL     1       9.707  10.655  27.327  0.00  0.00    +0.023 A 
ATOM     21  C5  UNL     1       8.784   9.656  27.687  0.00  0.00    +0.034 A 
ATOM     22  C21 UNL     1       7.866   9.913  28.716  0.00  0.00    +0.023 A 
ATOM     23  C22 UNL     1       7.839  11.161  29.346  0.00  0.00    +0.005 A 
ENDBRANCH  13  21
ENDBRANCH   1  14
BRANCH  12  24
ATOM     24  C15 UNL     1      10.127   7.605  23.224  0.00  0.00    +0.161 C 
BRANCH  24  25
ATOM     25  C16 UNL     1       9.250   8.260  22.110  0.00  0.00    +0.087 C 
ATOM     26  C17 UNL     1       9.258   9.807  22.262  0.00  0.00    +0.059 C 
ATOM     27  C18 UNL     1      10.632  10.464  22.093  0.00  0.00    +0.169 C 
ATOM     28  S1  UNL     1      11.300  10.072  20.497  0.00  0.00    -0.031 S 
ATOM     29  O3  UNL     1      10.536  10.799  19.426  0.00  0.00    -0.174 OA
ATOM     30  O4  UNL     1      12.750  10.458  20.435  0.00  0.00    -0.174 OA
ATOM     31  C19 UNL     1      11.127   8.318  20.280  0.00  0.00    +0.169 C 
ATOM     32  C20 UNL     1       9.715   7.855  20.673  0.00  0.00    +0.059 C 
BRANCH  25  33
ATOM     33  O2  UNL     1       7.906   7.867  22.281  0.00  0.00    -0.387 OA
ATOM     34  H21 UNL     1       7.401   8.076  21.452  0.00  0.00    +0.210 HD
ENDBRANCH  25  33
ENDBRANCH  24  25
ENDBRANCH  12  24
TORSDOF 5
ENDMDL
MODEL 6
REMARK VINA RESULT:    -6.292      6.933     10.023
REMARK INTER + INTRA:          -9.312
REMARK INTER:                  -8.007
REMARK INTRA:                  -1.305
REMARK UNBOUND:                -1.365
REMARK  Name = /home/qwerty/github/datacon2025hack/step_04_hit_selection/docking/ligands/lig_578.pdb
REMARK  8 active torsions:
REMARK  status: ('A' for Active; 'I' for Inactive)
REMARK    1  A    between atoms: C1_1  and  C2_2
REMARK    2  A    between atoms: C5_5  and  N1_6
REMARK    3  A    between atoms: C6_7  and  C7_9
REMARK    4  A    between atoms: C11_16  and  C12_17
REMARK    5  A    between atoms: C13_18  and  C14_19
REMARK    6  A    between atoms: N5_20  and  C15_21
REMARK    7  A    between atoms: C15_21  and  C16_22
REMARK    8  A    between atoms: C16_22  and  O2_23
REMARK                            x       y       z     vdW  Elec       q    Type
REMARK                         _______ _______ _______ _____ _____    ______ ____
ROOT
ATOM      1  C7  UNL     1      18.672   9.443  36.694  0.00  0.00    +0.221 A 
ATOM      2  N2  UNL     1      18.046   8.990  37.798  0.00  0.00    -0.123 NA
ATOM      3  N3  UNL     1      16.827   9.502  37.802  0.00  0.00    -0.113 NA
ATOM      4  C8  UNL     1      16.726  10.269  36.702  0.00  0.00    +0.220 A 
ATOM      5  N4  UNL     1      15.503  10.913  36.320  0.00  0.00    -0.297 N 
ATOM      6  C9  UNL     1      14.946  11.966  37.162  0.00  0.00    +0.108 C 
ATOM      7  C10 UNL     1      13.432  11.820  37.084  0.00  0.00    +0.024 C 
ATOM      8  C11 UNL     1      13.174  10.991  35.828  0.00  0.00    +0.008 C 
ATOM      9  C12 UNL     1      11.912  10.127  35.947  0.00  0.00    +0.009 C 
ATOM     10  C13 UNL     1      14.451  10.160  35.642  0.00  0.00    +0.076 C 
ATOM     11  C14 UNL     1      14.776   9.940  34.162  0.00  0.00    +0.028 C 
ATOM     12  N5  UNL     1      17.867  10.267  35.975  0.00  0.00    -0.289 N 
ENDROOT
BRANCH   1  14
ATOM     13  N1  UNL     1      20.322   7.664  36.006  0.00  0.00    -0.279 N 
ATOM     14  C6  UNL     1      20.052   9.033  36.347  0.00  0.00    +0.286 C 
ATOM     15  O1  UNL     1      20.993   9.872  36.372  0.00  0.00    -0.266 OA
ATOM     16  H6  UNL     1      19.626   6.938  36.292  0.00  0.00    +0.155 HD
BRANCH  13  21
ATOM     17  C1  UNL     1      25.265   5.991  33.583  0.00  0.00    +0.044 C 
ATOM     18  C2  UNL     1      23.968   6.392  34.220  0.00  0.00    -0.050 A 
ATOM     19  C3  UNL     1      23.810   6.325  35.613  0.00  0.00    +0.005 A 
ATOM     20  C4  UNL     1      22.612   6.732  36.206  0.00  0.00    +0.023 A 
ATOM     21  C5  UNL     1      21.554   7.214  35.415  0.00  0.00    +0.034 A 
ATOM     22  C21 UNL     1      21.732   7.319  34.028  0.00  0.00    +0.023 A 
ATOM     23  C22 UNL     1      22.929   6.908  33.433  0.00  0.00    +0.005 A 
ENDBRANCH  13  21
ENDBRANCH   1  14
BRANCH  12  24
ATOM     24  C15 UNL     1      18.148  10.994  34.727  0.00  0.00    +0.161 C 
BRANCH  24  25
ATOM     25  C16 UNL     1      18.673  12.446  34.964  0.00  0.00    +0.087 C 
ATOM     26  C17 UNL     1      19.843  12.758  33.990  0.00  0.00    +0.059 C 
ATOM     27  C18 UNL     1      19.468  12.733  32.504  0.00  0.00    +0.169 C 
ATOM     28  S1  UNL     1      18.170  13.899  32.186  0.00  0.00    -0.031 S 
ATOM     29  O3  UNL     1      18.700  15.302  32.290  0.00  0.00    -0.174 OA
ATOM     30  O4  UNL     1      17.599  13.675  30.814  0.00  0.00    -0.174 OA
ATOM     31  C19 UNL     1      16.919  13.630  33.418  0.00  0.00    +0.169 C 
ATOM     32  C20 UNL     1      17.544  13.518  34.816  0.00  0.00    +0.059 C 
BRANCH  25  33
ATOM     33  O2  UNL     1      19.222  12.539  36.260  0.00  0.00    -0.387 OA
ATOM     34  H21 UNL     1      18.580  12.151  36.911  0.00  0.00    +0.210 HD
ENDBRANCH  25  33
ENDBRANCH  24  25
ENDBRANCH  12  24
TORSDOF 5
ENDMDL
MODEL 7
REMARK VINA RESULT:    -6.258     11.323     14.799
REMARK INTER + INTRA:          -9.269
REMARK INTER:                  -7.985
REMARK INTRA:                  -1.284
REMARK UNBOUND:                -1.365
REMARK  Name = /home/qwerty/github/datacon2025hack/step_04_hit_selection/docking/ligands/lig_578.pdb
REMARK  8 active torsions:
REMARK  status: ('A' for Active; 'I' for Inactive)
REMARK    1  A    between atoms: C1_1  and  C2_2
REMARK    2  A    between atoms: C5_5  and  N1_6
REMARK    3  A    between atoms: C6_7  and  C7_9
REMARK    4  A    between atoms: C11_16  and  C12_17
REMARK    5  A    between atoms: C13_18  and  C14_19
REMARK    6  A    between atoms: N5_20  and  C15_21
REMARK    7  A    between atoms: C15_21  and  C16_22
REMARK    8  A    between atoms: C16_22  and  O2_23
REMARK                            x       y       z     vdW  Elec       q    Type
REMARK                         _______ _______ _______ _____ _____    ______ ____
ROOT
ATOM      1  C7  UNL     1      14.046   3.179  20.585  0.00  0.00    +0.221 A 
ATOM      2  N2  UNL     1      12.889   3.508  19.976  0.00  0.00    -0.123 NA
ATOM      3  N3  UNL     1      11.905   2.976  20.680  0.00  0.00    -0.113 NA
ATOM      4  C8  UNL     1      12.474   2.320  21.707  0.00  0.00    +0.220 A 
ATOM      5  N4  UNL     1      11.706   1.694  22.744  0.00  0.00    -0.297 N 
ATOM      6  C9  UNL     1      10.856   0.553  22.427  0.00  0.00    +0.108 C 
ATOM      7  C10 UNL     1       9.623   0.677  23.312  0.00  0.00    +0.024 C 
ATOM      8  C11 UNL     1      10.033   1.623  24.438  0.00  0.00    +0.008 C 
ATOM      9  C12 UNL     1       8.854   2.446  24.969  0.00  0.00    +0.009 C 
ATOM     10  C13 UNL     1      11.143   2.491  23.831  0.00  0.00    +0.076 C 
ATOM     11  C14 UNL     1      12.206   2.865  24.869  0.00  0.00    +0.028 C 
ATOM     12  N5  UNL     1      13.823   2.416  21.686  0.00  0.00    -0.289 N 
ENDROOT
BRANCH   1  14
ATOM     13  N1  UNL     1      15.707   5.037  20.197  0.00  0.00    -0.279 N 
ATOM     14  C6  UNL     1      15.359   3.648  20.085  0.00  0.00    +0.286 C 
ATOM     15  O1  UNL     1      16.162   2.841  19.544  0.00  0.00    -0.266 OA
ATOM     16  H6  UNL     1      14.936   5.728  20.346  0.00  0.00    +0.155 HD
BRANCH  13  21
ATOM     17  C1  UNL     1      21.065   6.959  19.359  0.00  0.00    +0.044 C 
ATOM     18  C2  UNL     1      19.658   6.493  19.583  0.00  0.00    -0.050 A 
ATOM     19  C3  UNL     1      18.683   6.672  18.589  0.00  0.00    +0.005 A 
ATOM     20  C4  UNL     1      17.380   6.205  18.788  0.00  0.00    +0.023 A 
ATOM     21  C5  UNL     1      17.034   5.550  19.983  0.00  0.00    +0.034 A 
ATOM     22  C21 UNL     1      18.021   5.336  20.955  0.00  0.00    +0.023 A 
ATOM     23  C22 UNL     1      19.323   5.806  20.759  0.00  0.00    +0.005 A 
ENDBRANCH  13  21
ENDBRANCH   1  14
BRANCH  12  24
ATOM     24  C15 UNL     1      14.790   1.823  22.624  0.00  0.00    +0.161 C 
BRANCH  24  25
ATOM     25  C16 UNL     1      15.234   0.381  22.220  0.00  0.00    +0.087 C 
ATOM     26  C17 UNL     1      16.767   0.218  22.419  0.00  0.00    +0.059 C 
ATOM     27  C18 UNL     1      17.248   0.368  23.866  0.00  0.00    +0.169 C 
ATOM     28  S1  UNL     1      16.436  -0.822  24.902  0.00  0.00    -0.031 S 
ATOM     29  O3  UNL     1      16.951  -2.201  24.605  0.00  0.00    -0.174 OA
ATOM     30  O4  UNL     1      16.673  -0.494  26.349  0.00  0.00    -0.174 OA
ATOM     31  C19 UNL     1      14.701  -0.730  24.534  0.00  0.00    +0.169 C 
ATOM     32  C20 UNL     1      14.464  -0.723  23.016  0.00  0.00    +0.059 C 
BRANCH  25  33
ATOM     33  O2  UNL     1      15.007   0.190  20.841  0.00  0.00    -0.387 OA
ATOM     34  H21 UNL     1      14.038   0.032  20.693  0.00  0.00    +0.210 HD
ENDBRANCH  25  33
ENDBRANCH  24  25
ENDBRANCH  12  24
TORSDOF 5
ENDMDL
MODEL 8
REMARK VINA RESULT:    -6.148     12.185     15.244
REMARK INTER + INTRA:          -9.130
REMARK INTER:                  -8.092
REMARK INTRA:                  -1.037
REMARK UNBOUND:                -1.365
REMARK  Name = /home/qwerty/github/datacon2025hack/step_04_hit_selection/docking/ligands/lig_578.pdb
REMARK  8 active torsions:
REMARK  status: ('A' for Active; 'I' for Inactive)
REMARK    1  A    between atoms: C1_1  and  C2_2
REMARK    2  A    between atoms: C5_5  and  N1_6
REMARK    3  A    between atoms: C6_7  and  C7_9
REMARK    4  A    between atoms: C11_16  and  C12_17
REMARK    5  A    between atoms: C13_18  and  C14_19
REMARK    6  A    between atoms: N5_20  and  C15_21
REMARK    7  A    between atoms: C15_21  and  C16_22
REMARK    8  A    between atoms: C16_22  and  O2_23
REMARK                            x       y       z     vdW  Elec       q    Type
REMARK                         _______ _______ _______ _____ _____    ______ ____
ROOT
ATOM      1  C7  UNL     1      12.605   4.341  21.275  0.00  0.00    +0.221 A 
ATOM      2  N2  UNL     1      11.894   3.278  20.848  0.00  0.00    -0.123 NA
ATOM      3  N3  UNL     1      12.735   2.267  20.711  0.00  0.00    -0.113 NA
ATOM      4  C8  UNL     1      13.952   2.728  21.050  0.00  0.00    +0.220 A 
ATOM      5  N4  UNL     1      15.107   1.880  21.115  0.00  0.00    -0.297 N 
ATOM      6  C9  UNL     1      15.626   1.268  19.897  0.00  0.00    +0.108 C 
ATOM      7  C10 UNL     1      16.140  -0.109  20.295  0.00  0.00    +0.024 C 
ATOM      8  C11 UNL     1      16.328  -0.045  21.809  0.00  0.00    +0.008 C 
ATOM      9  C12 UNL     1      16.107  -1.403  22.484  0.00  0.00    +0.009 C 
ATOM     10  C13 UNL     1      15.332   1.025  22.278  0.00  0.00    +0.076 C 
ATOM     11  C14 UNL     1      15.872   1.821  23.470  0.00  0.00    +0.028 C 
ATOM     12  N5  UNL     1      13.921   4.031  21.407  0.00  0.00    -0.289 N 
ENDROOT
BRANCH   1  14
ATOM     13  N1  UNL     1      11.486   6.463  20.498  0.00  0.00    -0.279 N 
ATOM     14  C6  UNL     1      11.968   5.644  21.575  0.00  0.00    +0.286 C 
ATOM     15  O1  UNL     1      11.867   6.047  22.765  0.00  0.00    -0.266 OA
ATOM     16  H6  UNL     1      11.851   6.278  19.536  0.00  0.00    +0.155 HD
BRANCH  13  21
ATOM     17  C1  UNL     1       8.067  11.008  21.371  0.00  0.00    +0.044 C 
ATOM     18  C2  UNL     1       8.954   9.828  21.107  0.00  0.00    -0.050 A 
ATOM     19  C3  UNL     1      10.268  10.014  20.651  0.00  0.00    +0.005 A 
ATOM     20  C4  UNL     1      11.103   8.913  20.439  0.00  0.00    +0.023 A 
ATOM     21  C5  UNL     1      10.636   7.609  20.683  0.00  0.00    +0.034 A 
ATOM     22  C21 UNL     1       9.337   7.431  21.179  0.00  0.00    +0.023 A 
ATOM     23  C22 UNL     1       8.500   8.531  21.386  0.00  0.00    +0.005 A 
ENDBRANCH  13  21
ENDBRANCH   1  14
BRANCH  12  24
ATOM     24  C15 UNL     1      15.045   4.887  21.820  0.00  0.00    +0.161 C 
BRANCH  24  25
ATOM     25  C16 UNL     1      15.834   5.491  20.615  0.00  0.00    +0.087 C 
ATOM     26  C17 UNL     1      16.199   6.973  20.904  0.00  0.00    +0.059 C 
ATOM     27  C18 UNL     1      17.127   7.186  22.105  0.00  0.00    +0.169 C 
ATOM     28  S1  UNL     1      18.640   6.290  21.869  0.00  0.00    -0.031 S 
ATOM     29  O3  UNL     1      19.463   6.941  20.794  0.00  0.00    -0.174 OA
ATOM     30  O4  UNL     1      19.423   6.251  23.151  0.00  0.00    -0.174 OA
ATOM     31  C19 UNL     1      18.195   4.642  21.378  0.00  0.00    +0.169 C 
ATOM     32  C20 UNL     1      17.123   4.671  20.278  0.00  0.00    +0.059 C 
BRANCH  25  33
ATOM     33  O2  UNL     1      15.002   5.518  19.477  0.00  0.00    -0.387 OA
ATOM     34  H21 UNL     1      14.548   6.401  19.430  0.00  0.00    +0.210 HD
ENDBRANCH  25  33
ENDBRANCH  24  25
ENDBRANCH  12  24
TORSDOF 5
ENDMDL
MODEL 9
REMARK VINA RESULT:    -6.030     10.056     13.059
REMARK INTER + INTRA:          -8.982
REMARK INTER:                  -7.879
REMARK INTRA:                  -1.102
REMARK UNBOUND:                -1.365
REMARK  Name = /home/qwerty/github/datacon2025hack/step_04_hit_selection/docking/ligands/lig_578.pdb
REMARK  8 active torsions:
REMARK  status: ('A' for Active; 'I' for Inactive)
REMARK    1  A    between atoms: C1_1  and  C2_2
REMARK    2  A    between atoms: C5_5  and  N1_6
REMARK    3  A    between atoms: C6_7  and  C7_9
REMARK    4  A    between atoms: C11_16  and  C12_17
REMARK    5  A    between atoms: C13_18  and  C14_19
REMARK    6  A    between atoms: N5_20  and  C15_21
REMARK    7  A    between atoms: C15_21  and  C16_22
REMARK    8  A    between atoms: C16_22  and  O2_23
REMARK                            x       y       z     vdW  Elec       q    Type
REMARK                         _______ _______ _______ _____ _____    ______ ____
ROOT
ATOM      1  C7  UNL     1      15.036  13.403  31.981  0.00  0.00    +0.221 A 
ATOM      2  N2  UNL     1      16.313  13.772  31.757  0.00  0.00    -0.123 NA
ATOM      3  N3  UNL     1      17.044  13.298  32.751  0.00  0.00    -0.113 NA
ATOM      4  C8  UNL     1      16.202  12.650  33.575  0.00  0.00    +0.220 A 
ATOM      5  N4  UNL     1      16.655  11.917  34.723  0.00  0.00    -0.297 N 
ATOM      6  C9  UNL     1      17.273  12.628  35.836  0.00  0.00    +0.108 C 
ATOM      7  C10 UNL     1      18.361  11.711  36.379  0.00  0.00    +0.024 C 
ATOM      8  C11 UNL     1      18.007  10.319  35.859  0.00  0.00    +0.008 C 
ATOM      9  C12 UNL     1      19.248   9.447  35.632  0.00  0.00    +0.009 C 
ATOM     10  C13 UNL     1      17.214  10.576  34.571  0.00  0.00    +0.076 C 
ATOM     11  C14 UNL     1      16.119   9.527  34.358  0.00  0.00    +0.028 C 
ATOM     12  N5  UNL     1      14.924  12.694  33.134  0.00  0.00    -0.289 N 
ENDROOT
BRANCH   1  14
ATOM     13  N1  UNL     1      13.108  12.684  30.523  0.00  0.00    -0.279 N 
ATOM     14  C6  UNL     1      13.944  13.733  31.036  0.00  0.00    +0.286 C 
ATOM     15  O1  UNL     1      13.759  14.923  30.665  0.00  0.00    -0.266 OA
ATOM     16  H6  UNL     1      13.459  11.700  30.581  0.00  0.00    +0.155 HD
BRANCH  13  21
ATOM     17  C1  UNL     1       8.175  13.730  27.752  0.00  0.00    +0.044 C 
ATOM     18  C2  UNL     1       9.459  13.422  28.464  0.00  0.00    -0.050 A 
ATOM     19  C3  UNL     1      10.645  13.229  27.739  0.00  0.00    +0.005 A 
ATOM     20  C4  UNL     1      11.846  12.976  28.408  0.00  0.00    +0.023 A 
ATOM     21  C5  UNL     1      11.879  12.916  29.813  0.00  0.00    +0.034 A 
ATOM     22  C21 UNL     1      10.700  13.151  30.534  0.00  0.00    +0.023 A 
ATOM     23  C22 UNL     1       9.497  13.400  29.865  0.00  0.00    +0.005 A 
ENDBRANCH  13  21
ENDBRANCH   1  14
BRANCH  12  24
ATOM     24  C15 UNL     1      13.725  12.121  33.766  0.00  0.00    +0.161 C 
BRANCH  24  25
ATOM     25  C16 UNL     1      13.140  13.019  34.903  0.00  0.00    +0.087 C 
ATOM     26  C17 UNL     1      11.587  13.011  34.845  0.00  0.00    +0.059 C 
ATOM     27  C18 UNL     1      10.941  11.641  35.079  0.00  0.00    +0.169 C 
ATOM     28  S1  UNL     1      11.429  11.001  36.659  0.00  0.00    -0.031 S 
ATOM     29  O3  UNL     1      10.768  11.784  37.759  0.00  0.00    -0.174 OA
ATOM     30  O4  UNL     1      11.047   9.552  36.771  0.00  0.00    -0.174 OA
ATOM     31  C19 UNL     1      13.193  11.175  36.766  0.00  0.00    +0.169 C 
ATOM     32  C20 UNL     1      13.632  12.579  36.321  0.00  0.00    +0.059 C 
BRANCH  25  33
ATOM     33  O2  UNL     1      13.522  14.359  34.684  0.00  0.00    -0.387 OA
ATOM     34  H21 UNL     1      13.186  14.650  33.796  0.00  0.00    +0.210 HD
ENDBRANCH  25  33
ENDBRANCH  24  25
ENDBRANCH  12  24
TORSDOF 5
ENDMDL
