REMARK  Name = /home/qwerty/github/datacon2025hack/step_04_hit_selection/docking/ligands/lig_277.pdb
REMARK  8 active torsions:
REMARK  status: ('A' for Active; 'I' for Inactive)
REMARK    1  A    between atoms: C1_1  and  O1_2
REMARK    2  A    between atoms: O1_2  and  C2_3
REMARK    3  A    between atoms: C2_3  and  C3_5
REMARK    4  A    between atoms: C6_8  and  N1_9
REMARK    5  A    between atoms: C10_15  and  O4_16
REMARK    6  A    between atoms: O4_16  and  C11_17
REMARK    7  A    between atoms: C16_22  and  C17_23
REMARK    8  A    between atoms: N3_25  and  C18_26
REMARK                            x       y       z     vdW  Elec       q    Type
REMARK                         _______ _______ _______ _____ _____    ______ ____
ROOT
ATOM      1  N1  UNL     1       2.092  -0.058   0.907  0.00  0.00    -0.269 N 
ATOM      2  C7  UNL     1       2.011   0.187  -0.508  0.00  0.00    +0.307 C 
ATOM      3  O3  UNL     1       2.592  -0.587  -1.316  0.00  0.00    -0.252 OA
ATOM      4  N2  UNL     1       1.302   1.332  -1.011  0.00  0.00    -0.282 N 
ATOM      5  C8  UNL     1       1.241   1.665  -2.422  0.00  0.00    +0.113 C 
ATOM      6  C9  UNL     1       0.469   2.975  -2.500  0.00  0.00    +0.065 C 
ATOM      7  C10 UNL     1      -0.252   3.124  -1.159  0.00  0.00    +0.192 C 
ATOM      8  C21 UNL     1       0.517   2.230  -0.184  0.00  0.00    +0.153 C 
ATOM      9  H6  UNL     1       1.939   0.745   1.557  0.00  0.00    +0.156 HD
ENDROOT
BRANCH   1  13
ATOM     10  C3  UNL     1       3.262  -3.755   2.673  0.00  0.00    +0.059 A 
ATOM     11  C4  UNL     1       2.562  -3.745   1.453  0.00  0.00    +0.017 A 
ATOM     12  C5  UNL     1       2.179  -2.537   0.865  0.00  0.00    +0.024 A 
ATOM     13  C6  UNL     1       2.498  -1.314   1.479  0.00  0.00    +0.035 A 
ATOM     14  C22 UNL     1       3.173  -1.324   2.708  0.00  0.00    +0.024 A 
ATOM     15  C23 UNL     1       3.560  -2.532   3.296  0.00  0.00    +0.017 A 
BRANCH  10  16
ATOM     16  C2  UNL     1       3.672  -5.032   3.298  0.00  0.00    +0.339 C 
ATOM     17  O2  UNL     1       3.386  -6.130   2.745  0.00  0.00    -0.245 OA
BRANCH  16  19
ATOM     18  C1  UNL     1       4.799  -6.211   5.161  0.00  0.00    +0.280 C 
ATOM     19  O1  UNL     1       4.380  -5.021   4.506  0.00  0.00    -0.464 OA
ENDBRANCH  16  19
ENDBRANCH  10  16
ENDBRANCH   1  13
BRANCH   7  20
ATOM     20  O4  UNL     1      -1.601   2.670  -1.298  0.00  0.00    -0.486 OA
BRANCH  20  21
ATOM     21  C11 UNL     1      -2.624   2.839  -0.348  0.00  0.00    +0.133 A 
ATOM     22  C12 UNL     1      -2.416   3.554   0.850  0.00  0.00    +0.046 A 
ATOM     23  C13 UNL     1      -3.467   3.754   1.747  0.00  0.00    +0.004 A 
ATOM     24  C14 UNL     1      -4.736   3.251   1.463  0.00  0.00    +0.001 A 
ATOM     25  C15 UNL     1      -4.955   2.533   0.286  0.00  0.00    +0.017 A 
ATOM     26  C16 UNL     1      -3.903   2.303  -0.616  0.00  0.00    +0.078 A 
BRANCH  26  27
ATOM     27  C17 UNL     1      -4.160   1.513  -1.839  0.00  0.00    +0.248 C 
ATOM     28  O5  UNL     1      -5.245   1.671  -2.464  0.00  0.00    -0.270 OA
ATOM     29  N3  UNL     1      -3.208   0.543  -2.297  0.00  0.00    -0.308 N 
ATOM     30  H16 UNL     1      -2.425   0.257  -1.666  0.00  0.00    +0.149 HD
BRANCH  29  31
ATOM     31  C18 UNL     1      -3.381  -0.140  -3.576  0.00  0.00    +0.073 C 
ATOM     32  C19 UNL     1      -2.097  -0.705  -4.159  0.00  0.00    +0.024 C 
ATOM     33  C20 UNL     1      -2.695   0.573  -4.728  0.00  0.00    +0.024 C 
ENDBRANCH  29  31
ENDBRANCH  26  27
ENDBRANCH  20  21
ENDBRANCH   7  20
TORSDOF 7
