REMARK  Name = /home/qwerty/github/datacon2025hack/step_04_hit_selection/docking/ligands/lig_805.pdb
REMARK  8 active torsions:
REMARK  status: ('A' for Active; 'I' for Inactive)
REMARK    1  A    between atoms: C1_1  and  C2_2
REMARK    2  A    between atoms: C2_2  and  C3_3
REMARK    3  A    between atoms: C2_2  and  N1_10
REMARK    4  A    between atoms: C12_14  and  N2_15
REMARK    5  A    between atoms: N3_18  and  C14_19
REMARK    6  A    between atoms: C14_19  and  C15_20
REMARK    7  A    between atoms: C15_20  and  O2_21
REMARK    8  A    between atoms: C15_20  and  C16_22
REMARK                            x       y       z     vdW  Elec       q    Type
REMARK                         _______ _______ _______ _____ _____    ______ ____
ROOT
ATOM      1  N2  UNL     1      -0.340  -1.204  -1.685  0.00  0.00    -0.288 N 
ATOM      2  C13 UNL     1       0.782  -0.787  -0.895  0.00  0.00    +0.300 C 
ATOM      3  O1  UNL     1       0.675   0.199  -0.114  0.00  0.00    -0.253 OA
ATOM      4  N3  UNL     1       2.024  -1.499  -0.994  0.00  0.00    -0.297 N 
ATOM      5  H16 UNL     1      -0.220  -2.032  -2.311  0.00  0.00    +0.151 HD
ATOM      6  H17 UNL     1       2.066  -2.355  -1.591  0.00  0.00    +0.150 HD
ENDROOT
BRANCH   1  11
ATOM      7  N1  UNL     1      -3.854  -0.522  -0.529  0.00  0.00    -0.293 N 
ATOM      8  C9  UNL     1      -4.324   0.348  -1.616  0.00  0.00    +0.108 C 
ATOM      9  C10 UNL     1      -3.818  -0.143  -2.987  0.00  0.00    +0.021 C 
ATOM     10  C11 UNL     1      -2.425  -0.816  -2.951  0.00  0.00    +0.033 C 
ATOM     11  C12 UNL     1      -1.609  -0.467  -1.692  0.00  0.00    +0.161 C 
ATOM     12  C24 UNL     1      -2.444  -0.804  -0.485  0.00  0.00    +0.236 C 
ATOM     13  O4  UNL     1      -1.915  -1.298   0.548  0.00  0.00    -0.274 OA
BRANCH   7  15
ATOM     14  C1  UNL     1      -5.646  -2.201  -0.241  0.00  0.00    +0.033 C 
ATOM     15  C2  UNL     1      -4.790  -1.122   0.440  0.00  0.00    +0.103 C 
BRANCH  15  16
ATOM     16  C3  UNL     1      -5.588  -0.038   1.150  0.00  0.00    -0.027 A 
ATOM     17  C4  UNL     1      -6.889   0.335   0.750  0.00  0.00    +0.008 A 
ATOM     18  C5  UNL     1      -7.561   1.370   1.407  0.00  0.00    +0.038 A 
ATOM     19  C6  UNL     1      -6.946   2.052   2.459  0.00  0.00    +0.123 A 
ATOM     20  F1  UNL     1      -7.601   3.056   3.093  0.00  0.00    -0.205 F 
ATOM     21  C7  UNL     1      -5.653   1.702   2.854  0.00  0.00    +0.038 A 
ATOM     22  C8  UNL     1      -4.976   0.668   2.201  0.00  0.00    +0.008 A 
ENDBRANCH  15  16
ENDBRANCH   7  15
ENDBRANCH   1  11
BRANCH   4  23
ATOM     23  C14 UNL     1       3.227  -1.109  -0.258  0.00  0.00    +0.141 C 
BRANCH  23  24
ATOM     24  C15 UNL     1       3.969   0.030  -0.985  0.00  0.00    +0.162 C 
BRANCH  24  25
ATOM     25  C16 UNL     1       5.355   0.252  -0.411  0.00  0.00    -0.017 A 
ATOM     26  C17 UNL     1       6.496   0.135  -1.245  0.00  0.00    +0.010 A 
ATOM     27  C18 UNL     1       7.784   0.347  -0.729  0.00  0.00    +0.046 A 
ATOM     28  C19 UNL     1       7.910   0.677   0.618  0.00  0.00    +0.124 A 
ATOM     29  C20 UNL     1       6.822   0.798   1.431  0.00  0.00    -0.002 A 
ATOM     30  C21 UNL     1       5.528   0.593   0.951  0.00  0.00    +0.013 A 
ATOM     31  C22 UNL     1       7.256   1.161   2.806  0.00  0.00    +0.080 C 
ATOM     32  C23 UNL     1       8.798   1.221   2.668  0.00  0.00    +0.234 C 
ATOM     33  O3  UNL     1       9.080   0.920   1.301  0.00  0.00    -0.491 OA
ENDBRANCH  24  25
BRANCH  24  34
ATOM     34  O2  UNL     1       3.231   1.226  -0.965  0.00  0.00    -0.386 OA
ATOM     35  H21 UNL     1       3.089   1.482  -0.017  0.00  0.00    +0.210 HD
ENDBRANCH  24  34
ENDBRANCH  23  24
ENDBRANCH   4  23
TORSDOF 7
