REMARK  Name = /home/qwerty/github/datacon2025hack/step_04_hit_selection/docking/ligands/lig_246.pdb
REMARK  11 active torsions:
REMARK  status: ('A' for Active; 'I' for Inactive)
REMARK    1  A    between atoms: C1_1  and  O1_2
REMARK    2  A    between atoms: O1_2  and  C2_3
REMARK    3  A    between atoms: C5_6  and  C6_7
REMARK    4  A    between atoms: C11_15  and  N4_16
REMARK    5  A    between atoms: C12_17  and  O3_19
REMARK    6  A    between atoms: O3_19  and  C13_20
REMARK    7  A    between atoms: C13_20  and  C14_21
REMARK    8  A    between atoms: C13_20  and  C15_22
REMARK    9  A    between atoms: C13_20  and  C16_23
REMARK   10  A    between atoms: N5_25  and  C18_26
REMARK   11  A    between atoms: C18_26  and  C19_27
REMARK                            x       y       z     vdW  Elec       q    Type
REMARK                         _______ _______ _______ _____ _____    ______ ____
ROOT
ATOM      1  C6  UNL     1      -2.358   0.507  -0.787  0.00  0.00    +0.166 A 
ATOM      2  N1  UNL     1      -1.858   0.414  -2.035  0.00  0.00    -0.128 NA
ATOM      3  N2  UNL     1      -0.765  -0.328  -1.962  0.00  0.00    -0.113 NA
ATOM      4  C7  UNL     1      -0.613  -0.672  -0.668  0.00  0.00    +0.220 A 
ATOM      5  N3  UNL     1       0.429  -1.550  -0.212  0.00  0.00    -0.298 N 
ATOM      6  C8  UNL     1       0.763  -2.731  -1.018  0.00  0.00    +0.108 C 
ATOM      7  C9  UNL     1       1.910  -3.530  -0.388  0.00  0.00    +0.021 C 
ATOM      8  C10 UNL     1       3.108  -2.614  -0.103  0.00  0.00    +0.025 C 
ATOM      9  C11 UNL     1       2.731  -1.321   0.675  0.00  0.00    +0.093 C 
ATOM     10  C17 UNL     1       1.224  -1.216   0.977  0.00  0.00    +0.130 C 
ATOM     11  N5  UNL     1      -1.601  -0.169   0.109  0.00  0.00    -0.289 N 
ENDROOT
BRANCH   1  15
ATOM     12  C2  UNL     1      -5.983   2.644   0.054  0.00  0.00    +0.120 A 
ATOM     13  C3  UNL     1      -5.930   1.715  -0.992  0.00  0.00    +0.046 A 
ATOM     14  C4  UNL     1      -4.749   1.018  -1.265  0.00  0.00    +0.015 A 
ATOM     15  C5  UNL     1      -3.608   1.227  -0.480  0.00  0.00    +0.020 A 
ATOM     16  C24 UNL     1      -3.650   2.171   0.557  0.00  0.00    +0.015 A 
ATOM     17  C25 UNL     1      -4.829   2.873   0.827  0.00  0.00    +0.046 A 
BRANCH  12  19
ATOM     18  C1  UNL     1      -7.370   4.319   1.285  0.00  0.00    +0.277 C 
ATOM     19  O1  UNL     1      -7.190   3.318   0.287  0.00  0.00    -0.495 OA
ENDBRANCH  12  19
ENDBRANCH   1  15
BRANCH   9  20
ATOM     20  N4  UNL     1       3.177  -0.138  -0.072  0.00  0.00    -0.277 N 
ATOM     21  C12 UNL     1       4.546   0.280  -0.098  0.00  0.00    +0.401 C 
ATOM     22  O2  UNL     1       5.406  -0.333   0.591  0.00  0.00    -0.226 OA
ATOM     23  H13 UNL     1       2.484   0.421  -0.621  0.00  0.00    +0.152 HD
BRANCH  21  24
ATOM     24  O3  UNL     1       4.907   1.377  -0.893  0.00  0.00    -0.445 OA
BRANCH  24  25
ATOM     25  C13 UNL     1       6.210   1.976  -0.974  0.00  0.00    +0.107 C 
ATOM     26  C14 UNL     1       6.632   2.532   0.399  0.00  0.00    +0.055 C 
ATOM     27  C15 UNL     1       6.115   3.139  -1.973  0.00  0.00    +0.055 C 
ATOM     28  C16 UNL     1       7.248   0.961  -1.492  0.00  0.00    +0.055 C 
ENDBRANCH  24  25
ENDBRANCH  21  24
ENDBRANCH   9  20
BRANCH  11  29
ATOM     29  C18 UNL     1      -2.006  -0.625   1.445  0.00  0.00    +0.181 C 
BRANCH  29  30
ATOM     30  C19 UNL     1      -2.736  -1.932   1.340  0.00  0.00    +0.061 A 
ATOM     31  C20 UNL     1      -4.129  -1.963   1.174  0.00  0.00    +0.028 A 
ATOM     32  C21 UNL     1      -4.774  -3.194   1.029  0.00  0.00    +0.042 A 
ATOM     33  C22 UNL     1      -4.028  -4.375   1.041  0.00  0.00    +0.141 A 
ATOM     34  F1  UNL     1      -4.644  -5.575   0.899  0.00  0.00    -0.204 F 
ATOM     35  C23 UNL     1      -2.640  -4.305   1.195  0.00  0.00    +0.149 A 
ATOM     36  N6  UNL     1      -2.031  -3.097   1.336  0.00  0.00    -0.255 NA
ENDBRANCH  29  30
ENDBRANCH  11  29
TORSDOF 7
