MODEL 1
REMARK VINA RESULT:    -6.724      0.000      0.000
REMARK INTER + INTRA:          -8.637
REMARK INTER:                  -8.099
REMARK INTRA:                  -0.538
REMARK UNBOUND:                -0.538
REMARK  Name = /home/qwerty/github/datacon2025hack/step_04_hit_selection/docking/ligands/lig_225.pdb
REMARK  4 active torsions:
REMARK  status: ('A' for Active; 'I' for Inactive)
REMARK    1  A    between atoms: C1_2  and  C8_12
REMARK    2  A    between atoms: N1_3  and  C2_4
REMARK    3  A    between atoms: C7_10  and  O2_11
REMARK    4  A    between atoms: C11_15  and  C12_16
REMARK                            x       y       z     vdW  Elec       q    Type
REMARK                         _______ _______ _______ _____ _____    ______ ____
ROOT
ATOM      1  O1  UNL     1      21.508   6.303  32.040  0.00  0.00    -0.266 OA
ATOM      2  C1  UNL     1      21.711   5.086  32.298  0.00  0.00    +0.284 C 
ATOM      3  N1  UNL     1      22.049   4.681  33.634  0.00  0.00    -0.276 N 
ATOM      4  H1  UNL     1      22.508   3.754  33.777  0.00  0.00    +0.155 HD
ENDROOT
BRANCH   3   5
ATOM      5  C2  UNL     1      22.070   5.606  34.731  0.00  0.00    +0.077 A 
ATOM      6  C3  UNL     1      20.855   5.999  35.311  0.00  0.00    +0.047 A 
ATOM      7  C4  UNL     1      20.840   6.871  36.403  0.00  0.00    +0.043 A 
ATOM      8 CL1  UNL     1      19.314   7.340  37.133  0.00  0.00    -0.083 Cl
ATOM      9  C5  UNL     1      22.041   7.364  36.919  0.00  0.00    +0.023 A 
ATOM     10  C6  UNL     1      23.256   7.000  36.333  0.00  0.00    +0.049 A 
ATOM     11  C7  UNL     1      23.281   6.139  35.229  0.00  0.00    +0.138 A 
BRANCH  11  12
ATOM     12  O2  UNL     1      24.512   5.859  34.633  0.00  0.00    -0.505 OA
ATOM     13  H5  UNL     1      24.873   4.917  34.543  0.00  0.00    +0.292 HD
ENDBRANCH  11  12
ENDBRANCH   3   5
BRANCH   2  14
ATOM     14  C8  UNL     1      21.610   4.102  31.208  0.00  0.00    +0.190 A 
ATOM     15  C9  UNL     1      20.732   4.136  30.139  0.00  0.00    +0.055 A 
ATOM     16  C10 UNL     1      21.014   3.019  29.385  0.00  0.00    +0.050 A 
ATOM     17  C11 UNL     1      22.049   2.367  30.038  0.00  0.00    +0.136 A 
ATOM     18  O3  UNL     1      22.378   3.042  31.118  0.00  0.00    -0.450 OA
BRANCH  17  19
ATOM     19  C12 UNL     1      22.716   1.110  29.626  0.00  0.00    +0.017 A 
ATOM     20  C13 UNL     1      24.121   1.045  29.602  0.00  0.00    +0.014 A 
ATOM     21  C14 UNL     1      24.770  -0.132  29.216  0.00  0.00    +0.039 A 
ATOM     22  C15 UNL     1      24.026  -1.255  28.850  0.00  0.00    +0.123 A 
ATOM     23  F1  UNL     1      24.657  -2.396  28.477  0.00  0.00    -0.205 F 
ATOM     24  C16 UNL     1      22.629  -1.204  28.871  0.00  0.00    +0.039 A 
ATOM     25  C17 UNL     1      21.975  -0.030  29.256  0.00  0.00    +0.014 A 
ENDBRANCH  17  19
ENDBRANCH   2  14
TORSDOF 4
ENDMDL
MODEL 2
REMARK VINA RESULT:    -6.411      7.398     11.692
REMARK INTER + INTRA:          -8.261
REMARK INTER:                  -7.698
REMARK INTRA:                  -0.563
REMARK UNBOUND:                -0.538
REMARK  Name = /home/qwerty/github/datacon2025hack/step_04_hit_selection/docking/ligands/lig_225.pdb
REMARK  4 active torsions:
REMARK  status: ('A' for Active; 'I' for Inactive)
REMARK    1  A    between atoms: C1_2  and  C8_12
REMARK    2  A    between atoms: N1_3  and  C2_4
REMARK    3  A    between atoms: C7_10  and  O2_11
REMARK    4  A    between atoms: C11_15  and  C12_16
REMARK                            x       y       z     vdW  Elec       q    Type
REMARK                         _______ _______ _______ _____ _____    ______ ____
ROOT
ATOM      1  O1  UNL     1      20.631  10.027  36.240  0.00  0.00    -0.266 OA
ATOM      2  C1  UNL     1      19.713   9.286  36.684  0.00  0.00    +0.284 C 
ATOM      3  N1  UNL     1      19.897   7.862  36.728  0.00  0.00    -0.276 N 
ATOM      4  H1  UNL     1      19.055   7.248  36.798  0.00  0.00    +0.155 HD
ENDROOT
BRANCH   3   5
ATOM      5  C2  UNL     1      21.140   7.240  36.373  0.00  0.00    +0.077 A 
ATOM      6  C3  UNL     1      21.320   6.781  35.060  0.00  0.00    +0.047 A 
ATOM      7  C4  UNL     1      22.531   6.201  34.670  0.00  0.00    +0.043 A 
ATOM      8 CL1  UNL     1      22.750   5.649  33.020  0.00  0.00    -0.083 Cl
ATOM      9  C5  UNL     1      23.570   6.069  35.595  0.00  0.00    +0.023 A 
ATOM     10  C6  UNL     1      23.393   6.498  36.913  0.00  0.00    +0.049 A 
ATOM     11  C7  UNL     1      22.179   7.066  37.316  0.00  0.00    +0.138 A 
BRANCH  11  12
ATOM     12  O2  UNL     1      22.023   7.417  38.659  0.00  0.00    -0.505 OA
ATOM     13  H5  UNL     1      21.633   6.785  39.347  0.00  0.00    +0.292 HD
ENDBRANCH  11  12
ENDBRANCH   3   5
BRANCH   2  14
ATOM     14  C8  UNL     1      18.457   9.905  37.139  0.00  0.00    +0.190 A 
ATOM     15  C9  UNL     1      17.660   9.486  38.189  0.00  0.00    +0.055 A 
ATOM     16  C10 UNL     1      16.607  10.374  38.238  0.00  0.00    +0.050 A 
ATOM     17  C11 UNL     1      16.825  11.283  37.214  0.00  0.00    +0.136 A 
ATOM     18  O3  UNL     1      17.935  10.973  36.583  0.00  0.00    -0.450 OA
BRANCH  17  19
ATOM     19  C12 UNL     1      15.973  12.439  36.849  0.00  0.00    +0.017 A 
ATOM     20  C13 UNL     1      16.566  13.596  36.314  0.00  0.00    +0.014 A 
ATOM     21  C14 UNL     1      15.781  14.699  35.962  0.00  0.00    +0.039 A 
ATOM     22  C15 UNL     1      14.396  14.658  36.141  0.00  0.00    +0.123 A 
ATOM     23  F1  UNL     1      13.636  15.728  35.799  0.00  0.00    -0.205 F 
ATOM     24  C16 UNL     1      13.795  13.514  36.671  0.00  0.00    +0.039 A 
ATOM     25  C17 UNL     1      14.575  12.409  37.024  0.00  0.00    +0.014 A 
ENDBRANCH  17  19
ENDBRANCH   2  14
TORSDOF 4
ENDMDL
MODEL 3
REMARK VINA RESULT:    -6.380     14.009     16.773
REMARK INTER + INTRA:          -8.223
REMARK INTER:                  -7.639
REMARK INTRA:                  -0.584
REMARK UNBOUND:                -0.538
REMARK  Name = /home/qwerty/github/datacon2025hack/step_04_hit_selection/docking/ligands/lig_225.pdb
REMARK  4 active torsions:
REMARK  status: ('A' for Active; 'I' for Inactive)
REMARK    1  A    between atoms: C1_2  and  C8_12
REMARK    2  A    between atoms: N1_3  and  C2_4
REMARK    3  A    between atoms: C7_10  and  O2_11
REMARK    4  A    between atoms: C11_15  and  C12_16
REMARK                            x       y       z     vdW  Elec       q    Type
REMARK                         _______ _______ _______ _____ _____    ______ ____
ROOT
ATOM      1  O1  UNL     1      14.046   3.418  22.022  0.00  0.00    -0.266 OA
ATOM      2  C1  UNL     1      13.052   2.894  21.450  0.00  0.00    +0.284 C 
ATOM      3  N1  UNL     1      13.137   1.550  20.950  0.00  0.00    -0.276 N 
ATOM      4  H1  UNL     1      12.451   1.238  20.227  0.00  0.00    +0.155 HD
ENDROOT
BRANCH   3   5
ATOM      5  C2  UNL     1      14.292   0.725  21.164  0.00  0.00    +0.077 A 
ATOM      6  C3  UNL     1      14.365  -0.050  22.331  0.00  0.00    +0.047 A 
ATOM      7  C4  UNL     1      15.460  -0.890  22.556  0.00  0.00    +0.043 A 
ATOM      8 CL1  UNL     1      15.531  -1.871  24.009  0.00  0.00    -0.083 Cl
ATOM      9  C5  UNL     1      16.494  -0.956  21.618  0.00  0.00    +0.023 A 
ATOM     10  C6  UNL     1      16.443  -0.168  20.465  0.00  0.00    +0.049 A 
ATOM     11  C7  UNL     1      15.359   0.688  20.238  0.00  0.00    +0.138 A 
BRANCH  11  12
ATOM     12  O2  UNL     1      15.385   1.507  19.108  0.00  0.00    -0.505 OA
ATOM     13  H5  UNL     1      14.674   2.203  18.921  0.00  0.00    +0.292 HD
ENDBRANCH  11  12
ENDBRANCH   3   5
BRANCH   2  14
ATOM     14  C8  UNL     1      11.822   3.687  21.294  0.00  0.00    +0.190 A 
ATOM     15  C9  UNL     1      10.528   3.204  21.225  0.00  0.00    +0.055 A 
ATOM     16  C10 UNL     1       9.720   4.312  21.089  0.00  0.00    +0.050 A 
ATOM     17  C11 UNL     1      10.570   5.407  21.083  0.00  0.00    +0.136 A 
ATOM     18  O3  UNL     1      11.813   4.997  21.208  0.00  0.00    -0.450 OA
BRANCH  17  19
ATOM     19  C12 UNL     1      10.190   6.834  20.959  0.00  0.00    +0.017 A 
ATOM     20  C13 UNL     1      11.058   7.729  20.310  0.00  0.00    +0.014 A 
ATOM     21  C14 UNL     1      10.719   9.080  20.182  0.00  0.00    +0.039 A 
ATOM     22  C15 UNL     1       9.511   9.551  20.701  0.00  0.00    +0.123 A 
ATOM     23  F1  UNL     1       9.183  10.861  20.577  0.00  0.00    -0.205 F 
ATOM     24  C16 UNL     1       8.639   8.671  21.349  0.00  0.00    +0.039 A 
ATOM     25  C17 UNL     1       8.974   7.320  21.479  0.00  0.00    +0.014 A 
ENDBRANCH  17  19
ENDBRANCH   2  14
TORSDOF 4
ENDMDL
MODEL 4
REMARK VINA RESULT:    -6.352     12.606     14.060
REMARK INTER + INTRA:          -8.189
REMARK INTER:                  -7.628
REMARK INTRA:                  -0.561
REMARK UNBOUND:                -0.538
REMARK  Name = /home/qwerty/github/datacon2025hack/step_04_hit_selection/docking/ligands/lig_225.pdb
REMARK  4 active torsions:
REMARK  status: ('A' for Active; 'I' for Inactive)
REMARK    1  A    between atoms: C1_2  and  C8_12
REMARK    2  A    between atoms: N1_3  and  C2_4
REMARK    3  A    between atoms: C7_10  and  O2_11
REMARK    4  A    between atoms: C11_15  and  C12_16
REMARK                            x       y       z     vdW  Elec       q    Type
REMARK                         _______ _______ _______ _____ _____    ______ ____
ROOT
ATOM      1  O1  UNL     1      17.221   7.136  21.386  0.00  0.00    -0.266 OA
ATOM      2  C1  UNL     1      16.806   6.732  20.267  0.00  0.00    +0.284 C 
ATOM      3  N1  UNL     1      16.927   7.574  19.109  0.00  0.00    -0.276 N 
ATOM      4  H1  UNL     1      16.323   7.378  18.279  0.00  0.00    +0.155 HD
ENDROOT
BRANCH   3   5
ATOM      5  C2  UNL     1      17.602   8.839  19.151  0.00  0.00    +0.077 A 
ATOM      6  C3  UNL     1      18.974   8.887  18.861  0.00  0.00    +0.047 A 
ATOM      7  C4  UNL     1      19.656  10.107  18.860  0.00  0.00    +0.043 A 
ATOM      8 CL1  UNL     1      21.368  10.156  18.477  0.00  0.00    -0.083 Cl
ATOM      9  C5  UNL     1      18.972  11.290  19.155  0.00  0.00    +0.023 A 
ATOM     10  C6  UNL     1      17.612  11.251  19.470  0.00  0.00    +0.049 A 
ATOM     11  C7  UNL     1      16.923  10.032  19.490  0.00  0.00    +0.138 A 
BRANCH  11  12
ATOM     12  O2  UNL     1      15.582  10.033  19.879  0.00  0.00    -0.505 OA
ATOM     13  H5  UNL     1      15.051   9.182  20.013  0.00  0.00    +0.292 HD
ENDBRANCH  11  12
ENDBRANCH   3   5
BRANCH   2  14
ATOM     14  C8  UNL     1      16.187   5.399  20.176  0.00  0.00    +0.190 A 
ATOM     15  C9  UNL     1      15.000   5.078  19.544  0.00  0.00    +0.055 A 
ATOM     16  C10 UNL     1      14.838   3.721  19.717  0.00  0.00    +0.050 A 
ATOM     17  C11 UNL     1      15.937   3.294  20.446  0.00  0.00    +0.136 A 
ATOM     18  O3  UNL     1      16.719   4.319  20.700  0.00  0.00    -0.450 OA
BRANCH  17  19
ATOM     19  C12 UNL     1      16.232   1.911  20.892  0.00  0.00    +0.017 A 
ATOM     20  C13 UNL     1      16.537   1.669  22.243  0.00  0.00    +0.014 A 
ATOM     21  C14 UNL     1      16.819   0.373  22.686  0.00  0.00    +0.039 A 
ATOM     22  C15 UNL     1      16.801  -0.694  21.785  0.00  0.00    +0.123 A 
ATOM     23  F1  UNL     1      17.074  -1.951  22.216  0.00  0.00    -0.205 F 
ATOM     24  C16 UNL     1      16.499  -0.466  20.440  0.00  0.00    +0.039 A 
ATOM     25  C17 UNL     1      16.217   0.828  19.992  0.00  0.00    +0.014 A 
ENDBRANCH  17  19
ENDBRANCH   2  14
TORSDOF 4
ENDMDL
MODEL 5
REMARK VINA RESULT:    -6.322      7.640      9.864
REMARK INTER + INTRA:          -8.153
REMARK INTER:                  -7.691
REMARK INTRA:                  -0.462
REMARK UNBOUND:                -0.538
REMARK  Name = /home/qwerty/github/datacon2025hack/step_04_hit_selection/docking/ligands/lig_225.pdb
REMARK  4 active torsions:
REMARK  status: ('A' for Active; 'I' for Inactive)
REMARK    1  A    between atoms: C1_2  and  C8_12
REMARK    2  A    between atoms: N1_3  and  C2_4
REMARK    3  A    between atoms: C7_10  and  O2_11
REMARK    4  A    between atoms: C11_15  and  C12_16
REMARK                            x       y       z     vdW  Elec       q    Type
REMARK                         _______ _______ _______ _____ _____    ______ ____
ROOT
ATOM      1  O1  UNL     1      21.603  11.137  29.995  0.00  0.00    -0.266 OA
ATOM      2  C1  UNL     1      22.795  11.205  30.399  0.00  0.00    +0.284 C 
ATOM      3  N1  UNL     1      23.649  12.266  29.942  0.00  0.00    -0.276 N 
ATOM      4  H1  UNL     1      24.684  12.150  30.025  0.00  0.00    +0.155 HD
ENDROOT
BRANCH   3   5
ATOM      5  C2  UNL     1      23.169  13.329  29.106  0.00  0.00    +0.077 A 
ATOM      6  C3  UNL     1      23.703  13.474  27.818  0.00  0.00    +0.047 A 
ATOM      7  C4  UNL     1      23.234  14.477  26.964  0.00  0.00    +0.043 A 
ATOM      8 CL1  UNL     1      23.896  14.637  25.348  0.00  0.00    -0.083 Cl
ATOM      9  C5  UNL     1      22.230  15.349  27.397  0.00  0.00    +0.023 A 
ATOM     10  C6  UNL     1      21.709  15.229  28.688  0.00  0.00    +0.049 A 
ATOM     11  C7  UNL     1      22.184  14.238  29.555  0.00  0.00    +0.138 A 
BRANCH  11  12
ATOM     12  O2  UNL     1      21.683  14.201  30.858  0.00  0.00    -0.505 OA
ATOM     13  H5  UNL     1      20.708  14.026  31.064  0.00  0.00    +0.292 HD
ENDBRANCH  11  12
ENDBRANCH   3   5
BRANCH   2  14
ATOM     14  C8  UNL     1      23.291  10.177  31.329  0.00  0.00    +0.190 A 
ATOM     15  C9  UNL     1      24.443   9.425  31.194  0.00  0.00    +0.055 A 
ATOM     16  C10 UNL     1      24.491   8.609  32.304  0.00  0.00    +0.050 A 
ATOM     17  C11 UNL     1      23.363   8.913  33.051  0.00  0.00    +0.136 A 
ATOM     18  O3  UNL     1      22.674   9.850  32.441  0.00  0.00    -0.450 OA
BRANCH  17  19
ATOM     19  C12 UNL     1      22.955   8.307  34.340  0.00  0.00    +0.017 A 
ATOM     20  C13 UNL     1      23.641   7.178  34.824  0.00  0.00    +0.014 A 
ATOM     21  C14 UNL     1      23.272   6.590  36.038  0.00  0.00    +0.039 A 
ATOM     22  C15 UNL     1      22.216   7.121  36.781  0.00  0.00    +0.123 A 
ATOM     23  F1  UNL     1      21.859   6.550  37.959  0.00  0.00    -0.205 F 
ATOM     24  C16 UNL     1      21.527   8.243  36.311  0.00  0.00    +0.039 A 
ATOM     25  C17 UNL     1      21.891   8.834  35.098  0.00  0.00    +0.014 A 
ENDBRANCH  17  19
ENDBRANCH   2  14
TORSDOF 4
ENDMDL
MODEL 6
REMARK VINA RESULT:    -6.308      7.694     11.578
REMARK INTER + INTRA:          -8.136
REMARK INTER:                  -7.553
REMARK INTRA:                  -0.583
REMARK UNBOUND:                -0.538
REMARK  Name = /home/qwerty/github/datacon2025hack/step_04_hit_selection/docking/ligands/lig_225.pdb
REMARK  4 active torsions:
REMARK  status: ('A' for Active; 'I' for Inactive)
REMARK    1  A    between atoms: C1_2  and  C8_12
REMARK    2  A    between atoms: N1_3  and  C2_4
REMARK    3  A    between atoms: C7_10  and  O2_11
REMARK    4  A    between atoms: C11_15  and  C12_16
REMARK                            x       y       z     vdW  Elec       q    Type
REMARK                         _______ _______ _______ _____ _____    ______ ____
ROOT
ATOM      1  O1  UNL     1      19.020   8.376  35.821  0.00  0.00    -0.266 OA
ATOM      2  C1  UNL     1      19.508   9.499  36.118  0.00  0.00    +0.284 C 
ATOM      3  N1  UNL     1      20.923   9.639  36.317  0.00  0.00    -0.276 N 
ATOM      4  H1  UNL     1      21.277  10.465  36.850  0.00  0.00    +0.155 HD
ENDROOT
BRANCH   3   5
ATOM      5  C2  UNL     1      21.838   8.557  36.092  0.00  0.00    +0.077 A 
ATOM      6  C3  UNL     1      22.407   8.403  34.819  0.00  0.00    +0.047 A 
ATOM      7  C4  UNL     1      23.328   7.380  34.573  0.00  0.00    +0.043 A 
ATOM      8 CL1  UNL     1      24.048   7.209  32.982  0.00  0.00    -0.083 Cl
ATOM      9  C5  UNL     1      23.680   6.497  35.598  0.00  0.00    +0.023 A 
ATOM     10  C6  UNL     1      23.100   6.625  36.862  0.00  0.00    +0.049 A 
ATOM     11  C7  UNL     1      22.165   7.637  37.114  0.00  0.00    +0.138 A 
BRANCH  11  12
ATOM     12  O2  UNL     1      21.559   7.683  38.371  0.00  0.00    -0.505 OA
ATOM     13  H5  UNL     1      21.346   8.553  38.843  0.00  0.00    +0.292 HD
ENDBRANCH  11  12
ENDBRANCH   3   5
BRANCH   2  14
ATOM     14  C8  UNL     1      18.601  10.650  36.270  0.00  0.00    +0.190 A 
ATOM     15  C9  UNL     1      18.962  11.980  36.381  0.00  0.00    +0.055 A 
ATOM     16  C10 UNL     1      17.782  12.682  36.493  0.00  0.00    +0.050 A 
ATOM     17  C11 UNL     1      16.769  11.736  36.444  0.00  0.00    +0.136 A 
ATOM     18  O3  UNL     1      17.294  10.539  36.310  0.00  0.00    -0.450 OA
BRANCH  17  19
ATOM     19  C12 UNL     1      15.310  11.984  36.524  0.00  0.00    +0.017 A 
ATOM     20  C13 UNL     1      14.436  10.910  36.769  0.00  0.00    +0.014 A 
ATOM     21  C14 UNL     1      13.056  11.121  36.848  0.00  0.00    +0.039 A 
ATOM     22  C15 UNL     1      12.533  12.405  36.684  0.00  0.00    +0.123 A 
ATOM     23  F1  UNL     1      11.195  12.609  36.762  0.00  0.00    -0.205 F 
ATOM     24  C16 UNL     1      13.391  13.481  36.441  0.00  0.00    +0.039 A 
ATOM     25  C17 UNL     1      14.772  13.276  36.361  0.00  0.00    +0.014 A 
ENDBRANCH  17  19
ENDBRANCH   2  14
TORSDOF 4
ENDMDL
MODEL 7
REMARK VINA RESULT:    -6.290      6.755      9.615
REMARK INTER + INTRA:          -8.114
REMARK INTER:                  -7.542
REMARK INTRA:                  -0.573
REMARK UNBOUND:                -0.538
REMARK  Name = /home/qwerty/github/datacon2025hack/step_04_hit_selection/docking/ligands/lig_225.pdb
REMARK  4 active torsions:
REMARK  status: ('A' for Active; 'I' for Inactive)
REMARK    1  A    between atoms: C1_2  and  C8_12
REMARK    2  A    between atoms: N1_3  and  C2_4
REMARK    3  A    between atoms: C7_10  and  O2_11
REMARK    4  A    between atoms: C11_15  and  C12_16
REMARK                            x       y       z     vdW  Elec       q    Type
REMARK                         _______ _______ _______ _____ _____    ______ ____
ROOT
ATOM      1  O1  UNL     1      17.278  10.919  35.273  0.00  0.00    -0.266 OA
ATOM      2  C1  UNL     1      17.208  10.398  36.419  0.00  0.00    +0.284 C 
ATOM      3  N1  UNL     1      16.193  10.825  37.342  0.00  0.00    -0.276 N 
ATOM      4  H1  UNL     1      16.324  10.629  38.359  0.00  0.00    +0.155 HD
ENDROOT
BRANCH   3   5
ATOM      5  C2  UNL     1      15.174  11.767  36.977  0.00  0.00    +0.077 A 
ATOM      6  C3  UNL     1      13.952  11.287  36.482  0.00  0.00    +0.047 A 
ATOM      7  C4  UNL     1      12.925  12.174  36.148  0.00  0.00    +0.043 A 
ATOM      8 CL1  UNL     1      11.394  11.562  35.549  0.00  0.00    -0.083 Cl
ATOM      9  C5  UNL     1      13.115  13.551  36.300  0.00  0.00    +0.023 A 
ATOM     10  C6  UNL     1      14.337  14.041  36.767  0.00  0.00    +0.049 A 
ATOM     11  C7  UNL     1      15.377  13.161  37.089  0.00  0.00    +0.138 A 
BRANCH  11  12
ATOM     12  O2  UNL     1      16.603  13.699  37.485  0.00  0.00    -0.505 OA
ATOM     13  H5  UNL     1      17.429  13.131  37.626  0.00  0.00    +0.292 HD
ENDBRANCH  11  12
ENDBRANCH   3   5
BRANCH   2  14
ATOM     14  C8  UNL     1      18.187   9.364  36.790  0.00  0.00    +0.190 A 
ATOM     15  C9  UNL     1      18.125   8.517  37.882  0.00  0.00    +0.055 A 
ATOM     16  C10 UNL     1      19.250   7.726  37.809  0.00  0.00    +0.050 A 
ATOM     17  C11 UNL     1      19.934   8.137  36.675  0.00  0.00    +0.136 A 
ATOM     18  O3  UNL     1      19.271   9.112  36.094  0.00  0.00    -0.450 OA
BRANCH  17  19
ATOM     19  C12 UNL     1      21.211   7.594  36.155  0.00  0.00    +0.017 A 
ATOM     20  C13 UNL     1      22.149   7.050  37.050  0.00  0.00    +0.014 A 
ATOM     21  C14 UNL     1      23.361   6.533  36.582  0.00  0.00    +0.039 A 
ATOM     22  C15 UNL     1      23.650   6.554  35.216  0.00  0.00    +0.123 A 
ATOM     23  F1  UNL     1      24.826   6.053  34.762  0.00  0.00    -0.205 F 
ATOM     24  C16 UNL     1      22.726   7.093  34.316  0.00  0.00    +0.039 A 
ATOM     25  C17 UNL     1      21.514   7.611  34.779  0.00  0.00    +0.014 A 
ENDBRANCH  17  19
ENDBRANCH   2  14
TORSDOF 4
ENDMDL
MODEL 8
REMARK VINA RESULT:    -6.227      6.863      9.552
REMARK INTER + INTRA:          -8.039
REMARK INTER:                  -7.484
REMARK INTRA:                  -0.555
REMARK UNBOUND:                -0.538
REMARK  Name = /home/qwerty/github/datacon2025hack/step_04_hit_selection/docking/ligands/lig_225.pdb
REMARK  4 active torsions:
REMARK  status: ('A' for Active; 'I' for Inactive)
REMARK    1  A    between atoms: C1_2  and  C8_12
REMARK    2  A    between atoms: N1_3  and  C2_4
REMARK    3  A    between atoms: C7_10  and  O2_11
REMARK    4  A    between atoms: C11_15  and  C12_16
REMARK                            x       y       z     vdW  Elec       q    Type
REMARK                         _______ _______ _______ _____ _____    ______ ____
ROOT
ATOM      1  O1  UNL     1      17.217  10.698  35.093  0.00  0.00    -0.266 OA
ATOM      2  C1  UNL     1      17.575  10.547  36.292  0.00  0.00    +0.284 C 
ATOM      3  N1  UNL     1      16.966  11.333  37.329  0.00  0.00    -0.276 N 
ATOM      4  H1  UNL     1      17.462  11.430  38.243  0.00  0.00    +0.155 HD
ENDROOT
BRANCH   3   5
ATOM      5  C2  UNL     1      15.877  12.230  37.069  0.00  0.00    +0.077 A 
ATOM      6  C3  UNL     1      16.143  13.601  36.937  0.00  0.00    +0.047 A 
ATOM      7  C4  UNL     1      15.111  14.499  36.650  0.00  0.00    +0.043 A 
ATOM      8 CL1  UNL     1      15.460  16.209  36.468  0.00  0.00    -0.083 Cl
ATOM      9  C5  UNL     1      13.802  14.033  36.500  0.00  0.00    +0.023 A 
ATOM     10  C6  UNL     1      13.522  12.673  36.655  0.00  0.00    +0.049 A 
ATOM     11  C7  UNL     1      14.546  11.768  36.958  0.00  0.00    +0.138 A 
BRANCH  11  12
ATOM     12  O2  UNL     1      14.208  10.431  37.173  0.00  0.00    -0.505 OA
ATOM     13  H5  UNL     1      13.671  10.125  37.975  0.00  0.00    +0.292 HD
ENDBRANCH  11  12
ENDBRANCH   3   5
BRANCH   2  14
ATOM     14  C8  UNL     1      18.630   9.567  36.601  0.00  0.00    +0.190 A 
ATOM     15  C9  UNL     1      18.707   8.756  37.718  0.00  0.00    +0.055 A 
ATOM     16  C10 UNL     1      19.855   8.010  37.563  0.00  0.00    +0.050 A 
ATOM     17  C11 UNL     1      20.412   8.412  36.358  0.00  0.00    +0.136 A 
ATOM     18  O3  UNL     1      19.656   9.338  35.814  0.00  0.00    -0.450 OA
BRANCH  17  19
ATOM     19  C12 UNL     1      21.660   7.907  35.738  0.00  0.00    +0.017 A 
ATOM     20  C13 UNL     1      22.383   6.880  36.370  0.00  0.00    +0.014 A 
ATOM     21  C14 UNL     1      23.563   6.389  35.803  0.00  0.00    +0.039 A 
ATOM     22  C15 UNL     1      24.033   6.917  34.599  0.00  0.00    +0.123 A 
ATOM     23  F1  UNL     1      25.178   6.440  34.049  0.00  0.00    -0.205 F 
ATOM     24  C16 UNL     1      23.324   7.938  33.960  0.00  0.00    +0.039 A 
ATOM     25  C17 UNL     1      22.144   8.432  34.524  0.00  0.00    +0.014 A 
ENDBRANCH  17  19
ENDBRANCH   2  14
TORSDOF 4
ENDMDL
MODEL 9
REMARK VINA RESULT:    -5.974      6.812     10.247
REMARK INTER + INTRA:          -7.734
REMARK INTER:                  -7.216
REMARK INTRA:                  -0.518
REMARK UNBOUND:                -0.538
REMARK  Name = /home/qwerty/github/datacon2025hack/step_04_hit_selection/docking/ligands/lig_225.pdb
REMARK  4 active torsions:
REMARK  status: ('A' for Active; 'I' for Inactive)
REMARK    1  A    between atoms: C1_2  and  C8_12
REMARK    2  A    between atoms: N1_3  and  C2_4
REMARK    3  A    between atoms: C7_10  and  O2_11
REMARK    4  A    between atoms: C11_15  and  C12_16
REMARK                            x       y       z     vdW  Elec       q    Type
REMARK                         _______ _______ _______ _____ _____    ______ ____
ROOT
ATOM      1  O1  UNL     1      20.291   1.404  24.114  0.00  0.00    -0.266 OA
ATOM      2  C1  UNL     1      19.816   1.193  25.262  0.00  0.00    +0.284 C 
ATOM      3  N1  UNL     1      18.519   0.592  25.404  0.00  0.00    -0.276 N 
ATOM      4  H1  UNL     1      18.010   0.701  26.310  0.00  0.00    +0.155 HD
ENDROOT
BRANCH   3   5
ATOM      5  C2  UNL     1      17.766   0.122  24.276  0.00  0.00    +0.077 A 
ATOM      6  C3  UNL     1      17.057   1.050  23.498  0.00  0.00    +0.047 A 
ATOM      7  C4  UNL     1      16.341   0.631  22.373  0.00  0.00    +0.043 A 
ATOM      8 CL1  UNL     1      15.476   1.804  21.396  0.00  0.00    -0.083 Cl
ATOM      9  C5  UNL     1      16.322  -0.721  22.021  0.00  0.00    +0.023 A 
ATOM     10  C6  UNL     1      17.003  -1.657  22.804  0.00  0.00    +0.049 A 
ATOM     11  C7  UNL     1      17.710  -1.250  23.942  0.00  0.00    +0.138 A 
BRANCH  11  12
ATOM     12  O2  UNL     1      18.316  -2.228  24.732  0.00  0.00    -0.505 OA
ATOM     13  H5  UNL     1      17.864  -2.633  25.542  0.00  0.00    +0.292 HD
ENDBRANCH  11  12
ENDBRANCH   3   5
BRANCH   2  14
ATOM     14  C8  UNL     1      20.606   1.584  26.441  0.00  0.00    +0.190 A 
ATOM     15  C9  UNL     1      21.844   2.199  26.442  0.00  0.00    +0.055 A 
ATOM     16  C10 UNL     1      22.177   2.373  27.768  0.00  0.00    +0.050 A 
ATOM     17  C11 UNL     1      21.119   1.853  28.499  0.00  0.00    +0.136 A 
ATOM     18  O3  UNL     1      20.203   1.394  27.676  0.00  0.00    -0.450 OA
BRANCH  17  19
ATOM     19  C12 UNL     1      20.992   1.800  29.975  0.00  0.00    +0.017 A 
ATOM     20  C13 UNL     1      21.392   2.906  30.745  0.00  0.00    +0.014 A 
ATOM     21  C14 UNL     1      21.282   2.878  32.139  0.00  0.00    +0.039 A 
ATOM     22  C15 UNL     1      20.772   1.746  32.778  0.00  0.00    +0.123 A 
ATOM     23  F1  UNL     1      20.665   1.720  34.130  0.00  0.00    -0.205 F 
ATOM     24  C16 UNL     1      20.371   0.640  32.023  0.00  0.00    +0.039 A 
ATOM     25  C17 UNL     1      20.479   0.663  30.630  0.00  0.00    +0.014 A 
ENDBRANCH  17  19
ENDBRANCH   2  14
TORSDOF 4
ENDMDL
