MODEL 1
REMARK VINA RESULT:    -5.914      0.000      0.000
REMARK INTER + INTRA:          -9.882
REMARK INTER:                  -7.989
REMARK INTRA:                  -1.893
REMARK UNBOUND:                -1.893
REMARK  Name = /home/qwerty/github/datacon2025hack/step_04_hit_selection/docking/ligands/lig_680.pdb
REMARK  7 active torsions:
REMARK  status: ('A' for Active; 'I' for Inactive)
REMARK    1  A    between atoms: C1_1  and  C2_2
REMARK    2  A    between atoms: C2_2  and  C3_3
REMARK    3  A    between atoms: C2_2  and  N1_9
REMARK    4  A    between atoms: N1_9  and  C9_10
REMARK    5  A    between atoms: C9_10  and  C10_11
REMARK    6  A    between atoms: C11_14  and  C12_16
REMARK    7  A    between atoms: C15_20  and  C16_21
REMARK                            x       y       z     vdW  Elec       q    Type
REMARK                         _______ _______ _______ _____ _____    ______ ____
ROOT
ATOM      1  N1  UNL     1      12.351  12.742  28.628  0.00  0.00    -0.282 N 
ATOM      2  C11 UNL     1      13.162  12.778  29.819  0.00  0.00    +0.253 C 
ATOM      3  O2  UNL     1      14.402  12.570  29.737  0.00  0.00    -0.270 OA
ENDROOT
BRANCH   2   4
ATOM      4  C12 UNL     1      12.562  13.046  31.142  0.00  0.00    +0.107 A 
ATOM      5  C13 UNL     1      12.405  14.366  31.596  0.00  0.00    +0.139 A 
ATOM      6  F1  UNL     1      12.822  15.411  30.837  0.00  0.00    -0.205 F 
ATOM      7  C14 UNL     1      11.849  14.617  32.854  0.00  0.00    +0.051 A 
ATOM      8  C15 UNL     1      11.416  13.558  33.668  0.00  0.00    +0.060 A 
ATOM      9  C17 UNL     1      11.583  12.238  33.215  0.00  0.00    +0.051 A 
ATOM     10  C18 UNL     1      12.136  11.983  31.957  0.00  0.00    +0.139 A 
ATOM     11  F5  UNL     1      12.226  10.700  31.526  0.00  0.00    -0.205 F 
BRANCH   8  12
ATOM     12  C16 UNL     1      10.870  13.829  35.048  0.00  0.00    +0.418 C 
ATOM     13  F2  UNL     1      10.502  12.647  35.670  0.00  0.00    -0.166 F 
ATOM     14  F3  UNL     1      11.843  14.453  35.807  0.00  0.00    -0.166 F 
ATOM     15  F4  UNL     1       9.756  14.647  34.981  0.00  0.00    -0.166 F 
ENDBRANCH   8  12
ENDBRANCH   2   4
BRANCH   1  17
ATOM     16  C1  UNL     1      11.220  10.901  27.413  0.00  0.00    +0.033 C 
ATOM     17  C2  UNL     1      11.155  11.873  28.600  0.00  0.00    +0.104 C 
BRANCH  17  18
ATOM     18  C3  UNL     1       9.867  12.684  28.654  0.00  0.00    -0.027 A 
ATOM     19  C4  UNL     1       9.229  13.042  27.453  0.00  0.00    +0.005 A 
ATOM     20  C5  UNL     1       8.026  13.753  27.466  0.00  0.00    +0.000 A 
ATOM     21  C6  UNL     1       7.445  14.120  28.680  0.00  0.00    +0.000 A 
ATOM     22  C7  UNL     1       8.066  13.780  29.882  0.00  0.00    +0.000 A 
ATOM     23  C8  UNL     1       9.269  13.068  29.874  0.00  0.00    +0.005 A 
ENDBRANCH  17  18
ENDBRANCH   1  17
BRANCH   1  24
ATOM     24  C9  UNL     1      12.881  13.360  27.402  0.00  0.00    +0.204 C 
BRANCH  24  25
ATOM     25  C10 UNL     1      13.067  14.831  27.610  0.00  0.00    +0.228 C 
ATOM     26  N2  UNL     1      11.942  15.676  27.852  0.00  0.00    -0.328 N 
ATOM     27  O1  UNL     1      14.220  15.335  27.527  0.00  0.00    -0.274 OA
ATOM     28  H12 UNL     1      10.978  15.280  27.893  0.00  0.00    +0.145 HD
ATOM     29  H13 UNL     1      12.074  16.704  27.980  0.00  0.00    +0.145 HD
ENDBRANCH  24  25
ENDBRANCH   1  24
TORSDOF 6
ENDMDL
MODEL 2
REMARK VINA RESULT:    -5.866      0.091      2.003
REMARK INTER + INTRA:          -9.818
REMARK INTER:                  -7.975
REMARK INTRA:                  -1.843
REMARK UNBOUND:                -1.893
REMARK  Name = /home/qwerty/github/datacon2025hack/step_04_hit_selection/docking/ligands/lig_680.pdb
REMARK  7 active torsions:
REMARK  status: ('A' for Active; 'I' for Inactive)
REMARK    1  A    between atoms: C1_1  and  C2_2
REMARK    2  A    between atoms: C2_2  and  C3_3
REMARK    3  A    between atoms: C2_2  and  N1_9
REMARK    4  A    between atoms: N1_9  and  C9_10
REMARK    5  A    between atoms: C9_10  and  C10_11
REMARK    6  A    between atoms: C11_14  and  C12_16
REMARK    7  A    between atoms: C15_20  and  C16_21
REMARK                            x       y       z     vdW  Elec       q    Type
REMARK                         _______ _______ _______ _____ _____    ______ ____
ROOT
ATOM      1  N1  UNL     1      12.337  12.718  28.574  0.00  0.00    -0.282 N 
ATOM      2  C11 UNL     1      13.170  12.778  29.748  0.00  0.00    +0.253 C 
ATOM      3  O2  UNL     1      14.412  12.590  29.642  0.00  0.00    -0.270 OA
ENDROOT
BRANCH   2   4
ATOM      4  C12 UNL     1      12.593  13.049  31.080  0.00  0.00    +0.107 A 
ATOM      5  C13 UNL     1      12.177  11.988  31.902  0.00  0.00    +0.139 A 
ATOM      6  F1  UNL     1      12.279  10.703  31.475  0.00  0.00    -0.205 F 
ATOM      7  C14 UNL     1      11.620  12.246  33.157  0.00  0.00    +0.051 A 
ATOM      8  C15 UNL     1      11.492  13.564  33.625  0.00  0.00    +0.060 A 
ATOM      9  C17 UNL     1      11.901  14.623  32.798  0.00  0.00    +0.051 A 
ATOM     10  C18 UNL     1      12.462  14.369  31.543  0.00  0.00    +0.139 A 
ATOM     11  F5  UNL     1      12.901  15.412  30.795  0.00  0.00    -0.205 F 
BRANCH   8  12
ATOM     12  C16 UNL     1      10.838  13.842  34.956  0.00  0.00    +0.418 C 
ATOM     13  F2  UNL     1       9.727  14.653  34.795  0.00  0.00    -0.166 F 
ATOM     14  F3  UNL     1      10.444  12.646  35.527  0.00  0.00    -0.166 F 
ATOM     15  F4  UNL     1      11.720  14.481  35.810  0.00  0.00    -0.166 F 
ENDBRANCH   8  12
ENDBRANCH   2   4
BRANCH   1  17
ATOM     16  C1  UNL     1      11.237  10.815  27.428  0.00  0.00    +0.033 C 
ATOM     17  C2  UNL     1      11.154  11.830  28.577  0.00  0.00    +0.104 C 
BRANCH  17  18
ATOM     18  C3  UNL     1       9.854  12.622  28.600  0.00  0.00    -0.027 A 
ATOM     19  C4  UNL     1       9.291  12.981  29.838  0.00  0.00    +0.005 A 
ATOM     20  C5  UNL     1       8.119  13.741  29.897  0.00  0.00    +0.000 A 
ATOM     21  C6  UNL     1       7.492  14.151  28.720  0.00  0.00    +0.000 A 
ATOM     22  C7  UNL     1       8.033  13.799  27.483  0.00  0.00    +0.000 A 
ATOM     23  C8  UNL     1       9.204  13.039  27.418  0.00  0.00    +0.005 A 
ENDBRANCH  17  18
ENDBRANCH   1  17
BRANCH   1  24
ATOM     24  C9  UNL     1      12.832  13.332  27.332  0.00  0.00    +0.204 C 
BRANCH  24  25
ATOM     25  C10 UNL     1      13.063  14.797  27.542  0.00  0.00    +0.228 C 
ATOM     26  N2  UNL     1      11.971  15.667  27.835  0.00  0.00    -0.328 N 
ATOM     27  O1  UNL     1      14.224  15.273  27.417  0.00  0.00    -0.274 OA
ATOM     28  H12 UNL     1      10.999  15.295  27.913  0.00  0.00    +0.145 HD
ATOM     29  H13 UNL     1      12.133  16.691  27.965  0.00  0.00    +0.145 HD
ENDBRANCH  24  25
ENDBRANCH   1  24
TORSDOF 6
ENDMDL
MODEL 3
REMARK VINA RESULT:    -5.862      5.478      8.388
REMARK INTER + INTRA:          -9.812
REMARK INTER:                  -7.970
REMARK INTRA:                  -1.842
REMARK UNBOUND:                -1.893
REMARK  Name = /home/qwerty/github/datacon2025hack/step_04_hit_selection/docking/ligands/lig_680.pdb
REMARK  7 active torsions:
REMARK  status: ('A' for Active; 'I' for Inactive)
REMARK    1  A    between atoms: C1_1  and  C2_2
REMARK    2  A    between atoms: C2_2  and  C3_3
REMARK    3  A    between atoms: C2_2  and  N1_9
REMARK    4  A    between atoms: N1_9  and  C9_10
REMARK    5  A    between atoms: C9_10  and  C10_11
REMARK    6  A    between atoms: C11_14  and  C12_16
REMARK    7  A    between atoms: C15_20  and  C16_21
REMARK                            x       y       z     vdW  Elec       q    Type
REMARK                         _______ _______ _______ _____ _____    ______ ____
ROOT
ATOM      1  N1  UNL     1       9.285   9.450  28.864  0.00  0.00    -0.282 N 
ATOM      2  C11 UNL     1       9.381   8.562  27.733  0.00  0.00    +0.253 C 
ATOM      3  O2  UNL     1       9.710   7.358  27.910  0.00  0.00    -0.270 OA
ENDROOT
BRANCH   2   4
ATOM      4  C12 UNL     1       9.110   9.041  26.362  0.00  0.00    +0.107 A 
ATOM      5  C13 UNL     1       7.798   9.051  25.860  0.00  0.00    +0.139 A 
ATOM      6  F1  UNL     1       6.766   8.600  26.617  0.00  0.00    -0.205 F 
ATOM      7  C14 UNL     1       7.545   9.492  24.558  0.00  0.00    +0.051 A 
ATOM      8  C15 UNL     1       8.592   9.956  23.745  0.00  0.00    +0.060 A 
ATOM      9  C17 UNL     1       9.904   9.937  24.246  0.00  0.00    +0.051 A 
ATOM     10  C18 UNL     1      10.161   9.499  25.548  0.00  0.00    +0.139 A 
ATOM     11  F5  UNL     1      11.431   9.550  26.021  0.00  0.00    -0.205 F 
BRANCH   8  12
ATOM     12  C16 UNL     1       8.324  10.378  22.321  0.00  0.00    +0.418 C 
ATOM     13  F2  UNL     1       7.744   9.344  21.605  0.00  0.00    -0.166 F 
ATOM     14  F3  UNL     1       7.465  11.462  22.323  0.00  0.00    -0.166 F 
ATOM     15  F4  UNL     1       9.501  10.736  21.687  0.00  0.00    -0.166 F 
ENDBRANCH   8  12
ENDBRANCH   2   4
BRANCH   1  17
ATOM     16  C1  UNL     1      10.957  10.840  30.054  0.00  0.00    +0.033 C 
ATOM     17  C2  UNL     1      10.027  10.729  28.838  0.00  0.00    +0.104 C 
BRANCH  17  18
ATOM     18  C3  UNL     1       9.091  11.920  28.675  0.00  0.00    -0.027 A 
ATOM     19  C4  UNL     1       8.553  12.532  29.821  0.00  0.00    +0.005 A 
ATOM     20  C5  UNL     1       7.722  13.650  29.710  0.00  0.00    +0.000 A 
ATOM     21  C6  UNL     1       7.414  14.171  28.453  0.00  0.00    +0.000 A 
ATOM     22  C7  UNL     1       7.933  13.573  27.304  0.00  0.00    +0.000 A 
ATOM     23  C8  UNL     1       8.765  12.454  27.410  0.00  0.00    +0.005 A 
ENDBRANCH  17  18
ENDBRANCH   1  17
BRANCH   1  24
ATOM     24  C9  UNL     1       8.673   8.941  30.102  0.00  0.00    +0.204 C 
BRANCH  24  25
ATOM     25  C10 UNL     1       7.233   8.608  29.861  0.00  0.00    +0.228 C 
ATOM     26  N2  UNL     1       6.328   9.606  29.391  0.00  0.00    -0.328 N 
ATOM     27  O1  UNL     1       6.807   7.450  30.117  0.00  0.00    -0.274 OA
ATOM     28  H12 UNL     1       6.657  10.579  29.203  0.00  0.00    +0.145 HD
ATOM     29  H13 UNL     1       5.320   9.375  29.239  0.00  0.00    +0.145 HD
ENDBRANCH  24  25
ENDBRANCH   1  24
TORSDOF 6
ENDMDL
MODEL 4
REMARK VINA RESULT:    -5.859     13.971     16.725
REMARK INTER + INTRA:          -9.808
REMARK INTER:                  -8.547
REMARK INTRA:                  -1.260
REMARK UNBOUND:                -1.893
REMARK  Name = /home/qwerty/github/datacon2025hack/step_04_hit_selection/docking/ligands/lig_680.pdb
REMARK  7 active torsions:
REMARK  status: ('A' for Active; 'I' for Inactive)
REMARK    1  A    between atoms: C1_1  and  C2_2
REMARK    2  A    between atoms: C2_2  and  C3_3
REMARK    3  A    between atoms: C2_2  and  N1_9
REMARK    4  A    between atoms: N1_9  and  C9_10
REMARK    5  A    between atoms: C9_10  and  C10_11
REMARK    6  A    between atoms: C11_14  and  C12_16
REMARK    7  A    between atoms: C15_20  and  C16_21
REMARK                            x       y       z     vdW  Elec       q    Type
REMARK                         _______ _______ _______ _____ _____    ______ ____
ROOT
ATOM      1  N1  UNL     1      20.502   2.747  28.295  0.00  0.00    -0.282 N 
ATOM      2  C11 UNL     1      19.325   2.759  27.464  0.00  0.00    +0.253 C 
ATOM      3  O2  UNL     1      18.674   3.829  27.317  0.00  0.00    -0.270 OA
ENDROOT
BRANCH   2   4
ATOM      4  C12 UNL     1      18.858   1.533  26.785  0.00  0.00    +0.107 A 
ATOM      5  C13 UNL     1      17.618   0.965  27.120  0.00  0.00    +0.139 A 
ATOM      6  F1  UNL     1      16.842   1.520  28.086  0.00  0.00    -0.205 F 
ATOM      7  C14 UNL     1      17.183  -0.202  26.486  0.00  0.00    +0.051 A 
ATOM      8  C15 UNL     1      17.965  -0.808  25.489  0.00  0.00    +0.060 A 
ATOM      9  C17 UNL     1      19.209  -0.242  25.162  0.00  0.00    +0.051 A 
ATOM     10  C18 UNL     1      19.646   0.926  25.792  0.00  0.00    +0.139 A 
ATOM     11  F5  UNL     1      20.824   1.479  25.410  0.00  0.00    -0.205 F 
BRANCH   8  12
ATOM     12  C16 UNL     1      17.520  -2.098  24.847  0.00  0.00    +0.418 C 
ATOM     13  F2  UNL     1      17.411  -1.950  23.474  0.00  0.00    -0.166 F 
ATOM     14  F3  UNL     1      18.449  -3.085  25.121  0.00  0.00    -0.166 F 
ATOM     15  F4  UNL     1      16.287  -2.489  25.339  0.00  0.00    -0.166 F 
ENDBRANCH   8  12
ENDBRANCH   2   4
BRANCH   1  17
ATOM     16  C1  UNL     1      20.424   2.406  30.749  0.00  0.00    +0.033 C 
ATOM     17  C2  UNL     1      20.608   1.744  29.376  0.00  0.00    +0.104 C 
BRANCH  17  18
ATOM     18  C3  UNL     1      21.887   0.924  29.261  0.00  0.00    -0.027 A 
ATOM     19  C4  UNL     1      21.814  -0.398  28.784  0.00  0.00    +0.005 A 
ATOM     20  C5  UNL     1      22.971  -1.166  28.629  0.00  0.00    +0.000 A 
ATOM     21  C6  UNL     1      24.217  -0.626  28.950  0.00  0.00    +0.000 A 
ATOM     22  C7  UNL     1      24.308   0.681  29.430  0.00  0.00    +0.000 A 
ATOM     23  C8  UNL     1      23.154   1.454  29.587  0.00  0.00    +0.005 A 
ENDBRANCH  17  18
ENDBRANCH   1  17
BRANCH   1  24
ATOM     24  C9  UNL     1      21.428   3.888  28.212  0.00  0.00    +0.204 C 
BRANCH  24  25
ATOM     25  C10 UNL     1      21.996   3.987  26.830  0.00  0.00    +0.228 C 
ATOM     26  N2  UNL     1      22.938   3.021  26.365  0.00  0.00    -0.328 N 
ATOM     27  O1  UNL     1      21.675   4.953  26.088  0.00  0.00    -0.274 OA
ATOM     28  H12 UNL     1      23.239   2.231  26.978  0.00  0.00    +0.145 HD
ATOM     29  H13 UNL     1      23.345   3.101  25.406  0.00  0.00    +0.145 HD
ENDBRANCH  24  25
ENDBRANCH   1  24
TORSDOF 6
ENDMDL
MODEL 5
REMARK VINA RESULT:    -5.837     12.276     14.851
REMARK INTER + INTRA:          -9.778
REMARK INTER:                  -8.024
REMARK INTRA:                  -1.753
REMARK UNBOUND:                -1.893
REMARK  Name = /home/qwerty/github/datacon2025hack/step_04_hit_selection/docking/ligands/lig_680.pdb
REMARK  7 active torsions:
REMARK  status: ('A' for Active; 'I' for Inactive)
REMARK    1  A    between atoms: C1_1  and  C2_2
REMARK    2  A    between atoms: C2_2  and  C3_3
REMARK    3  A    between atoms: C2_2  and  N1_9
REMARK    4  A    between atoms: N1_9  and  C9_10
REMARK    5  A    between atoms: C9_10  and  C10_11
REMARK    6  A    between atoms: C11_14  and  C12_16
REMARK    7  A    between atoms: C15_20  and  C16_21
REMARK                            x       y       z     vdW  Elec       q    Type
REMARK                         _______ _______ _______ _____ _____    ______ ____
ROOT
ATOM      1  N1  UNL     1      22.533  15.110  22.262  0.00  0.00    -0.282 N 
ATOM      2  C11 UNL     1      21.106  15.029  22.444  0.00  0.00    +0.253 C 
ATOM      3  O2  UNL     1      20.535  15.804  23.258  0.00  0.00    -0.270 OA
ENDROOT
BRANCH   2   4
ATOM      4  C12 UNL     1      20.296  14.044  21.698  0.00  0.00    +0.107 A 
ATOM      5  C13 UNL     1      19.860  12.865  22.324  0.00  0.00    +0.139 A 
ATOM      6  F1  UNL     1      20.194  12.603  23.613  0.00  0.00    -0.205 F 
ATOM      7  C14 UNL     1      19.105  11.928  21.613  0.00  0.00    +0.051 A 
ATOM      8  C15 UNL     1      18.749  12.163  20.275  0.00  0.00    +0.060 A 
ATOM      9  C17 UNL     1      19.194  13.340  19.649  0.00  0.00    +0.051 A 
ATOM     10  C18 UNL     1      19.948  14.280  20.357  0.00  0.00    +0.139 A 
ATOM     11  F5  UNL     1      20.309  15.433  19.740  0.00  0.00    -0.205 F 
BRANCH   8  12
ATOM     12  C16 UNL     1      17.983  11.125  19.494  0.00  0.00    +0.418 C 
ATOM     13  F2  UNL     1      18.840  10.374  18.707  0.00  0.00    -0.166 F 
ATOM     14  F3  UNL     1      17.329  10.285  20.376  0.00  0.00    -0.166 F 
ATOM     15  F4  UNL     1      17.051  11.725  18.666  0.00  0.00    -0.166 F 
ENDBRANCH   8  12
ENDBRANCH   2   4
BRANCH   1  17
ATOM     16  C1  UNL     1      24.772  14.226  22.856  0.00  0.00    +0.033 C 
ATOM     17  C2  UNL     1      23.346  13.882  22.403  0.00  0.00    +0.104 C 
BRANCH  17  18
ATOM     18  C3  UNL     1      23.295  13.026  21.144  0.00  0.00    -0.027 A 
ATOM     19  C4  UNL     1      22.999  11.655  21.258  0.00  0.00    +0.005 A 
ATOM     20  C5  UNL     1      22.907  10.848  20.121  0.00  0.00    +0.000 A 
ATOM     21  C6  UNL     1      23.110  11.397  18.855  0.00  0.00    +0.000 A 
ATOM     22  C7  UNL     1      23.410  12.753  18.723  0.00  0.00    +0.000 A 
ATOM     23  C8  UNL     1      23.504  13.565  19.857  0.00  0.00    +0.005 A 
ENDBRANCH  17  18
ENDBRANCH   1  17
BRANCH   1  24
ATOM     24  C9  UNL     1      23.156  16.442  22.207  0.00  0.00    +0.204 C 
BRANCH  24  25
ATOM     25  C10 UNL     1      23.574  16.753  20.802  0.00  0.00    +0.228 C 
ATOM     26  N2  UNL     1      22.598  17.056  19.807  0.00  0.00    -0.328 N 
ATOM     27  O1  UNL     1      24.793  16.704  20.487  0.00  0.00    -0.274 OA
ATOM     28  H12 UNL     1      21.581  17.071  20.045  0.00  0.00    +0.145 HD
ATOM     29  H13 UNL     1      22.891  17.257  18.825  0.00  0.00    +0.145 HD
ENDBRANCH  24  25
ENDBRANCH   1  24
TORSDOF 6
ENDMDL
MODEL 6
REMARK VINA RESULT:    -5.735     13.414     14.761
REMARK INTER + INTRA:          -9.641
REMARK INTER:                  -8.129
REMARK INTRA:                  -1.511
REMARK UNBOUND:                -1.893
REMARK  Name = /home/qwerty/github/datacon2025hack/step_04_hit_selection/docking/ligands/lig_680.pdb
REMARK  7 active torsions:
REMARK  status: ('A' for Active; 'I' for Inactive)
REMARK    1  A    between atoms: C1_1  and  C2_2
REMARK    2  A    between atoms: C2_2  and  C3_3
REMARK    3  A    between atoms: C2_2  and  N1_9
REMARK    4  A    between atoms: N1_9  and  C9_10
REMARK    5  A    between atoms: C9_10  and  C10_11
REMARK    6  A    between atoms: C11_14  and  C12_16
REMARK    7  A    between atoms: C15_20  and  C16_21
REMARK                            x       y       z     vdW  Elec       q    Type
REMARK                         _______ _______ _______ _____ _____    ______ ____
ROOT
ATOM      1  N1  UNL     1      20.110   1.715  30.366  0.00  0.00    -0.282 N 
ATOM      2  C11 UNL     1      19.741   3.108  30.393  0.00  0.00    +0.253 C 
ATOM      3  O2  UNL     1      18.591   3.457  30.011  0.00  0.00    -0.270 OA
ENDROOT
BRANCH   2   4
ATOM      4  C12 UNL     1      20.692   4.141  30.852  0.00  0.00    +0.107 A 
ATOM      5  C13 UNL     1      21.177   5.107  29.955  0.00  0.00    +0.139 A 
ATOM      6  F1  UNL     1      20.798   5.093  28.652  0.00  0.00    -0.205 F 
ATOM      7  C14 UNL     1      22.087   6.076  30.388  0.00  0.00    +0.051 A 
ATOM      8  C15 UNL     1      22.508   6.114  31.727  0.00  0.00    +0.060 A 
ATOM      9  C17 UNL     1      22.027   5.141  32.620  0.00  0.00    +0.051 A 
ATOM     10  C18 UNL     1      21.116   4.172  32.192  0.00  0.00    +0.139 A 
ATOM     11  F5  UNL     1      20.626   3.285  33.093  0.00  0.00    -0.205 F 
BRANCH   8  12
ATOM     12  C16 UNL     1      23.533   7.125  32.178  0.00  0.00    +0.418 C 
ATOM     13  F2  UNL     1      23.149   7.713  33.371  0.00  0.00    -0.166 F 
ATOM     14  F3  UNL     1      24.747   6.489  32.360  0.00  0.00    -0.166 F 
ATOM     15  F4  UNL     1      23.684   8.123  31.232  0.00  0.00    -0.166 F 
ENDBRANCH   8  12
ENDBRANCH   2   4
BRANCH   1  17
ATOM     16  C1  UNL     1      22.586   1.749  30.470  0.00  0.00    +0.033 C 
ATOM     17  C2  UNL     1      21.351   1.314  29.670  0.00  0.00    +0.104 C 
BRANCH  17  18
ATOM     18  C3  UNL     1      21.364   1.789  28.222  0.00  0.00    -0.027 A 
ATOM     19  C4  UNL     1      22.472   2.513  27.747  0.00  0.00    +0.005 A 
ATOM     20  C5  UNL     1      22.534   2.931  26.415  0.00  0.00    +0.000 A 
ATOM     21  C6  UNL     1      21.489   2.634  25.539  0.00  0.00    +0.000 A 
ATOM     22  C7  UNL     1      20.379   1.922  25.994  0.00  0.00    +0.000 A 
ATOM     23  C8  UNL     1      20.312   1.501  27.326  0.00  0.00    +0.005 A 
ENDBRANCH  17  18
ENDBRANCH   1  17
BRANCH   1  24
ATOM     24  C9  UNL     1      19.116   0.720  30.799  0.00  0.00    +0.204 C 
BRANCH  24  25
ATOM     25  C10 UNL     1      19.175   0.550  32.286  0.00  0.00    +0.228 C 
ATOM     26  N2  UNL     1      20.310  -0.060  32.899  0.00  0.00    -0.328 N 
ATOM     27  O1  UNL     1      18.198   0.908  32.996  0.00  0.00    -0.274 OA
ATOM     28  H12 UNL     1      21.115  -0.389  32.323  0.00  0.00    +0.145 HD
ATOM     29  H13 UNL     1      20.342  -0.191  33.935  0.00  0.00    +0.145 HD
ENDBRANCH  24  25
ENDBRANCH   1  24
TORSDOF 6
ENDMDL
MODEL 7
REMARK VINA RESULT:    -5.689      1.965      3.057
REMARK INTER + INTRA:          -9.578
REMARK INTER:                  -8.098
REMARK INTRA:                  -1.480
REMARK UNBOUND:                -1.893
REMARK  Name = /home/qwerty/github/datacon2025hack/step_04_hit_selection/docking/ligands/lig_680.pdb
REMARK  7 active torsions:
REMARK  status: ('A' for Active; 'I' for Inactive)
REMARK    1  A    between atoms: C1_1  and  C2_2
REMARK    2  A    between atoms: C2_2  and  C3_3
REMARK    3  A    between atoms: C2_2  and  N1_9
REMARK    4  A    between atoms: N1_9  and  C9_10
REMARK    5  A    between atoms: C9_10  and  C10_11
REMARK    6  A    between atoms: C11_14  and  C12_16
REMARK    7  A    between atoms: C15_20  and  C16_21
REMARK                            x       y       z     vdW  Elec       q    Type
REMARK                         _______ _______ _______ _____ _____    ______ ____
ROOT
ATOM      1  N1  UNL     1      10.950  12.723  28.233  0.00  0.00    -0.282 N 
ATOM      2  C11 UNL     1      11.682  11.761  29.017  0.00  0.00    +0.253 C 
ATOM      3  O2  UNL     1      12.378  10.883  28.437  0.00  0.00    -0.270 OA
ENDROOT
BRANCH   2   4
ATOM      4  C12 UNL     1      11.626  11.777  30.492  0.00  0.00    +0.107 A 
ATOM      5  C13 UNL     1      11.021  10.718  31.191  0.00  0.00    +0.139 A 
ATOM      6  F1  UNL     1      10.462   9.679  30.520  0.00  0.00    -0.205 F 
ATOM      7  C14 UNL     1      10.957  10.741  32.587  0.00  0.00    +0.051 A 
ATOM      8  C15 UNL     1      11.518  11.806  33.311  0.00  0.00    +0.060 A 
ATOM      9  C17 UNL     1      12.114  12.867  32.609  0.00  0.00    +0.051 A 
ATOM     10  C18 UNL     1      12.183  12.847  31.213  0.00  0.00    +0.139 A 
ATOM     11  F5  UNL     1      12.818  13.858  30.571  0.00  0.00    -0.205 F 
BRANCH   8  12
ATOM     12  C16 UNL     1      11.397  11.855  34.814  0.00  0.00    +0.418 C 
ATOM     13  F2  UNL     1      12.627  12.110  35.395  0.00  0.00    -0.166 F 
ATOM     14  F3  UNL     1      10.516  12.862  35.165  0.00  0.00    -0.166 F 
ATOM     15  F4  UNL     1      10.926  10.651  35.306  0.00  0.00    -0.166 F 
ENDBRANCH   8  12
ENDBRANCH   2   4
BRANCH   1  17
ATOM     16  C1  UNL     1       9.260  13.604  29.818  0.00  0.00    +0.033 C 
ATOM     17  C2  UNL     1       9.501  12.896  28.478  0.00  0.00    +0.104 C 
BRANCH  17  18
ATOM     18  C3  UNL     1       8.745  11.581  28.337  0.00  0.00    -0.027 A 
ATOM     19  C4  UNL     1       7.932  11.140  29.397  0.00  0.00    +0.005 A 
ATOM     20  C5  UNL     1       7.195   9.958  29.288  0.00  0.00    +0.000 A 
ATOM     21  C6  UNL     1       7.260   9.198  28.119  0.00  0.00    +0.000 A 
ATOM     22  C7  UNL     1       8.066   9.617  27.060  0.00  0.00    +0.000 A 
ATOM     23  C8  UNL     1       8.806  10.799  27.164  0.00  0.00    +0.005 A 
ENDBRANCH  17  18
ENDBRANCH   1  17
BRANCH   1  24
ATOM     24  C9  UNL     1      11.603  13.304  27.049  0.00  0.00    +0.204 C 
BRANCH  24  25
ATOM     25  C10 UNL     1      12.509  14.423  27.462  0.00  0.00    +0.228 C 
ATOM     26  N2  UNL     1      11.970  15.626  28.008  0.00  0.00    -0.328 N 
ATOM     27  O1  UNL     1      13.752  14.319  27.286  0.00  0.00    -0.274 OA
ATOM     28  H12 UNL     1      10.940  15.741  28.133  0.00  0.00    +0.145 HD
ATOM     29  H13 UNL     1      12.603  16.411  28.280  0.00  0.00    +0.145 HD
ENDBRANCH  24  25
ENDBRANCH   1  24
TORSDOF 6
ENDMDL
MODEL 8
REMARK VINA RESULT:    -5.588      7.598     10.323
REMARK INTER + INTRA:          -9.442
REMARK INTER:                  -7.868
REMARK INTRA:                  -1.574
REMARK UNBOUND:                -1.893
REMARK  Name = /home/qwerty/github/datacon2025hack/step_04_hit_selection/docking/ligands/lig_680.pdb
REMARK  7 active torsions:
REMARK  status: ('A' for Active; 'I' for Inactive)
REMARK    1  A    between atoms: C1_1  and  C2_2
REMARK    2  A    between atoms: C2_2  and  C3_3
REMARK    3  A    between atoms: C2_2  and  N1_9
REMARK    4  A    between atoms: N1_9  and  C9_10
REMARK    5  A    between atoms: C9_10  and  C10_11
REMARK    6  A    between atoms: C11_14  and  C12_16
REMARK    7  A    between atoms: C15_20  and  C16_21
REMARK                            x       y       z     vdW  Elec       q    Type
REMARK                         _______ _______ _______ _____ _____    ______ ____
ROOT
ATOM      1  N1  UNL     1       9.623   6.334  21.709  0.00  0.00    -0.282 N 
ATOM      2  C11 UNL     1       8.570   7.275  21.997  0.00  0.00    +0.253 C 
ATOM      3  O2  UNL     1       7.687   7.510  21.129  0.00  0.00    -0.270 OA
ENDROOT
BRANCH   2   4
ATOM      4  C12 UNL     1       8.511   7.980  23.294  0.00  0.00    +0.107 A 
ATOM      5  C13 UNL     1       8.386   7.256  24.491  0.00  0.00    +0.139 A 
ATOM      6  F1  UNL     1       8.296   5.902  24.472  0.00  0.00    -0.205 F 
ATOM      7  C14 UNL     1       8.318   7.926  25.716  0.00  0.00    +0.051 A 
ATOM      8  C15 UNL     1       8.399   9.327  25.770  0.00  0.00    +0.060 A 
ATOM      9  C17 UNL     1       8.515  10.049  24.570  0.00  0.00    +0.051 A 
ATOM     10  C18 UNL     1       8.586   9.383  23.343  0.00  0.00    +0.139 A 
ATOM     11  F5  UNL     1       8.758  10.108  22.210  0.00  0.00    -0.205 F 
BRANCH   8  12
ATOM     12  C16 UNL     1       8.267  10.050  27.087  0.00  0.00    +0.418 C 
ATOM     13  F2  UNL     1       8.035  11.399  26.884  0.00  0.00    -0.166 F 
ATOM     14  F3  UNL     1       7.208   9.512  27.796  0.00  0.00    -0.166 F 
ATOM     15  F4  UNL     1       9.424   9.918  27.835  0.00  0.00    -0.166 F 
ENDBRANCH   8  12
ENDBRANCH   2   4
BRANCH   1  17
ATOM     16  C1  UNL     1      11.456   6.598  23.356  0.00  0.00    +0.033 C 
ATOM     17  C2  UNL     1      11.030   6.753  21.890  0.00  0.00    +0.104 C 
BRANCH  17  18
ATOM     18  C3  UNL     1      11.280   8.145  21.325  0.00  0.00    -0.027 A 
ATOM     19  C4  UNL     1      11.931   9.103  22.124  0.00  0.00    +0.005 A 
ATOM     20  C5  UNL     1      12.211  10.378  21.624  0.00  0.00    +0.000 A 
ATOM     21  C6  UNL     1      11.844  10.715  20.321  0.00  0.00    +0.000 A 
ATOM     22  C7  UNL     1      11.192   9.780  19.517  0.00  0.00    +0.000 A 
ATOM     23  C8  UNL     1      10.909   8.503  20.011  0.00  0.00    +0.005 A 
ENDBRANCH  17  18
ENDBRANCH   1  17
BRANCH   1  24
ATOM     24  C9  UNL     1       9.276   5.092  21.000  0.00  0.00    +0.204 C 
BRANCH  24  25
ATOM     25  C10 UNL     1       8.865   4.040  21.984  0.00  0.00    +0.228 C 
ATOM     26  N2  UNL     1       7.484   3.740  22.188  0.00  0.00    -0.328 N 
ATOM     27  O1  UNL     1       9.740   3.445  22.667  0.00  0.00    -0.274 OA
ATOM     28  H12 UNL     1       6.744   4.245  21.651  0.00  0.00    +0.145 HD
ATOM     29  H13 UNL     1       7.199   3.017  22.885  0.00  0.00    +0.145 HD
ENDBRANCH  24  25
ENDBRANCH   1  24
TORSDOF 6
ENDMDL
MODEL 9
REMARK VINA RESULT:    -5.503     12.938     15.056
REMARK INTER + INTRA:          -9.327
REMARK INTER:                  -7.491
REMARK INTRA:                  -1.835
REMARK UNBOUND:                -1.893
REMARK  Name = /home/qwerty/github/datacon2025hack/step_04_hit_selection/docking/ligands/lig_680.pdb
REMARK  7 active torsions:
REMARK  status: ('A' for Active; 'I' for Inactive)
REMARK    1  A    between atoms: C1_1  and  C2_2
REMARK    2  A    between atoms: C2_2  and  C3_3
REMARK    3  A    between atoms: C2_2  and  N1_9
REMARK    4  A    between atoms: N1_9  and  C9_10
REMARK    5  A    between atoms: C9_10  and  C10_11
REMARK    6  A    between atoms: C11_14  and  C12_16
REMARK    7  A    between atoms: C15_20  and  C16_21
REMARK                            x       y       z     vdW  Elec       q    Type
REMARK                         _______ _______ _______ _____ _____    ______ ____
ROOT
ATOM      1  N1  UNL     1      19.212   2.330  31.135  0.00  0.00    -0.282 N 
ATOM      2  C11 UNL     1      19.214   3.399  32.101  0.00  0.00    +0.253 C 
ATOM      3  O2  UNL     1      18.145   3.706  32.695  0.00  0.00    -0.270 OA
ENDROOT
BRANCH   2   4
ATOM      4  C12 UNL     1      20.448   4.153  32.402  0.00  0.00    +0.107 A 
ATOM      5  C13 UNL     1      20.770   5.308  31.671  0.00  0.00    +0.139 A 
ATOM      6  F1  UNL     1      19.965   5.735  30.664  0.00  0.00    -0.205 F 
ATOM      7  C14 UNL     1      21.944   6.013  31.948  0.00  0.00    +0.051 A 
ATOM      8  C15 UNL     1      22.803   5.594  32.977  0.00  0.00    +0.060 A 
ATOM      9  C17 UNL     1      22.483   4.433  33.701  0.00  0.00    +0.051 A 
ATOM     10  C18 UNL     1      21.308   3.726  33.428  0.00  0.00    +0.139 A 
ATOM     11  F5  UNL     1      21.000   2.645  34.186  0.00  0.00    -0.205 F 
BRANCH   8  12
ATOM     12  C16 UNL     1      24.098   6.323  33.237  0.00  0.00    +0.418 C 
ATOM     13  F2  UNL     1      25.150   5.699  32.588  0.00  0.00    -0.166 F 
ATOM     14  F3  UNL     1      23.988   7.621  32.772  0.00  0.00    -0.166 F 
ATOM     15  F4  UNL     1      24.381   6.351  34.591  0.00  0.00    -0.166 F 
ENDBRANCH   8  12
ENDBRANCH   2   4
BRANCH   1  17
ATOM     16  C1  UNL     1      18.663   2.365  28.718  0.00  0.00    +0.033 C 
ATOM     17  C2  UNL     1      19.749   2.583  29.781  0.00  0.00    +0.104 C 
BRANCH  17  18
ATOM     18  C3  UNL     1      21.024   1.791  29.523  0.00  0.00    -0.027 A 
ATOM     19  C4  UNL     1      22.214   2.176  30.167  0.00  0.00    +0.005 A 
ATOM     20  C5  UNL     1      23.393   1.449  29.984  0.00  0.00    +0.000 A 
ATOM     21  C6  UNL     1      23.403   0.329  29.152  0.00  0.00    +0.000 A 
ATOM     22  C7  UNL     1      22.234  -0.064  28.499  0.00  0.00    +0.000 A 
ATOM     23  C8  UNL     1      21.051   0.659  28.680  0.00  0.00    +0.005 A 
ENDBRANCH  17  18
ENDBRANCH   1  17
BRANCH   1  24
ATOM     24  C9  UNL     1      18.442   1.113  31.440  0.00  0.00    +0.204 C 
BRANCH  24  25
ATOM     25  C10 UNL     1      18.982   0.463  32.677  0.00  0.00    +0.228 C 
ATOM     26  N2  UNL     1      20.322  -0.029  32.710  0.00  0.00    -0.328 N 
ATOM     27  O1  UNL     1      18.235   0.309  33.680  0.00  0.00    -0.274 OA
ATOM     28  H12 UNL     1      20.944   0.064  31.877  0.00  0.00    +0.145 HD
ATOM     29  H13 UNL     1      20.690  -0.496  33.568  0.00  0.00    +0.145 HD
ENDBRANCH  24  25
ENDBRANCH   1  24
TORSDOF 6
ENDMDL
