MODEL 1
REMARK VINA RESULT:    -7.394      0.000      0.000
REMARK INTER + INTRA:          -9.131
REMARK INTER:                  -9.123
REMARK INTRA:                  -0.008
REMARK UNBOUND:                -0.008
REMARK  Name = /home/qwerty/github/datacon2025hack/step_04_hit_selection/docking/ligands/lig_442.pdb
REMARK  6 active torsions:
REMARK  status: ('A' for Active; 'I' for Inactive)
REMARK    1  A    between atoms: C1_1  and  C2_2
REMARK    2  A    between atoms: N1_4  and  C3_5
REMARK    3  A    between atoms: C6_8  and  C7_9
REMARK    4  A    between atoms: C8_10  and  N2_11
REMARK    5  A    between atoms: C9_12  and  C10_14
REMARK    6  A    between atoms: C16_22  and  C17_23
REMARK                            x       y       z     vdW  Elec       q    Type
REMARK                         _______ _______ _______ _____ _____    ______ ____
ROOT
ATOM      1  N2  UNL     1      17.807  -0.610  25.925  0.00  0.00    -0.277 N 
ATOM      2  C9  UNL     1      18.097   0.600  25.200  0.00  0.00    +0.303 C 
ATOM      3  O2  UNL     1      17.172   1.240  24.630  0.00  0.00    -0.265 OA
ATOM      4  H10 UNL     1      18.575  -1.033  26.497  0.00  0.00    +0.155 HD
ENDROOT
BRANCH   2   5
ATOM      5  C10 UNL     1      19.476   1.122  25.145  0.00  0.00    +0.302 C 
ATOM      6  O3  UNL     1      20.025   1.317  24.027  0.00  0.00    -0.265 OA
ATOM      7  N3  UNL     1      20.207   1.398  26.347  0.00  0.00    -0.289 N 
ATOM      8  C11 UNL     1      20.094   0.996  27.769  0.00  0.00    +0.117 C 
ATOM      9  C12 UNL     1      21.435   1.509  28.172  0.00  0.00    +0.005 C 
ATOM     10  C13 UNL     1      22.448   0.539  28.756  0.00  0.00    +0.010 C 
ATOM     11  C14 UNL     1      22.538   1.444  29.992  0.00  0.00    +0.001 C 
ATOM     12  C15 UNL     1      21.514   2.416  29.398  0.00  0.00    +0.010 C 
ATOM     13  C16 UNL     1      21.548   1.925  26.726  0.00  0.00    +0.087 C 
BRANCH  13  14
ATOM     14  C17 UNL     1      21.704   3.458  26.485  0.00  0.00    +0.014 C 
ATOM     15  C18 UNL     1      22.794   3.721  25.423  0.00  0.00    +0.033 C 
ATOM     16  C19 UNL     1      22.879   5.223  25.115  0.00  0.00    +0.160 C 
ATOM     17  O4  UNL     1      21.643   5.707  24.633  0.00  0.00    -0.380 OA
ATOM     18  C20 UNL     1      20.656   5.592  25.642  0.00  0.00    +0.160 C 
ATOM     19  C21 UNL     1      20.402   4.122  26.009  0.00  0.00    +0.033 C 
ENDBRANCH  13  14
ENDBRANCH   2   5
BRANCH   1  25
ATOM     20  C3  UNL     1      14.203  -1.281  26.787  0.00  0.00    +0.035 A 
ATOM     21  C4  UNL     1      13.944  -2.387  25.962  0.00  0.00    +0.024 A 
ATOM     22  C5  UNL     1      14.952  -2.924  25.159  0.00  0.00    +0.007 A 
ATOM     23  C6  UNL     1      16.242  -2.370  25.163  0.00  0.00    -0.029 A 
ATOM     24  C7  UNL     1      17.310  -2.979  24.294  0.00  0.00    +0.045 C 
ATOM     25  C8  UNL     1      16.508  -1.234  25.965  0.00  0.00    +0.038 A 
ATOM     26  C22 UNL     1      15.473  -0.686  26.752  0.00  0.00    +0.047 A 
BRANCH  20  30
ATOM     27  C1  UNL     1      11.488   1.061  28.265  0.00  0.00    +0.109 C 
ATOM     28  C2  UNL     1      12.384   0.415  27.254  0.00  0.00    +0.214 C 
ATOM     29  O1  UNL     1      12.366   0.825  26.059  0.00  0.00    -0.276 OA
ATOM     30  N1  UNL     1      13.179  -0.722  27.626  0.00  0.00    -0.286 N 
ATOM     31  H4  UNL     1      12.932  -1.221  28.511  0.00  0.00    +0.155 HD
ENDBRANCH  20  30
ENDBRANCH   1  25
TORSDOF 4
ENDMDL
MODEL 2
REMARK VINA RESULT:    -7.353      6.074     10.749
REMARK INTER + INTRA:          -9.080
REMARK INTER:                  -9.051
REMARK INTRA:                  -0.029
REMARK UNBOUND:                -0.008
REMARK  Name = /home/qwerty/github/datacon2025hack/step_04_hit_selection/docking/ligands/lig_442.pdb
REMARK  6 active torsions:
REMARK  status: ('A' for Active; 'I' for Inactive)
REMARK    1  A    between atoms: C1_1  and  C2_2
REMARK    2  A    between atoms: N1_4  and  C3_5
REMARK    3  A    between atoms: C6_8  and  C7_9
REMARK    4  A    between atoms: C8_10  and  N2_11
REMARK    5  A    between atoms: C9_12  and  C10_14
REMARK    6  A    between atoms: C16_22  and  C17_23
REMARK                            x       y       z     vdW  Elec       q    Type
REMARK                         _______ _______ _______ _____ _____    ______ ____
ROOT
ATOM      1  N2  UNL     1      23.073   5.463  31.890  0.00  0.00    -0.277 N 
ATOM      2  C9  UNL     1      22.052   4.955  32.769  0.00  0.00    +0.303 C 
ATOM      3  O2  UNL     1      21.415   5.736  33.527  0.00  0.00    -0.265 OA
ATOM      4  H10 UNL     1      23.478   4.808  31.182  0.00  0.00    +0.155 HD
ENDROOT
BRANCH   2   5
ATOM      5  C10 UNL     1      21.715   3.518  32.767  0.00  0.00    +0.302 C 
ATOM      6  O3  UNL     1      21.662   2.889  33.858  0.00  0.00    -0.265 OA
ATOM      7  N3  UNL     1      21.461   2.824  31.539  0.00  0.00    -0.289 N 
ATOM      8  C11 UNL     1      21.758   3.065  30.107  0.00  0.00    +0.117 C 
ATOM      9  C12 UNL     1      21.397   1.693  29.651  0.00  0.00    +0.005 C 
ATOM     10  C13 UNL     1      22.451   0.849  28.953  0.00  0.00    +0.010 C 
ATOM     11  C14 UNL     1      21.491   0.708  27.765  0.00  0.00    +0.001 C 
ATOM     12  C15 UNL     1      20.433   1.561  28.473  0.00  0.00    +0.010 C 
ATOM     13  C16 UNL     1      21.088   1.447  31.107  0.00  0.00    +0.087 C 
BRANCH  13  14
ATOM     14  C17 UNL     1      19.607   1.078  31.421  0.00  0.00    +0.014 C 
ATOM     15  C18 UNL     1      19.548   0.034  32.558  0.00  0.00    +0.033 C 
ATOM     16  C19 UNL     1      18.087  -0.257  32.932  0.00  0.00    +0.160 C 
ATOM     17  O4  UNL     1      17.434   0.921  33.357  0.00  0.00    -0.380 OA
ATOM     18  C20 UNL     1      17.365   1.845  32.286  0.00  0.00    +0.160 C 
ATOM     19  C21 UNL     1      18.766   2.293  31.843  0.00  0.00    +0.033 C 
ENDBRANCH  13  14
ENDBRANCH   2   5
BRANCH   1  25
ATOM     20  C3  UNL     1      23.297   9.132  31.074  0.00  0.00    +0.035 A 
ATOM     21  C4  UNL     1      24.325   9.527  31.945  0.00  0.00    +0.024 A 
ATOM     22  C5  UNL     1      24.957   8.589  32.766  0.00  0.00    +0.007 A 
ATOM     23  C6  UNL     1      24.578   7.239  32.732  0.00  0.00    -0.029 A 
ATOM     24  C7  UNL     1      25.288   6.251  33.621  0.00  0.00    +0.045 C 
ATOM     25  C8  UNL     1      23.521   6.833  31.883  0.00  0.00    +0.038 A 
ATOM     26  C22 UNL     1      22.874   7.795  31.079  0.00  0.00    +0.047 A 
BRANCH  20  30
ATOM     27  C1  UNL     1      20.686  11.545  29.524  0.00  0.00    +0.109 C 
ATOM     28  C2  UNL     1      21.405  10.732  30.554  0.00  0.00    +0.214 C 
ATOM     29  O1  UNL     1      20.962  10.696  31.737  0.00  0.00    -0.276 OA
ATOM     30  N1  UNL     1      22.642  10.082  30.218  0.00  0.00    -0.286 N 
ATOM     31  H4  UNL     1      23.133  10.391  29.348  0.00  0.00    +0.155 HD
ENDBRANCH  20  30
ENDBRANCH   1  25
TORSDOF 4
ENDMDL
MODEL 3
REMARK VINA RESULT:    -7.101     12.555     15.507
REMARK INTER + INTRA:          -8.770
REMARK INTER:                  -8.846
REMARK INTRA:                   0.076
REMARK UNBOUND:                -0.008
REMARK  Name = /home/qwerty/github/datacon2025hack/step_04_hit_selection/docking/ligands/lig_442.pdb
REMARK  6 active torsions:
REMARK  status: ('A' for Active; 'I' for Inactive)
REMARK    1  A    between atoms: C1_1  and  C2_2
REMARK    2  A    between atoms: N1_4  and  C3_5
REMARK    3  A    between atoms: C6_8  and  C7_9
REMARK    4  A    between atoms: C8_10  and  N2_11
REMARK    5  A    between atoms: C9_12  and  C10_14
REMARK    6  A    between atoms: C16_22  and  C17_23
REMARK                            x       y       z     vdW  Elec       q    Type
REMARK                         _______ _______ _______ _____ _____    ______ ____
ROOT
ATOM      1  N2  UNL     1      11.092  12.562  33.407  0.00  0.00    -0.277 N 
ATOM      2  C9  UNL     1      12.233  13.202  32.806  0.00  0.00    +0.303 C 
ATOM      3  O2  UNL     1      13.376  13.089  33.328  0.00  0.00    -0.265 OA
ATOM      4  H10 UNL     1      10.193  12.564  32.872  0.00  0.00    +0.155 HD
ENDROOT
BRANCH   2   5
ATOM      5  C10 UNL     1      12.084  13.968  31.554  0.00  0.00    +0.302 C 
ATOM      6  O3  UNL     1      12.671  15.076  31.428  0.00  0.00    -0.265 OA
ATOM      7  N3  UNL     1      11.269  13.475  30.483  0.00  0.00    -0.289 N 
ATOM      8  C11 UNL     1      10.183  12.474  30.355  0.00  0.00    +0.117 C 
ATOM      9  C12 UNL     1       9.768  12.884  28.983  0.00  0.00    +0.005 C 
ATOM     10  C13 UNL     1       8.341  13.355  28.756  0.00  0.00    +0.010 C 
ATOM     11  C14 UNL     1       8.198  12.266  27.685  0.00  0.00    +0.001 C 
ATOM     12  C15 UNL     1       9.637  11.795  27.921  0.00  0.00    +0.010 C 
ATOM     13  C16 UNL     1      10.878  13.899  29.109  0.00  0.00    +0.087 C 
BRANCH  13  14
ATOM     14  C17 UNL     1      12.028  13.761  28.066  0.00  0.00    +0.014 C 
ATOM     15  C18 UNL     1      12.432  15.152  27.531  0.00  0.00    +0.033 C 
ATOM     16  C19 UNL     1      13.628  15.025  26.578  0.00  0.00    +0.160 C 
ATOM     17  O4  UNL     1      14.736  14.449  27.238  0.00  0.00    -0.380 OA
ATOM     18  C20 UNL     1      14.428  13.121  27.624  0.00  0.00    +0.160 C 
ATOM     19  C21 UNL     1      13.283  13.089  28.647  0.00  0.00    +0.033 C 
ENDBRANCH  13  14
ENDBRANCH   2   5
BRANCH   1  25
ATOM     20  C3  UNL     1      11.486   9.803  35.940  0.00  0.00    +0.035 A 
ATOM     21  C4  UNL     1      11.310  10.522  37.133  0.00  0.00    +0.024 A 
ATOM     22  C5  UNL     1      11.032  11.891  37.101  0.00  0.00    +0.007 A 
ATOM     23  C6  UNL     1      10.922  12.570  35.877  0.00  0.00    -0.029 A 
ATOM     24  C7  UNL     1      10.610  14.043  35.877  0.00  0.00    +0.045 C 
ATOM     25  C8  UNL     1      11.130  11.864  34.668  0.00  0.00    +0.038 A 
ATOM     26  C22 UNL     1      11.436  10.487  34.717  0.00  0.00    +0.047 A 
BRANCH  20  30
ATOM     27  C1  UNL     1      13.243   6.365  35.574  0.00  0.00    +0.109 C 
ATOM     28  C2  UNL     1      13.075   7.842  35.750  0.00  0.00    +0.214 C 
ATOM     29  O1  UNL     1      14.099   8.581  35.804  0.00  0.00    -0.276 OA
ATOM     30  N1  UNL     1      11.764   8.394  35.955  0.00  0.00    -0.286 N 
ATOM     31  H4  UNL     1      10.996   7.736  36.222  0.00  0.00    +0.155 HD
ENDBRANCH  20  30
ENDBRANCH   1  25
TORSDOF 4
ENDMDL
MODEL 4
REMARK VINA RESULT:    -7.055     10.254     14.253
REMARK INTER + INTRA:          -8.713
REMARK INTER:                  -8.611
REMARK INTRA:                  -0.102
REMARK UNBOUND:                -0.008
REMARK  Name = /home/qwerty/github/datacon2025hack/step_04_hit_selection/docking/ligands/lig_442.pdb
REMARK  6 active torsions:
REMARK  status: ('A' for Active; 'I' for Inactive)
REMARK    1  A    between atoms: C1_1  and  C2_2
REMARK    2  A    between atoms: N1_4  and  C3_5
REMARK    3  A    between atoms: C6_8  and  C7_9
REMARK    4  A    between atoms: C8_10  and  N2_11
REMARK    5  A    between atoms: C9_12  and  C10_14
REMARK    6  A    between atoms: C16_22  and  C17_23
REMARK                            x       y       z     vdW  Elec       q    Type
REMARK                         _______ _______ _______ _____ _____    ______ ____
ROOT
ATOM      1  N2  UNL     1       9.497  10.421  23.836  0.00  0.00    -0.277 N 
ATOM      2  C9  UNL     1       9.156   9.311  24.687  0.00  0.00    +0.303 C 
ATOM      3  O2  UNL     1       9.595   8.155  24.435  0.00  0.00    -0.265 OA
ATOM      4  H10 UNL     1       9.230  11.380  24.154  0.00  0.00    +0.155 HD
ENDROOT
BRANCH   2   5
ATOM      5  C10 UNL     1       8.317   9.519  25.883  0.00  0.00    +0.302 C 
ATOM      6  O3  UNL     1       7.195   8.950  25.965  0.00  0.00    -0.265 OA
ATOM      7  N3  UNL     1       8.755  10.374  26.948  0.00  0.00    -0.289 N 
ATOM      8  C11 UNL     1       9.759  11.454  27.093  0.00  0.00    +0.117 C 
ATOM      9  C12 UNL     1       9.272  11.929  28.419  0.00  0.00    +0.005 C 
ATOM     10  C13 UNL     1       8.806  13.369  28.558  0.00  0.00    +0.010 C 
ATOM     11  C14 UNL     1       9.830  13.546  29.687  0.00  0.00    +0.001 C 
ATOM     12  C15 UNL     1      10.296  12.093  29.540  0.00  0.00    +0.010 C 
ATOM     13  C16 UNL     1       8.253  10.826  28.276  0.00  0.00    +0.087 C 
BRANCH  13  14
ATOM     14  C17 UNL     1       8.312   9.718  29.372  0.00  0.00    +0.014 C 
ATOM     15  C18 UNL     1       6.885   9.257  29.740  0.00  0.00    +0.033 C 
ATOM     16  C19 UNL     1       6.948   8.100  30.747  0.00  0.00    +0.160 C 
ATOM     17  O4  UNL     1       7.659   7.004  30.209  0.00  0.00    -0.380 OA
ATOM     18  C20 UNL     1       9.008   7.372  29.983  0.00  0.00    +0.160 C 
ATOM     19  C21 UNL     1       9.114   8.484  28.929  0.00  0.00    +0.033 C 
ENDBRANCH  13  14
ENDBRANCH   2   5
BRANCH   1  25
ATOM     20  C3  UNL     1      12.377  10.026  21.441  0.00  0.00    +0.035 A 
ATOM     21  C4  UNL     1      11.687   9.945  20.221  0.00  0.00    +0.024 A 
ATOM     22  C5  UNL     1      10.294  10.053  20.185  0.00  0.00    +0.007 A 
ATOM     23  C6  UNL     1       9.562  10.246  21.367  0.00  0.00    -0.029 A 
ATOM     24  C7  UNL     1       8.063  10.370  21.294  0.00  0.00    +0.045 C 
ATOM     25  C8  UNL     1      10.242  10.295  22.608  0.00  0.00    +0.038 A 
ATOM     26  C22 UNL     1      11.646  10.159  22.631  0.00  0.00    +0.047 A 
BRANCH  20  30
ATOM     27  C1  UNL     1      15.984   8.741  22.056  0.00  0.00    +0.109 C 
ATOM     28  C2  UNL     1      14.507   8.711  21.819  0.00  0.00    +0.214 C 
ATOM     29  O1  UNL     1      13.901   7.602  21.822  0.00  0.00    -0.276 OA
ATOM     30  N1  UNL     1      13.809   9.925  21.494  0.00  0.00    -0.286 N 
ATOM     31  H4  UNL     1      14.379  10.747  21.189  0.00  0.00    +0.155 HD
ENDBRANCH  20  30
ENDBRANCH   1  25
TORSDOF 4
ENDMDL
MODEL 5
REMARK VINA RESULT:    -6.996      6.249      9.818
REMARK INTER + INTRA:          -8.640
REMARK INTER:                  -8.727
REMARK INTRA:                   0.087
REMARK UNBOUND:                -0.008
REMARK  Name = /home/qwerty/github/datacon2025hack/step_04_hit_selection/docking/ligands/lig_442.pdb
REMARK  6 active torsions:
REMARK  status: ('A' for Active; 'I' for Inactive)
REMARK    1  A    between atoms: C1_1  and  C2_2
REMARK    2  A    between atoms: N1_4  and  C3_5
REMARK    3  A    between atoms: C6_8  and  C7_9
REMARK    4  A    between atoms: C8_10  and  N2_11
REMARK    5  A    between atoms: C9_12  and  C10_14
REMARK    6  A    between atoms: C16_22  and  C17_23
REMARK                            x       y       z     vdW  Elec       q    Type
REMARK                         _______ _______ _______ _____ _____    ______ ____
ROOT
ATOM      1  N2  UNL     1      21.439   5.870  32.592  0.00  0.00    -0.277 N 
ATOM      2  C9  UNL     1      20.842   4.579  32.369  0.00  0.00    +0.303 C 
ATOM      3  O2  UNL     1      20.539   3.840  33.345  0.00  0.00    -0.265 OA
ATOM      4  H10 UNL     1      21.546   6.507  31.769  0.00  0.00    +0.155 HD
ENDROOT
BRANCH   2   5
ATOM      5  C10 UNL     1      20.545   4.122  30.998  0.00  0.00    +0.302 C 
ATOM      6  O3  UNL     1      19.591   4.644  30.360  0.00  0.00    -0.265 OA
ATOM      7  N3  UNL     1      21.318   3.081  30.386  0.00  0.00    -0.289 N 
ATOM      8  C11 UNL     1      22.223   2.012  30.870  0.00  0.00    +0.117 C 
ATOM      9  C12 UNL     1      22.281   1.275  29.576  0.00  0.00    +0.005 C 
ATOM     10  C13 UNL     1      21.819  -0.173  29.533  0.00  0.00    +0.010 C 
ATOM     11  C14 UNL     1      23.197  -0.551  28.975  0.00  0.00    +0.001 C 
ATOM     12  C15 UNL     1      23.658   0.909  29.023  0.00  0.00    +0.010 C 
ATOM     13  C16 UNL     1      21.365   2.366  29.080  0.00  0.00    +0.087 C 
BRANCH  13  14
ATOM     14  C17 UNL     1      21.933   3.234  27.916  0.00  0.00    +0.014 C 
ATOM     15  C18 UNL     1      22.123   2.371  26.651  0.00  0.00    +0.033 C 
ATOM     16  C19 UNL     1      22.590   3.246  25.479  0.00  0.00    +0.160 C 
ATOM     17  O4  UNL     1      21.647   4.260  25.203  0.00  0.00    -0.380 OA
ATOM     18  C20 UNL     1      21.552   5.141  26.309  0.00  0.00    +0.160 C 
ATOM     19  C21 UNL     1      21.020   4.417  27.555  0.00  0.00    +0.033 C 
ENDBRANCH  13  14
ENDBRANCH   2   5
BRANCH   1  25
ATOM     20  C3  UNL     1      21.248   7.308  36.067  0.00  0.00    +0.035 A 
ATOM     21  C4  UNL     1      22.595   7.224  36.454  0.00  0.00    +0.024 A 
ATOM     22  C5  UNL     1      23.558   6.732  35.569  0.00  0.00    +0.007 A 
ATOM     23  C6  UNL     1      23.196   6.314  34.279  0.00  0.00    -0.029 A 
ATOM     24  C7  UNL     1      24.259   5.799  33.345  0.00  0.00    +0.045 C 
ATOM     25  C8  UNL     1      21.836   6.362  33.887  0.00  0.00    +0.038 A 
ATOM     26  C22 UNL     1      20.872   6.838  34.800  0.00  0.00    +0.047 A 
BRANCH  20  30
ATOM     27  C1  UNL     1      18.778   9.658  37.915  0.00  0.00    +0.109 C 
ATOM     28  C2  UNL     1      19.655   9.122  36.827  0.00  0.00    +0.214 C 
ATOM     29  O1  UNL     1      19.794   9.785  35.760  0.00  0.00    -0.276 OA
ATOM     30  N1  UNL     1      20.248   7.820  36.962  0.00  0.00    -0.286 N 
ATOM     31  H4  UNL     1      19.859   7.182  37.693  0.00  0.00    +0.155 HD
ENDBRANCH  20  30
ENDBRANCH   1  25
TORSDOF 4
ENDMDL
MODEL 6
REMARK VINA RESULT:    -6.986      3.448      5.045
REMARK INTER + INTRA:          -8.628
REMARK INTER:                  -8.596
REMARK INTRA:                  -0.031
REMARK UNBOUND:                -0.008
REMARK  Name = /home/qwerty/github/datacon2025hack/step_04_hit_selection/docking/ligands/lig_442.pdb
REMARK  6 active torsions:
REMARK  status: ('A' for Active; 'I' for Inactive)
REMARK    1  A    between atoms: C1_1  and  C2_2
REMARK    2  A    between atoms: N1_4  and  C3_5
REMARK    3  A    between atoms: C6_8  and  C7_9
REMARK    4  A    between atoms: C8_10  and  N2_11
REMARK    5  A    between atoms: C9_12  and  C10_14
REMARK    6  A    between atoms: C16_22  and  C17_23
REMARK                            x       y       z     vdW  Elec       q    Type
REMARK                         _______ _______ _______ _____ _____    ______ ____
ROOT
ATOM      1  N2  UNL     1      17.146   0.707  25.610  0.00  0.00    -0.277 N 
ATOM      2  C9  UNL     1      18.317   1.529  25.772  0.00  0.00    +0.303 C 
ATOM      3  O2  UNL     1      18.975   1.907  24.765  0.00  0.00    -0.265 OA
ATOM      4  H10 UNL     1      16.552   0.532  26.453  0.00  0.00    +0.155 HD
ENDROOT
BRANCH   2   5
ATOM      5  C10 UNL     1      18.740   1.966  27.117  0.00  0.00    +0.302 C 
ATOM      6  O3  UNL     1      18.055   2.822  27.738  0.00  0.00    -0.265 OA
ATOM      7  N3  UNL     1      19.929   1.440  27.721  0.00  0.00    -0.289 N 
ATOM      8  C11 UNL     1      21.144   0.745  27.234  0.00  0.00    +0.117 C 
ATOM      9  C12 UNL     1      21.911   0.886  28.505  0.00  0.00    +0.005 C 
ATOM     10  C13 UNL     1      23.238   1.627  28.485  0.00  0.00    +0.010 C 
ATOM     11  C14 UNL     1      23.897   0.375  29.077  0.00  0.00    +0.001 C 
ATOM     12  C15 UNL     1      22.557  -0.367  29.093  0.00  0.00    +0.010 C 
ATOM     13  C16 UNL     1      20.672   1.587  29.004  0.00  0.00    +0.087 C 
BRANCH  13  14
ATOM     14  C17 UNL     1      19.963   0.906  30.214  0.00  0.00    +0.014 C 
ATOM     15  C18 UNL     1      20.878   0.945  31.458  0.00  0.00    +0.033 C 
ATOM     16  C19 UNL     1      20.142   0.362  32.673  0.00  0.00    +0.160 C 
ATOM     17  O4  UNL     1      18.966   1.094  32.946  0.00  0.00    -0.380 OA
ATOM     18  C20 UNL     1      18.058   0.965  31.867  0.00  0.00    +0.160 C 
ATOM     19  C21 UNL     1      18.630   1.579  30.580  0.00  0.00    +0.033 C 
ENDBRANCH  13  14
ENDBRANCH   2   5
BRANCH   1  25
ATOM     20  C3  UNL     1      15.546   0.453  22.211  0.00  0.00    +0.035 A 
ATOM     21  C4  UNL     1      15.940  -0.841  21.837  0.00  0.00    +0.024 A 
ATOM     22  C5  UNL     1      16.695  -1.631  22.708  0.00  0.00    +0.007 A 
ATOM     23  C6  UNL     1      17.070  -1.146  23.970  0.00  0.00    -0.029 A 
ATOM     24  C7  UNL     1      17.873  -2.027  24.890  0.00  0.00    +0.045 C 
ATOM     25  C8  UNL     1      16.707   0.170  24.346  0.00  0.00    +0.038 A 
ATOM     26  C22 UNL     1      15.967   0.965  23.446  0.00  0.00    +0.047 A 
BRANCH  20  30
ATOM     27  C1  UNL     1      14.421   3.248  19.767  0.00  0.00    +0.109 C 
ATOM     28  C2  UNL     1      15.324   2.301  20.495  0.00  0.00    +0.214 C 
ATOM     29  O1  UNL     1      16.571   2.359  20.298  0.00  0.00    -0.276 OA
ATOM     30  N1  UNL     1      14.763   1.276  21.330  0.00  0.00    -0.286 N 
ATOM     31  H4  UNL     1      13.746   1.058  21.217  0.00  0.00    +0.155 HD
ENDBRANCH  20  30
ENDBRANCH   1  25
TORSDOF 4
ENDMDL
MODEL 7
REMARK VINA RESULT:    -6.970     13.956     16.281
REMARK INTER + INTRA:          -8.608
REMARK INTER:                  -8.674
REMARK INTRA:                   0.066
REMARK UNBOUND:                -0.008
REMARK  Name = /home/qwerty/github/datacon2025hack/step_04_hit_selection/docking/ligands/lig_442.pdb
REMARK  6 active torsions:
REMARK  status: ('A' for Active; 'I' for Inactive)
REMARK    1  A    between atoms: C1_1  and  C2_2
REMARK    2  A    between atoms: N1_4  and  C3_5
REMARK    3  A    between atoms: C6_8  and  C7_9
REMARK    4  A    between atoms: C8_10  and  N2_11
REMARK    5  A    between atoms: C9_12  and  C10_14
REMARK    6  A    between atoms: C16_22  and  C17_23
REMARK                            x       y       z     vdW  Elec       q    Type
REMARK                         _______ _______ _______ _____ _____    ______ ____
ROOT
ATOM      1  N2  UNL     1      11.517  13.692  31.573  0.00  0.00    -0.277 N 
ATOM      2  C9  UNL     1      11.928  14.562  32.643  0.00  0.00    +0.303 C 
ATOM      3  O2  UNL     1      12.324  15.734  32.396  0.00  0.00    -0.265 OA
ATOM      4  H10 UNL     1      11.067  12.783  31.829  0.00  0.00    +0.155 HD
ENDROOT
BRANCH   2   5
ATOM      5  C10 UNL     1      11.859  14.105  34.044  0.00  0.00    +0.302 C 
ATOM      6  O3  UNL     1      10.759  14.146  34.659  0.00  0.00    -0.265 OA
ATOM      7  N3  UNL     1      13.029  13.627  34.721  0.00  0.00    -0.289 N 
ATOM      8  C11 UNL     1      14.492  13.746  34.516  0.00  0.00    +0.117 C 
ATOM      9  C12 UNL     1      14.870  13.209  35.854  0.00  0.00    +0.005 C 
ATOM     10  C13 UNL     1      15.688  14.082  36.792  0.00  0.00    +0.010 C 
ATOM     11  C14 UNL     1      16.733  12.960  36.855  0.00  0.00    +0.001 C 
ATOM     12  C15 UNL     1      15.905  12.087  35.907  0.00  0.00    +0.010 C 
ATOM     13  C16 UNL     1      13.381  13.081  36.062  0.00  0.00    +0.087 C 
BRANCH  13  14
ATOM     14  C17 UNL     1      12.864  11.629  36.297  0.00  0.00    +0.014 C 
ATOM     15  C18 UNL     1      11.582  11.653  37.157  0.00  0.00    +0.033 C 
ATOM     16  C19 UNL     1      11.020  10.232  37.307  0.00  0.00    +0.160 C 
ATOM     17  O4  UNL     1      10.713   9.679  36.044  0.00  0.00    -0.380 OA
ATOM     18  C20 UNL     1      11.899   9.530  35.284  0.00  0.00    +0.160 C 
ATOM     19  C21 UNL     1      12.546  10.891  34.986  0.00  0.00    +0.033 C 
ENDBRANCH  13  14
ENDBRANCH   2   5
BRANCH   1  25
ATOM     20  C3  UNL     1      12.944  14.872  28.294  0.00  0.00    +0.035 A 
ATOM     21  C4  UNL     1      11.878  14.579  27.429  0.00  0.00    +0.024 A 
ATOM     22  C5  UNL     1      10.692  14.031  27.926  0.00  0.00    +0.007 A 
ATOM     23  C6  UNL     1      10.546  13.766  29.296  0.00  0.00    -0.029 A 
ATOM     24  C7  UNL     1       9.252  13.186  29.802  0.00  0.00    +0.045 C 
ATOM     25  C8  UNL     1      11.626  14.026  30.175  0.00  0.00    +0.038 A 
ATOM     26  C22 UNL     1      12.826  14.554  29.655  0.00  0.00    +0.047 A 
BRANCH  20  30
ATOM     27  C1  UNL     1      16.638  15.369  27.223  0.00  0.00    +0.109 C 
ATOM     28  C2  UNL     1      15.351  14.673  27.534  0.00  0.00    +0.214 C 
ATOM     29  O1  UNL     1      15.297  13.412  27.473  0.00  0.00    -0.276 OA
ATOM     30  N1  UNL     1      14.167  15.443  27.800  0.00  0.00    -0.286 N 
ATOM     31  H4  UNL     1      14.172  16.453  27.530  0.00  0.00    +0.155 HD
ENDBRANCH  20  30
ENDBRANCH   1  25
TORSDOF 4
ENDMDL
MODEL 8
REMARK VINA RESULT:    -6.680      5.133      7.195
REMARK INTER + INTRA:          -8.250
REMARK INTER:                  -7.983
REMARK INTRA:                  -0.267
REMARK UNBOUND:                -0.008
REMARK  Name = /home/qwerty/github/datacon2025hack/step_04_hit_selection/docking/ligands/lig_442.pdb
REMARK  6 active torsions:
REMARK  status: ('A' for Active; 'I' for Inactive)
REMARK    1  A    between atoms: C1_1  and  C2_2
REMARK    2  A    between atoms: N1_4  and  C3_5
REMARK    3  A    between atoms: C6_8  and  C7_9
REMARK    4  A    between atoms: C8_10  and  N2_11
REMARK    5  A    between atoms: C9_12  and  C10_14
REMARK    6  A    between atoms: C16_22  and  C17_23
REMARK                            x       y       z     vdW  Elec       q    Type
REMARK                         _______ _______ _______ _____ _____    ______ ____
ROOT
ATOM      1  N2  UNL     1      14.098   2.499  21.993  0.00  0.00    -0.277 N 
ATOM      2  C9  UNL     1      14.526   1.220  21.488  0.00  0.00    +0.303 C 
ATOM      3  O2  UNL     1      14.093   0.793  20.384  0.00  0.00    -0.265 OA
ATOM      4  H10 UNL     1      14.583   2.877  22.839  0.00  0.00    +0.155 HD
ENDROOT
BRANCH   2   5
ATOM      5  C10 UNL     1      15.504   0.412  22.241  0.00  0.00    +0.302 C 
ATOM      6  O3  UNL     1      16.629   0.158  21.730  0.00  0.00    -0.265 OA
ATOM      7  N3  UNL     1      15.188  -0.102  23.542  0.00  0.00    -0.289 N 
ATOM      8  C11 UNL     1      13.943  -0.343  24.310  0.00  0.00    +0.117 C 
ATOM      9  C12 UNL     1      14.588  -1.158  25.379  0.00  0.00    +0.005 C 
ATOM     10  C13 UNL     1      14.114  -2.584  25.604  0.00  0.00    +0.010 C 
ATOM     11  C14 UNL     1      13.833  -2.215  27.066  0.00  0.00    +0.001 C 
ATOM     12  C15 UNL     1      14.311  -0.778  26.832  0.00  0.00    +0.010 C 
ATOM     13  C16 UNL     1      15.857  -0.907  24.602  0.00  0.00    +0.087 C 
BRANCH  13  14
ATOM     14  C17 UNL     1      16.965  -0.124  25.371  0.00  0.00    +0.014 C 
ATOM     15  C18 UNL     1      18.363  -0.572  24.892  0.00  0.00    +0.033 C 
ATOM     16  C19 UNL     1      19.450   0.267  25.578  0.00  0.00    +0.160 C 
ATOM     17  O4  UNL     1      19.284   1.639  25.286  0.00  0.00    -0.380 OA
ATOM     18  C20 UNL     1      18.061   2.101  25.831  0.00  0.00    +0.160 C 
ATOM     19  C21 UNL     1      16.859   1.398  25.181  0.00  0.00    +0.033 C 
ENDBRANCH  13  14
ENDBRANCH   2   5
BRANCH   1  25
ATOM     20  C3  UNL     1      10.747   3.990  21.137  0.00  0.00    +0.035 A 
ATOM     21  C4  UNL     1      11.134   4.982  20.222  0.00  0.00    +0.024 A 
ATOM     22  C5  UNL     1      12.477   5.135  19.867  0.00  0.00    +0.007 A 
ATOM     23  C6  UNL     1      13.461   4.299  20.417  0.00  0.00    -0.029 A 
ATOM     24  C7  UNL     1      14.898   4.481  20.006  0.00  0.00    +0.045 C 
ATOM     25  C8  UNL     1      13.089   3.316  21.366  0.00  0.00    +0.038 A 
ATOM     26  C22 UNL     1      11.733   3.191  21.734  0.00  0.00    +0.047 A 
BRANCH  20  30
ATOM     27  C1  UNL     1       7.390   4.055  23.077  0.00  0.00    +0.109 C 
ATOM     28  C2  UNL     1       8.766   4.452  22.643  0.00  0.00    +0.214 C 
ATOM     29  O1  UNL     1       9.350   5.406  23.230  0.00  0.00    -0.276 OA
ATOM     30  N1  UNL     1       9.370   3.814  21.506  0.00  0.00    -0.286 N 
ATOM     31  H4  UNL     1       8.747   3.273  20.864  0.00  0.00    +0.155 HD
ENDBRANCH  20  30
ENDBRANCH   1  25
TORSDOF 4
ENDMDL
MODEL 9
REMARK VINA RESULT:    -6.576     10.537     13.317
REMARK INTER + INTRA:          -8.122
REMARK INTER:                  -8.085
REMARK INTRA:                  -0.037
REMARK UNBOUND:                -0.008
REMARK  Name = /home/qwerty/github/datacon2025hack/step_04_hit_selection/docking/ligands/lig_442.pdb
REMARK  6 active torsions:
REMARK  status: ('A' for Active; 'I' for Inactive)
REMARK    1  A    between atoms: C1_1  and  C2_2
REMARK    2  A    between atoms: N1_4  and  C3_5
REMARK    3  A    between atoms: C6_8  and  C7_9
REMARK    4  A    between atoms: C8_10  and  N2_11
REMARK    5  A    between atoms: C9_12  and  C10_14
REMARK    6  A    between atoms: C16_22  and  C17_23
REMARK                            x       y       z     vdW  Elec       q    Type
REMARK                         _______ _______ _______ _____ _____    ______ ____
ROOT
ATOM      1  N2  UNL     1      10.198   8.964  24.173  0.00  0.00    -0.277 N 
ATOM      2  C9  UNL     1       9.831   8.878  25.563  0.00  0.00    +0.303 C 
ATOM      3  O2  UNL     1       8.964   8.045  25.943  0.00  0.00    -0.265 OA
ATOM      4  H10 UNL     1      11.015   9.566  23.920  0.00  0.00    +0.155 HD
ENDROOT
BRANCH   2   5
ATOM      5  C10 UNL     1      10.491   9.740  26.562  0.00  0.00    +0.302 C 
ATOM      6  O3  UNL     1      11.663   9.470  26.941  0.00  0.00    -0.265 OA
ATOM      7  N3  UNL     1       9.811  10.872  27.120  0.00  0.00    -0.289 N 
ATOM      8  C11 UNL     1       8.399  11.309  27.231  0.00  0.00    +0.117 C 
ATOM      9  C12 UNL     1       8.663  12.401  28.211  0.00  0.00    +0.005 C 
ATOM     10  C13 UNL     1       7.971  12.358  29.564  0.00  0.00    +0.010 C 
ATOM     11  C14 UNL     1       7.400  13.751  29.269  0.00  0.00    +0.001 C 
ATOM     12  C15 UNL     1       8.098  13.787  27.905  0.00  0.00    +0.010 C 
ATOM     13  C16 UNL     1      10.101  11.962  28.094  0.00  0.00    +0.087 C 
BRANCH  13  14
ATOM     14  C17 UNL     1      11.084  13.040  27.545  0.00  0.00    +0.014 C 
ATOM     15  C18 UNL     1      11.119  14.260  28.491  0.00  0.00    +0.033 C 
ATOM     16  C19 UNL     1      12.158  15.279  28.001  0.00  0.00    +0.160 C 
ATOM     17  O4  UNL     1      13.445  14.699  27.955  0.00  0.00    -0.380 OA
ATOM     18  C20 UNL     1      13.468  13.657  26.996  0.00  0.00    +0.160 C 
ATOM     19  C21 UNL     1      12.520  12.514  27.391  0.00  0.00    +0.033 C 
ENDBRANCH  13  14
ENDBRANCH   2   5
BRANCH   1  25
ATOM     20  C3  UNL     1       9.367   6.193  21.762  0.00  0.00    +0.035 A 
ATOM     21  C4  UNL     1       8.226   6.725  21.142  0.00  0.00    +0.024 A 
ATOM     22  C5  UNL     1       7.756   7.995  21.490  0.00  0.00    +0.007 A 
ATOM     23  C6  UNL     1       8.418   8.759  22.464  0.00  0.00    -0.029 A 
ATOM     24  C7  UNL     1       7.894  10.128  22.808  0.00  0.00    +0.045 C 
ATOM     25  C8  UNL     1       9.551   8.221  23.121  0.00  0.00    +0.038 A 
ATOM     26  C22 UNL     1       9.998   6.927  22.777  0.00  0.00    +0.047 A 
BRANCH  20  30
ATOM     27  C1  UNL     1      10.225   2.411  21.809  0.00  0.00    +0.109 C 
ATOM     28  C2  UNL     1       9.503   3.688  22.103  0.00  0.00    +0.214 C 
ATOM     29  O1  UNL     1       8.520   3.676  22.898  0.00  0.00    -0.276 OA
ATOM     30  N1  UNL     1       9.867   4.893  21.410  0.00  0.00    -0.286 N 
ATOM     31  H4  UNL     1      10.451   4.800  20.547  0.00  0.00    +0.155 HD
ENDBRANCH  20  30
ENDBRANCH   1  25
TORSDOF 4
ENDMDL
