MODEL 1
REMARK VINA RESULT:    -6.876      0.000      0.000
REMARK INTER + INTRA:          -8.398
REMARK INTER:                  -8.082
REMARK INTRA:                  -0.316
REMARK UNBOUND:                -0.316
REMARK  Name = /home/qwerty/github/datacon2025hack/step_04_hit_selection/docking/ligands/lig_202.pdb
REMARK  3 active torsions:
REMARK  status: ('A' for Active; 'I' for Inactive)
REMARK    1  A    between atoms: N1_3  and  C2_4
REMARK    2  A    between atoms: C5_7  and  O2_8
REMARK    3  A    between atoms: O2_8  and  C6_9
REMARK                            x       y       z     vdW  Elec       q    Type
REMARK                         _______ _______ _______ _____ _____    ______ ____
ROOT
ATOM      1  O1  UNL     1      12.572   5.490  21.854  0.00  0.00    -0.252 OA
ATOM      2  C1  UNL     1      12.602   5.927  20.672  0.00  0.00    +0.309 C 
ATOM      3  N1  UNL     1      13.486   5.336  19.707  0.00  0.00    -0.269 N 
ATOM      4  N2  UNL     1      11.802   7.060  20.296  0.00  0.00    -0.253 N 
ATOM      5  C9  UNL     1      10.790   7.641  21.142  0.00  0.00    +0.141 A 
ATOM      6  N3  UNL     1      10.290   6.918  22.182  0.00  0.00    -0.238 NA
ATOM      7  C10 UNL     1       9.321   7.388  23.004  0.00  0.00    +0.121 A 
ATOM      8  C11 UNL     1       8.787   8.662  22.802  0.00  0.00    +0.001 A 
ATOM      9  C12 UNL     1       7.783   9.154  23.649  0.00  0.00    +0.010 A 
ATOM     10  C13 UNL     1       7.254  10.429  23.442  0.00  0.00    +0.001 A 
ATOM     11  C14 UNL     1       7.722  11.219  22.392  0.00  0.00    +0.001 A 
ATOM     12  C15 UNL     1       8.723  10.741  21.541  0.00  0.00    +0.010 A 
ATOM     13  C16 UNL     1       9.272   9.455  21.731  0.00  0.00    +0.001 A 
ATOM     14  C17 UNL     1      10.286   8.938  20.891  0.00  0.00    +0.066 A 
ATOM     15 BR1  UNL     1      11.011   9.993  19.445  0.00  0.00    -0.046 Br
ATOM     16  H1  UNL     1      13.706   5.889  18.847  0.00  0.00    +0.156 HD
ATOM     17  H7  UNL     1      11.955   7.449  19.340  0.00  0.00    +0.158 HD
ENDROOT
BRANCH   3  18
ATOM     18  C2  UNL     1      14.170   4.086  19.898  0.00  0.00    +0.035 A 
ATOM     19  C3  UNL     1      13.468   2.898  20.169  0.00  0.00    +0.027 A 
ATOM     20  C4  UNL     1      14.157   1.691  20.327  0.00  0.00    +0.047 A 
ATOM     21  C5  UNL     1      15.550   1.644  20.203  0.00  0.00    +0.127 A 
ATOM     22  C7  UNL     1      16.252   2.829  19.910  0.00  0.00    +0.047 A 
ATOM     23  C8  UNL     1      15.564   4.036  19.752  0.00  0.00    +0.027 A 
BRANCH  21  24
ATOM     24  O2  UNL     1      16.191   0.408  20.374  0.00  0.00    -0.434 OA
BRANCH  24  25
ATOM     25  C6  UNL     1      16.422  -0.221  21.632  0.00  0.00    +0.541 C 
ATOM     26  F1  UNL     1      17.369  -1.213  21.474  0.00  0.00    -0.166 F 
ATOM     27  F2  UNL     1      16.890   0.708  22.544  0.00  0.00    -0.166 F 
ENDBRANCH  24  25
ENDBRANCH  21  24
ENDBRANCH   3  18
TORSDOF 3
ENDMDL
MODEL 2
REMARK VINA RESULT:    -6.727      9.374     10.869
REMARK INTER + INTRA:          -8.223
REMARK INTER:                  -7.831
REMARK INTRA:                  -0.393
REMARK UNBOUND:                -0.316
REMARK  Name = /home/qwerty/github/datacon2025hack/step_04_hit_selection/docking/ligands/lig_202.pdb
REMARK  3 active torsions:
REMARK  status: ('A' for Active; 'I' for Inactive)
REMARK    1  A    between atoms: N1_3  and  C2_4
REMARK    2  A    between atoms: C5_7  and  O2_8
REMARK    3  A    between atoms: O2_8  and  C6_9
REMARK                            x       y       z     vdW  Elec       q    Type
REMARK                         _______ _______ _______ _____ _____    ______ ____
ROOT
ATOM      1  O1  UNL     1      20.902   5.734  24.597  0.00  0.00    -0.252 OA
ATOM      2  C1  UNL     1      21.837   5.204  23.940  0.00  0.00    +0.309 C 
ATOM      3  N1  UNL     1      22.514   4.046  24.453  0.00  0.00    -0.269 N 
ATOM      4  N2  UNL     1      22.280   5.790  22.704  0.00  0.00    -0.253 N 
ATOM      5  C9  UNL     1      21.590   6.865  22.037  0.00  0.00    +0.141 A 
ATOM      6  N3  UNL     1      20.291   7.126  22.351  0.00  0.00    -0.238 NA
ATOM      7  C10 UNL     1      19.572   8.103  21.749  0.00  0.00    +0.121 A 
ATOM      8  C11 UNL     1      20.155   8.893  20.757  0.00  0.00    +0.001 A 
ATOM      9  C12 UNL     1      19.416   9.906  20.128  0.00  0.00    +0.010 A 
ATOM     10  C13 UNL     1      20.005  10.692  19.138  0.00  0.00    +0.001 A 
ATOM     11  C14 UNL     1      21.333  10.475  18.768  0.00  0.00    +0.001 A 
ATOM     12  C15 UNL     1      22.081   9.468  19.387  0.00  0.00    +0.010 A 
ATOM     13  C16 UNL     1      21.505   8.661  20.391  0.00  0.00    +0.001 A 
ATOM     14  C17 UNL     1      22.232   7.635  21.039  0.00  0.00    +0.066 A 
ATOM     15 BR1  UNL     1      24.085   7.306  20.609  0.00  0.00    -0.046 Br
ATOM     16  H1  UNL     1      23.450   3.812  24.052  0.00  0.00    +0.156 HD
ATOM     17  H7  UNL     1      23.131   5.377  22.265  0.00  0.00    +0.158 HD
ENDROOT
BRANCH   3  18
ATOM     18  C2  UNL     1      22.037   3.255  25.555  0.00  0.00    +0.035 A 
ATOM     19  C3  UNL     1      21.057   2.262  25.377  0.00  0.00    +0.027 A 
ATOM     20  C4  UNL     1      20.628   1.491  26.462  0.00  0.00    +0.047 A 
ATOM     21  C5  UNL     1      21.176   1.683  27.735  0.00  0.00    +0.127 A 
ATOM     22  C7  UNL     1      22.173   2.663  27.910  0.00  0.00    +0.047 A 
ATOM     23  C8  UNL     1      22.603   3.434  26.826  0.00  0.00    +0.027 A 
BRANCH  21  24
ATOM     24  O2  UNL     1      20.708   0.885  28.789  0.00  0.00    -0.434 OA
BRANCH  24  25
ATOM     25  C6  UNL     1      21.527   0.333  29.817  0.00  0.00    +0.541 C 
ATOM     26  F1  UNL     1      20.728  -0.042  30.879  0.00  0.00    -0.166 F 
ATOM     27  F2  UNL     1      22.196  -0.780  29.340  0.00  0.00    -0.166 F 
ENDBRANCH  24  25
ENDBRANCH  21  24
ENDBRANCH   3  18
TORSDOF 3
ENDMDL
MODEL 3
REMARK VINA RESULT:    -6.601      7.311     10.023
REMARK INTER + INTRA:          -8.075
REMARK INTER:                  -7.787
REMARK INTRA:                  -0.288
REMARK UNBOUND:                -0.316
REMARK  Name = /home/qwerty/github/datacon2025hack/step_04_hit_selection/docking/ligands/lig_202.pdb
REMARK  3 active torsions:
REMARK  status: ('A' for Active; 'I' for Inactive)
REMARK    1  A    between atoms: N1_3  and  C2_4
REMARK    2  A    between atoms: C5_7  and  O2_8
REMARK    3  A    between atoms: O2_8  and  C6_9
REMARK                            x       y       z     vdW  Elec       q    Type
REMARK                         _______ _______ _______ _____ _____    ______ ____
ROOT
ATOM      1  O1  UNL     1      17.673   7.294  20.911  0.00  0.00    -0.252 OA
ATOM      2  C1  UNL     1      16.914   7.317  19.905  0.00  0.00    +0.309 C 
ATOM      3  N1  UNL     1      16.845   8.492  19.081  0.00  0.00    -0.269 N 
ATOM      4  N2  UNL     1      16.064   6.197  19.610  0.00  0.00    -0.253 N 
ATOM      5  C9  UNL     1      16.149   4.928  20.288  0.00  0.00    +0.141 A 
ATOM      6  N3  UNL     1      17.278   4.612  20.979  0.00  0.00    -0.238 NA
ATOM      7  C10 UNL     1      17.440   3.429  21.620  0.00  0.00    +0.121 A 
ATOM      8  C11 UNL     1      16.427   2.470  21.586  0.00  0.00    +0.001 A 
ATOM      9  C12 UNL     1      16.589   1.242  22.247  0.00  0.00    +0.010 A 
ATOM     10  C13 UNL     1      15.572   0.288  22.210  0.00  0.00    +0.001 A 
ATOM     11  C14 UNL     1      14.390   0.550  21.517  0.00  0.00    +0.001 A 
ATOM     12  C15 UNL     1      14.216   1.769  20.855  0.00  0.00    +0.010 A 
ATOM     13  C16 UNL     1      15.232   2.748  20.878  0.00  0.00    +0.001 A 
ATOM     14  C17 UNL     1      15.090   3.993  20.221  0.00  0.00    +0.066 A 
ATOM     15 BR1  UNL     1      13.465   4.440  19.279  0.00  0.00    -0.046 Br
ATOM     16  H1  UNL     1      16.018   8.596  18.451  0.00  0.00    +0.156 HD
ATOM     17  H7  UNL     1      15.376   6.319  18.836  0.00  0.00    +0.158 HD
ENDROOT
BRANCH   3  18
ATOM     18  C2  UNL     1      17.783   9.580  19.147  0.00  0.00    +0.035 A 
ATOM     19  C3  UNL     1      19.149   9.391  18.871  0.00  0.00    +0.027 A 
ATOM     20  C4  UNL     1      20.035  10.472  18.920  0.00  0.00    +0.047 A 
ATOM     21  C5  UNL     1      19.576  11.758  19.226  0.00  0.00    +0.127 A 
ATOM     22  C7  UNL     1      18.204  11.952  19.480  0.00  0.00    +0.047 A 
ATOM     23  C8  UNL     1      17.318  10.872  19.432  0.00  0.00    +0.027 A 
BRANCH  21  24
ATOM     24  O2  UNL     1      20.507  12.806  19.263  0.00  0.00    -0.434 OA
BRANCH  24  25
ATOM     25  C6  UNL     1      20.244  14.142  18.844  0.00  0.00    +0.541 C 
ATOM     26  F1  UNL     1      19.742  14.860  19.911  0.00  0.00    -0.166 F 
ATOM     27  F2  UNL     1      21.414  14.739  18.410  0.00  0.00    -0.166 F 
ENDBRANCH  24  25
ENDBRANCH  21  24
ENDBRANCH   3  18
TORSDOF 3
ENDMDL
MODEL 4
REMARK VINA RESULT:    -6.331     16.880     18.176
REMARK INTER + INTRA:          -7.757
REMARK INTER:                  -7.582
REMARK INTRA:                  -0.175
REMARK UNBOUND:                -0.316
REMARK  Name = /home/qwerty/github/datacon2025hack/step_04_hit_selection/docking/ligands/lig_202.pdb
REMARK  3 active torsions:
REMARK  status: ('A' for Active; 'I' for Inactive)
REMARK    1  A    between atoms: N1_3  and  C2_4
REMARK    2  A    between atoms: C5_7  and  O2_8
REMARK    3  A    between atoms: O2_8  and  C6_9
REMARK                            x       y       z     vdW  Elec       q    Type
REMARK                         _______ _______ _______ _____ _____    ______ ____
ROOT
ATOM      1  O1  UNL     1      14.749   4.924  36.859  0.00  0.00    -0.252 OA
ATOM      2  C1  UNL     1      14.609   5.753  37.798  0.00  0.00    +0.309 C 
ATOM      3  N1  UNL     1      13.390   5.785  38.556  0.00  0.00    -0.269 N 
ATOM      4  N2  UNL     1      15.639   6.717  38.076  0.00  0.00    -0.253 N 
ATOM      5  C9  UNL     1      16.945   6.688  37.470  0.00  0.00    +0.141 A 
ATOM      6  N3  UNL     1      17.390   5.540  36.889  0.00  0.00    -0.238 NA
ATOM      7  C10 UNL     1      18.615   5.431  36.321  0.00  0.00    +0.121 A 
ATOM      8  C11 UNL     1      19.486   6.522  36.319  0.00  0.00    +0.001 A 
ATOM      9  C12 UNL     1      20.757   6.416  35.734  0.00  0.00    +0.010 A 
ATOM     10  C13 UNL     1      21.622   7.511  35.733  0.00  0.00    +0.001 A 
ATOM     11  C14 UNL     1      21.227   8.716  36.315  0.00  0.00    +0.001 A 
ATOM     12  C15 UNL     1      19.963   8.835  36.901  0.00  0.00    +0.010 A 
ATOM     13  C16 UNL     1      19.073   7.740  36.913  0.00  0.00    +0.001 A 
ATOM     14  C17 UNL     1      17.786   7.825  37.496  0.00  0.00    +0.066 A 
ATOM     15 BR1  UNL     1      17.157   9.474  38.280  0.00  0.00    -0.046 Br
ATOM     16  H1  UNL     1      13.184   6.647  39.110  0.00  0.00    +0.156 HD
ATOM     17  H7  UNL     1      15.418   7.449  38.785  0.00  0.00    +0.158 HD
ENDROOT
BRANCH   3  18
ATOM     18  C2  UNL     1      12.386   4.755  38.514  0.00  0.00    +0.035 A 
ATOM     19  C3  UNL     1      11.034   5.056  38.271  0.00  0.00    +0.027 A 
ATOM     20  C4  UNL     1      10.083   4.033  38.212  0.00  0.00    +0.047 A 
ATOM     21  C5  UNL     1      10.462   2.696  38.377  0.00  0.00    +0.127 A 
ATOM     22  C7  UNL     1      11.819   2.392  38.599  0.00  0.00    +0.047 A 
ATOM     23  C8  UNL     1      12.771   3.414  38.658  0.00  0.00    +0.027 A 
BRANCH  21  24
ATOM     24  O2  UNL     1       9.467   1.709  38.310  0.00  0.00    -0.434 OA
BRANCH  24  25
ATOM     25  C6  UNL     1       8.574   1.529  37.215  0.00  0.00    +0.541 C 
ATOM     26  F1  UNL     1       7.401   2.210  37.471  0.00  0.00    -0.166 F 
ATOM     27  F2  UNL     1       9.142   2.029  36.056  0.00  0.00    -0.166 F 
ENDBRANCH  24  25
ENDBRANCH  21  24
ENDBRANCH   3  18
TORSDOF 3
ENDMDL
MODEL 5
REMARK VINA RESULT:    -6.314     11.205     13.573
REMARK INTER + INTRA:          -7.737
REMARK INTER:                  -7.418
REMARK INTRA:                  -0.320
REMARK UNBOUND:                -0.316
REMARK  Name = /home/qwerty/github/datacon2025hack/step_04_hit_selection/docking/ligands/lig_202.pdb
REMARK  3 active torsions:
REMARK  status: ('A' for Active; 'I' for Inactive)
REMARK    1  A    between atoms: N1_3  and  C2_4
REMARK    2  A    between atoms: C5_7  and  O2_8
REMARK    3  A    between atoms: O2_8  and  C6_9
REMARK                            x       y       z     vdW  Elec       q    Type
REMARK                         _______ _______ _______ _____ _____    ______ ____
ROOT
ATOM      1  O1  UNL     1      13.759  13.117  28.690  0.00  0.00    -0.252 OA
ATOM      2  C1  UNL     1      13.537  14.176  28.044  0.00  0.00    +0.309 C 
ATOM      3  N1  UNL     1      12.324  14.318  27.287  0.00  0.00    -0.269 N 
ATOM      4  N2  UNL     1      14.521  15.222  28.003  0.00  0.00    -0.253 N 
ATOM      5  C9  UNL     1      15.704  15.240  28.825  0.00  0.00    +0.141 A 
ATOM      6  N3  UNL     1      15.758  14.458  29.939  0.00  0.00    -0.238 NA
ATOM      7  C10 UNL     1      16.826  14.440  30.772  0.00  0.00    +0.121 A 
ATOM      8  C11 UNL     1      17.933  15.249  30.511  0.00  0.00    +0.001 A 
ATOM      9  C12 UNL     1      19.041  15.237  31.370  0.00  0.00    +0.010 A 
ATOM     10  C13 UNL     1      20.145  16.047  31.102  0.00  0.00    +0.001 A 
ATOM     11  C14 UNL     1      20.151  16.873  29.978  0.00  0.00    +0.001 A 
ATOM     12  C15 UNL     1      19.053  16.894  29.113  0.00  0.00    +0.010 A 
ATOM     13  C16 UNL     1      17.926  16.084  29.365  0.00  0.00    +0.001 A 
ATOM     14  C17 UNL     1      16.798  16.080  28.512  0.00  0.00    +0.066 A 
ATOM     15 BR1  UNL     1      16.755  17.165  26.915  0.00  0.00    -0.046 Br
ATOM     16  H1  UNL     1      12.298  15.052  26.544  0.00  0.00    +0.156 HD
ATOM     17  H7  UNL     1      14.332  16.021  27.360  0.00  0.00    +0.158 HD
ENDROOT
BRANCH   3  18
ATOM     18  C2  UNL     1      11.187  13.446  27.413  0.00  0.00    +0.035 A 
ATOM     19  C3  UNL     1      11.225  12.118  26.950  0.00  0.00    +0.027 A 
ATOM     20  C4  UNL     1      10.113  11.285  27.107  0.00  0.00    +0.047 A 
ATOM     21  C5  UNL     1       8.955  11.751  27.739  0.00  0.00    +0.127 A 
ATOM     22  C7  UNL     1       8.924  13.074  28.222  0.00  0.00    +0.047 A 
ATOM     23  C8  UNL     1      10.035  13.908  28.066  0.00  0.00    +0.027 A 
BRANCH  21  24
ATOM     24  O2  UNL     1       7.868  10.874  27.867  0.00  0.00    -0.434 OA
BRANCH  24  25
ATOM     25  C6  UNL     1       7.696   9.944  28.934  0.00  0.00    +0.541 C 
ATOM     26  F1  UNL     1       8.291  10.449  30.073  0.00  0.00    -0.166 F 
ATOM     27  F2  UNL     1       6.348   9.751  29.178  0.00  0.00    -0.166 F 
ENDBRANCH  24  25
ENDBRANCH  21  24
ENDBRANCH   3  18
TORSDOF 3
ENDMDL
MODEL 6
REMARK VINA RESULT:    -6.290     10.094     13.186
REMARK INTER + INTRA:          -7.709
REMARK INTER:                  -7.356
REMARK INTRA:                  -0.353
REMARK UNBOUND:                -0.316
REMARK  Name = /home/qwerty/github/datacon2025hack/step_04_hit_selection/docking/ligands/lig_202.pdb
REMARK  3 active torsions:
REMARK  status: ('A' for Active; 'I' for Inactive)
REMARK    1  A    between atoms: N1_3  and  C2_4
REMARK    2  A    between atoms: C5_7  and  O2_8
REMARK    3  A    between atoms: O2_8  and  C6_9
REMARK                            x       y       z     vdW  Elec       q    Type
REMARK                         _______ _______ _______ _____ _____    ______ ____
ROOT
ATOM      1  O1  UNL     1       8.625   6.135  29.546  0.00  0.00    -0.252 OA
ATOM      2  C1  UNL     1       7.381   6.082  29.737  0.00  0.00    +0.309 C 
ATOM      3  N1  UNL     1       6.588   7.277  29.658  0.00  0.00    -0.269 N 
ATOM      4  N2  UNL     1       6.753   4.841  30.098  0.00  0.00    -0.253 N 
ATOM      5  C9  UNL     1       7.426   3.567  30.074  0.00  0.00    +0.141 A 
ATOM      6  N3  UNL     1       8.575   3.430  29.357  0.00  0.00    -0.238 NA
ATOM      7  C10 UNL     1       9.250   2.258  29.269  0.00  0.00    +0.121 A 
ATOM      8  C11 UNL     1       8.772   1.123  29.924  0.00  0.00    +0.001 A 
ATOM      9  C12 UNL     1       9.465  -0.094  29.836  0.00  0.00    +0.010 A 
ATOM     10  C13 UNL     1       8.982  -1.225  30.495  0.00  0.00    +0.001 A 
ATOM     11  C14 UNL     1       7.808  -1.151  31.245  0.00  0.00    +0.001 A 
ATOM     12  C15 UNL     1       7.108   0.056  31.341  0.00  0.00    +0.010 A 
ATOM     13  C16 UNL     1       7.578   1.212  30.683  0.00  0.00    +0.001 A 
ATOM     14  C17 UNL     1       6.896   2.449  30.759  0.00  0.00    +0.066 A 
ATOM     15 BR1  UNL     1       5.290   2.635  31.814  0.00  0.00    -0.046 Br
ATOM     16  H1  UNL     1       5.641   7.262  30.101  0.00  0.00    +0.156 HD
ATOM     17  H7  UNL     1       5.743   4.882  30.356  0.00  0.00    +0.158 HD
ENDROOT
BRANCH   3  18
ATOM     18  C2  UNL     1       7.055   8.521  29.109  0.00  0.00    +0.035 A 
ATOM     19  C3  UNL     1       7.332   9.629  29.931  0.00  0.00    +0.027 A 
ATOM     20  C4  UNL     1       7.809  10.819  29.373  0.00  0.00    +0.047 A 
ATOM     21  C5  UNL     1       8.033  10.922  27.995  0.00  0.00    +0.127 A 
ATOM     22  C7  UNL     1       7.776   9.807  27.175  0.00  0.00    +0.047 A 
ATOM     23  C8  UNL     1       7.300   8.616  27.732  0.00  0.00    +0.027 A 
BRANCH  21  24
ATOM     24  O2  UNL     1       8.509  12.140  27.488  0.00  0.00    -0.434 OA
BRANCH  24  25
ATOM     25  C6  UNL     1       8.670  13.332  28.253  0.00  0.00    +0.541 C 
ATOM     26  F1  UNL     1       9.605  14.141  27.638  0.00  0.00    -0.166 F 
ATOM     27  F2  UNL     1       7.466  14.010  28.328  0.00  0.00    -0.166 F 
ENDBRANCH  24  25
ENDBRANCH  21  24
ENDBRANCH   3  18
TORSDOF 3
ENDMDL
MODEL 7
REMARK VINA RESULT:    -6.228     16.373     18.831
REMARK INTER + INTRA:          -7.636
REMARK INTER:                  -7.262
REMARK INTRA:                  -0.374
REMARK UNBOUND:                -0.316
REMARK  Name = /home/qwerty/github/datacon2025hack/step_04_hit_selection/docking/ligands/lig_202.pdb
REMARK  3 active torsions:
REMARK  status: ('A' for Active; 'I' for Inactive)
REMARK    1  A    between atoms: N1_3  and  C2_4
REMARK    2  A    between atoms: C5_7  and  O2_8
REMARK    3  A    between atoms: O2_8  and  C6_9
REMARK                            x       y       z     vdW  Elec       q    Type
REMARK                         _______ _______ _______ _____ _____    ______ ____
ROOT
ATOM      1  O1  UNL     1      18.377  10.352  35.310  0.00  0.00    -0.252 OA
ATOM      2  C1  UNL     1      18.347   9.569  36.298  0.00  0.00    +0.309 C 
ATOM      3  N1  UNL     1      17.312   9.695  37.286  0.00  0.00    -0.269 N 
ATOM      4  N2  UNL     1      19.382   8.588  36.479  0.00  0.00    -0.253 N 
ATOM      5  C9  UNL     1      20.384   8.291  35.488  0.00  0.00    +0.141 A 
ATOM      6  N3  UNL     1      20.177   8.659  34.194  0.00  0.00    -0.238 NA
ATOM      7  C10 UNL     1      21.063   8.392  33.204  0.00  0.00    +0.121 A 
ATOM      8  C11 UNL     1      22.246   7.707  33.487  0.00  0.00    +0.001 A 
ATOM      9  C12 UNL     1      23.166   7.426  32.466  0.00  0.00    +0.010 A 
ATOM     10  C13 UNL     1      24.348   6.743  32.757  0.00  0.00    +0.001 A 
ATOM     11  C14 UNL     1      24.619   6.336  34.064  0.00  0.00    +0.001 A 
ATOM     12  C15 UNL     1      23.709   6.610  35.090  0.00  0.00    +0.010 A 
ATOM     13  C16 UNL     1      22.508   7.300  34.819  0.00  0.00    +0.001 A 
ATOM     14  C17 UNL     1      21.567   7.595  35.832  0.00  0.00    +0.066 A 
ATOM     15 BR1  UNL     1      21.896   7.101  37.670  0.00  0.00    -0.046 Br
ATOM     16  H1  UNL     1      17.474   9.249  38.218  0.00  0.00    +0.156 HD
ATOM     17  H7  UNL     1      19.368   8.049  37.372  0.00  0.00    +0.158 HD
ENDROOT
BRANCH   3  18
ATOM     18  C2  UNL     1      16.123  10.484  37.113  0.00  0.00    +0.035 A 
ATOM     19  C3  UNL     1      16.103  11.859  37.410  0.00  0.00    +0.027 A 
ATOM     20  C4  UNL     1      14.939  12.607  37.209  0.00  0.00    +0.047 A 
ATOM     21  C5  UNL     1      13.784  12.006  36.698  0.00  0.00    +0.127 A 
ATOM     22  C7  UNL     1      13.809  10.634  36.381  0.00  0.00    +0.047 A 
ATOM     23  C8  UNL     1      14.972   9.885  36.580  0.00  0.00    +0.027 A 
BRANCH  21  24
ATOM     24  O2  UNL     1      12.643  12.803  36.520  0.00  0.00    -0.434 OA
BRANCH  24  25
ATOM     25  C6  UNL     1      11.319  12.301  36.360  0.00  0.00    +0.541 C 
ATOM     26  F1  UNL     1      10.798  11.997  37.602  0.00  0.00    -0.166 F 
ATOM     27  F2  UNL     1      10.521  13.257  35.758  0.00  0.00    -0.166 F 
ENDBRANCH  24  25
ENDBRANCH  21  24
ENDBRANCH   3  18
TORSDOF 3
ENDMDL
MODEL 8
REMARK VINA RESULT:    -6.209     12.041     14.548
REMARK INTER + INTRA:          -7.614
REMARK INTER:                  -7.265
REMARK INTRA:                  -0.349
REMARK UNBOUND:                -0.316
REMARK  Name = /home/qwerty/github/datacon2025hack/step_04_hit_selection/docking/ligands/lig_202.pdb
REMARK  3 active torsions:
REMARK  status: ('A' for Active; 'I' for Inactive)
REMARK    1  A    between atoms: N1_3  and  C2_4
REMARK    2  A    between atoms: C5_7  and  O2_8
REMARK    3  A    between atoms: O2_8  and  C6_9
REMARK                            x       y       z     vdW  Elec       q    Type
REMARK                         _______ _______ _______ _____ _____    ______ ____
ROOT
ATOM      1  O1  UNL     1      15.718  13.600  28.003  0.00  0.00    -0.252 OA
ATOM      2  C1  UNL     1      15.604  14.804  27.649  0.00  0.00    +0.309 C 
ATOM      3  N1  UNL     1      14.305  15.410  27.560  0.00  0.00    -0.269 N 
ATOM      4  N2  UNL     1      16.764  15.563  27.268  0.00  0.00    -0.253 N 
ATOM      5  C9  UNL     1      18.117  15.098  27.445  0.00  0.00    +0.141 A 
ATOM      6  N3  UNL     1      18.368  14.083  28.316  0.00  0.00    -0.238 NA
ATOM      7  C10 UNL     1      19.616  13.610  28.553  0.00  0.00    +0.121 A 
ATOM      8  C11 UNL     1      20.713  14.169  27.895  0.00  0.00    +0.001 A 
ATOM      9  C12 UNL     1      22.008  13.685  28.137  0.00  0.00    +0.010 A 
ATOM     10  C13 UNL     1      23.100  14.247  27.475  0.00  0.00    +0.001 A 
ATOM     11  C14 UNL     1      22.910  15.292  26.571  0.00  0.00    +0.001 A 
ATOM     12  C15 UNL     1      21.625  15.783  26.321  0.00  0.00    +0.010 A 
ATOM     13  C16 UNL     1      20.506  15.230  26.980  0.00  0.00    +0.001 A 
ATOM     14  C17 UNL     1      19.191  15.701  26.751  0.00  0.00    +0.066 A 
ATOM     15 BR1  UNL     1      18.849  17.115  25.481  0.00  0.00    -0.046 Br
ATOM     16  H1  UNL     1      14.214  16.285  26.996  0.00  0.00    +0.156 HD
ATOM     17  H7  UNL     1      16.596  16.514  26.874  0.00  0.00    +0.158 HD
ENDROOT
BRANCH   3  18
ATOM     18  C2  UNL     1      13.106  14.832  28.105  0.00  0.00    +0.035 A 
ATOM     19  C3  UNL     1      12.147  14.216  27.281  0.00  0.00    +0.027 A 
ATOM     20  C4  UNL     1      11.002  13.641  27.841  0.00  0.00    +0.047 A 
ATOM     21  C5  UNL     1      10.800  13.654  29.225  0.00  0.00    +0.127 A 
ATOM     22  C7  UNL     1      11.770  14.251  30.053  0.00  0.00    +0.047 A 
ATOM     23  C8  UNL     1      12.915  14.826  29.495  0.00  0.00    +0.027 A 
BRANCH  21  24
ATOM     24  O2  UNL     1       9.632  13.064  29.733  0.00  0.00    -0.434 OA
BRANCH  24  25
ATOM     25  C6  UNL     1       8.311  13.369  29.293  0.00  0.00    +0.541 C 
ATOM     26  F1  UNL     1       7.579  12.201  29.220  0.00  0.00    -0.166 F 
ATOM     27  F2  UNL     1       7.702  14.228  30.190  0.00  0.00    -0.166 F 
ENDBRANCH  24  25
ENDBRANCH  21  24
ENDBRANCH   3  18
TORSDOF 3
ENDMDL
MODEL 9
REMARK VINA RESULT:    -6.049      4.954     10.091
REMARK INTER + INTRA:          -7.426
REMARK INTER:                  -7.037
REMARK INTRA:                  -0.388
REMARK UNBOUND:                -0.316
REMARK  Name = /home/qwerty/github/datacon2025hack/step_04_hit_selection/docking/ligands/lig_202.pdb
REMARK  3 active torsions:
REMARK  status: ('A' for Active; 'I' for Inactive)
REMARK    1  A    between atoms: N1_3  and  C2_4
REMARK    2  A    between atoms: C5_7  and  O2_8
REMARK    3  A    between atoms: O2_8  and  C6_9
REMARK                            x       y       z     vdW  Elec       q    Type
REMARK                         _______ _______ _______ _____ _____    ______ ____
ROOT
ATOM      1  O1  UNL     1      12.155   4.928  22.125  0.00  0.00    -0.252 OA
ATOM      2  C1  UNL     1      11.503   4.154  22.875  0.00  0.00    +0.309 C 
ATOM      3  N1  UNL     1      10.330   4.628  23.557  0.00  0.00    -0.269 N 
ATOM      4  N2  UNL     1      11.959   2.811  23.108  0.00  0.00    -0.253 N 
ATOM      5  C9  UNL     1      13.039   2.196  22.378  0.00  0.00    +0.141 A 
ATOM      6  N3  UNL     1      13.430   2.726  21.187  0.00  0.00    -0.238 NA
ATOM      7  C10 UNL     1      14.420   2.189  20.433  0.00  0.00    +0.121 A 
ATOM      8  C11 UNL     1      15.084   1.040  20.866  0.00  0.00    +0.001 A 
ATOM      9  C12 UNL     1      16.109   0.477  20.090  0.00  0.00    +0.010 A 
ATOM     10  C13 UNL     1      16.770  -0.670  20.528  0.00  0.00    +0.001 A 
ATOM     11  C14 UNL     1      16.415  -1.264  21.740  0.00  0.00    +0.001 A 
ATOM     12  C15 UNL     1      15.396  -0.713  22.523  0.00  0.00    +0.010 A 
ATOM     13  C16 UNL     1      14.713   0.447  22.098  0.00  0.00    +0.001 A 
ATOM     14  C17 UNL     1      13.678   1.032  22.865  0.00  0.00    +0.066 A 
ATOM     15 BR1  UNL     1      13.164   0.290  24.572  0.00  0.00    -0.046 Br
ATOM     16  H1  UNL     1       9.990   4.080  24.378  0.00  0.00    +0.156 HD
ATOM     17  H7  UNL     1      11.445   2.257  23.827  0.00  0.00    +0.158 HD
ENDROOT
BRANCH   3  18
ATOM     18  C2  UNL     1       9.663   5.865  23.250  0.00  0.00    +0.035 A 
ATOM     19  C3  UNL     1       9.895   7.031  24.001  0.00  0.00    +0.027 A 
ATOM     20  C4  UNL     1       9.251   8.226  23.665  0.00  0.00    +0.047 A 
ATOM     21  C5  UNL     1       8.381   8.285  22.571  0.00  0.00    +0.127 A 
ATOM     22  C7  UNL     1       8.165   7.123  21.804  0.00  0.00    +0.047 A 
ATOM     23  C8  UNL     1       8.809   5.928  22.139  0.00  0.00    +0.027 A 
BRANCH  21  24
ATOM     24  O2  UNL     1       7.759   9.508  22.280  0.00  0.00    -0.434 OA
BRANCH  24  25
ATOM     25  C6  UNL     1       8.291  10.503  21.409  0.00  0.00    +0.541 C 
ATOM     26  F1  UNL     1       7.539  11.655  21.527  0.00  0.00    -0.166 F 
ATOM     27  F2  UNL     1       9.601  10.782  21.756  0.00  0.00    -0.166 F 
ENDBRANCH  24  25
ENDBRANCH  21  24
ENDBRANCH   3  18
TORSDOF 3
ENDMDL
