REMARK  Name = /home/qwerty/github/datacon2025hack/step_04_hit_selection/docking/ligands/lig_692.pdb
REMARK  10 active torsions:
REMARK  status: ('A' for Active; 'I' for Inactive)
REMARK    1  A    between atoms: C1_1  and  C2_2
REMARK    2  A    between atoms: C6_8  and  C7_9
REMARK    3  A    between atoms: C7_9  and  N2_10
REMARK    4  A    between atoms: N3_13  and  C9_14
REMARK    5  A    between atoms: C12_17  and  O3_18
REMARK    6  A    between atoms: O3_18  and  C13_19
REMARK    7  A    between atoms: C16_22  and  C17_23
REMARK    8  A    between atoms: C17_23  and  C18_24
REMARK    9  A    between atoms: C17_23  and  C19_25
REMARK   10  A    between atoms: C17_23  and  C20_26
REMARK                            x       y       z     vdW  Elec       q    Type
REMARK                         _______ _______ _______ _____ _____    ______ ____
ROOT
ATOM      1  C9  UNL     1       0.197  -2.261  -0.440  0.00  0.00    +0.053 A 
ATOM      2  C10 UNL     1       0.797  -3.503  -0.197  0.00  0.00    +0.030 A 
ATOM      3  C11 UNL     1       2.187  -3.611  -0.128  0.00  0.00    +0.069 A 
ATOM      4  C12 UNL     1       2.975  -2.473  -0.313  0.00  0.00    +0.221 A 
ATOM      5  N4  UNL     1       2.378  -1.280  -0.588  0.00  0.00    -0.219 NA
ATOM      6  C23 UNL     1       1.026  -1.148  -0.657  0.00  0.00    +0.138 A 
ENDROOT
BRANCH   1  10
ATOM      7  N2  UNL     1      -3.390  -0.945  -0.409  0.00  0.00    -0.299 N 
ATOM      8  C8  UNL     1      -1.992  -1.019  -0.109  0.00  0.00    +0.304 C 
ATOM      9  O2  UNL     1      -1.441  -0.096   0.552  0.00  0.00    -0.253 OA
ATOM     10  N3  UNL     1      -1.235  -2.166  -0.525  0.00  0.00    -0.268 N 
ATOM     11  H13 UNL     1      -3.819  -1.718  -0.966  0.00  0.00    +0.150 HD
ATOM     12  H14 UNL     1      -1.767  -3.016  -0.821  0.00  0.00    +0.156 HD
BRANCH   7  13
ATOM     13  C7  UNL     1      -4.204   0.195   0.017  0.00  0.00    +0.110 C 
BRANCH  13  21
ATOM     14  C1  UNL     1     -10.165   2.294  -0.700  0.00  0.00    +0.109 C 
ATOM     15  C2  UNL     1      -8.692   2.152  -0.948  0.00  0.00    +0.212 C 
ATOM     16  O1  UNL     1      -8.138   2.967  -1.735  0.00  0.00    -0.276 OA
ATOM     17  N1  UNL     1      -7.914   1.097  -0.336  0.00  0.00    -0.301 N 
ATOM     18  C3  UNL     1      -8.568  -0.015   0.372  0.00  0.00    +0.108 C 
ATOM     19  C4  UNL     1      -7.791  -1.317   0.164  0.00  0.00    +0.019 C 
ATOM     20  C5  UNL     1      -6.313  -1.137   0.513  0.00  0.00    +0.008 C 
ATOM     21  C6  UNL     1      -5.693  -0.007  -0.331  0.00  0.00    +0.024 C 
ATOM     22  C24 UNL     1      -6.474   1.302  -0.108  0.00  0.00    +0.112 C 
ENDBRANCH  13  21
ENDBRANCH   7  13
ENDBRANCH   1  10
BRANCH   4  23
ATOM     23  O3  UNL     1       4.370  -2.590  -0.256  0.00  0.00    -0.438 OA
BRANCH  23  24
ATOM     24  C13 UNL     1       5.265  -1.526  -0.063  0.00  0.00    +0.130 A 
ATOM     25  C14 UNL     1       4.929  -0.391   0.689  0.00  0.00    +0.046 A 
ATOM     26  C15 UNL     1       5.856   0.639   0.873  0.00  0.00    +0.008 A 
ATOM     27  C16 UNL     1       7.154   0.559   0.317  0.00  0.00    -0.042 A 
ATOM     28  C21 UNL     1       7.479  -0.602  -0.420  0.00  0.00    +0.008 A 
ATOM     29  C22 UNL     1       6.549  -1.628  -0.601  0.00  0.00    +0.046 A 
BRANCH  27  30
ATOM     30  C17 UNL     1       8.212   1.667   0.499  0.00  0.00    -0.013 C 
ATOM     31  C18 UNL     1       8.651   2.194  -0.885  0.00  0.00    +0.015 C 
ATOM     32  C19 UNL     1       9.437   1.091   1.241  0.00  0.00    +0.015 C 
ATOM     33  C20 UNL     1       7.691   2.874   1.316  0.00  0.00    +0.015 C 
ENDBRANCH  27  30
ENDBRANCH  23  24
ENDBRANCH   4  23
TORSDOF 6
