MODEL 1
REMARK VINA RESULT:    -6.311      0.000      0.000
REMARK INTER + INTRA:          -8.992
REMARK INTER:                  -8.340
REMARK INTRA:                  -0.652
REMARK UNBOUND:                -0.652
REMARK  Name = /home/qwerty/github/datacon2025hack/step_04_hit_selection/docking/ligands/lig_449.pdb
REMARK  9 active torsions:
REMARK  status: ('A' for Active; 'I' for Inactive)
REMARK    1  A    between atoms: C1_1  and  C2_2
REMARK    2  A    between atoms: C2_2  and  C3_3
REMARK    3  A    between atoms: C2_2  and  C4_4
REMARK    4  A    between atoms: C2_2  and  O1_5
REMARK    5  A    between atoms: O1_5  and  C5_6
REMARK    6  A    between atoms: C7_10  and  N2_11
REMARK    7  A    between atoms: C9_13  and  N3_14
REMARK    8  A    between atoms: C10_15  and  C11_17
REMARK    9  A    between atoms: C15_22  and  O4_23
REMARK                            x       y       z     vdW  Elec       q    Type
REMARK                         _______ _______ _______ _____ _____    ______ ____
ROOT
ATOM      1  N2  UNL     1      20.883   6.405  35.655  0.00  0.00    -0.294 N 
ATOM      2  C8  UNL     1      19.497   6.753  35.398  0.00  0.00    +0.131 C 
ATOM      3  C9  UNL     1      18.976   7.407  36.700  0.00  0.00    +0.099 C 
ATOM      4  C17 UNL     1      20.217   7.766  37.536  0.00  0.00    +0.119 C 
ATOM      5  C18 UNL     1      21.294   7.004  36.876  0.00  0.00    +0.218 C 
ATOM      6  O5  UNL     1      22.462   6.912  37.340  0.00  0.00    -0.276 OA
ENDROOT
BRANCH   1  11
ATOM      7  C5  UNL     1      22.485   6.968  31.395  0.00  0.00    +0.403 C 
ATOM      8  O2  UNL     1      21.716   6.717  30.429  0.00  0.00    -0.226 OA
ATOM      9  N1  UNL     1      22.182   6.446  32.684  0.00  0.00    -0.264 N 
ATOM     10  C6  UNL     1      22.772   6.481  34.035  0.00  0.00    +0.135 C 
ATOM     11  C7  UNL     1      21.705   5.659  34.687  0.00  0.00    +0.111 C 
ATOM     12  C19 UNL     1      21.132   5.614  33.305  0.00  0.00    +0.135 C 
BRANCH   7  13
ATOM     13  O1  UNL     1      23.634   7.754  31.230  0.00  0.00    -0.445 OA
BRANCH  13  15
ATOM     14  C1  UNL     1      24.111   9.929  30.352  0.00  0.00    +0.055 C 
ATOM     15  C2  UNL     1      23.787   9.127  31.622  0.00  0.00    +0.107 C 
ATOM     16  C3  UNL     1      24.953   9.280  32.618  0.00  0.00    +0.055 C 
ATOM     17  C4  UNL     1      22.478   9.666  32.230  0.00  0.00    +0.055 C 
ENDBRANCH  13  15
ENDBRANCH   7  13
ENDBRANCH   1  11
BRANCH   3  18
ATOM     18  N3  UNL     1      18.150   8.592  36.437  0.00  0.00    -0.307 N 
ATOM     19  C10 UNL     1      16.921   8.828  37.146  0.00  0.00    +0.244 C 
ATOM     20  O3  UNL     1      16.443   7.919  37.880  0.00  0.00    -0.270 OA
ATOM     21  H16 UNL     1      18.414   9.241  35.662  0.00  0.00    +0.149 HD
BRANCH  19  22
ATOM     22  C11 UNL     1      16.197  10.115  37.016  0.00  0.00    +0.040 A 
ATOM     23  C12 UNL     1      14.862  10.128  36.575  0.00  0.00    +0.015 A 
ATOM     24  C13 UNL     1      14.166  11.334  36.455  0.00  0.00    +0.024 A 
ATOM     25  C14 UNL     1      14.790  12.541  36.779  0.00  0.00    +0.082 A 
ATOM     26 CL1  UNL     1      13.897  14.046  36.621  0.00  0.00    -0.080 Cl
ATOM     27  C15 UNL     1      16.115  12.544  37.234  0.00  0.00    +0.136 A 
ATOM     28  C16 UNL     1      16.815  11.333  37.353  0.00  0.00    +0.060 A 
BRANCH  27  29
ATOM     29  O4  UNL     1      16.733  13.748  37.569  0.00  0.00    -0.505 OA
ATOM     30  H19 UNL     1      17.513  14.113  37.033  0.00  0.00    +0.292 HD
ENDBRANCH  27  29
ENDBRANCH  19  22
ENDBRANCH   3  18
TORSDOF 6
ENDMDL
MODEL 2
REMARK VINA RESULT:    -6.283      9.109     12.875
REMARK INTER + INTRA:          -8.954
REMARK INTER:                  -8.194
REMARK INTRA:                  -0.761
REMARK UNBOUND:                -0.652
REMARK  Name = /home/qwerty/github/datacon2025hack/step_04_hit_selection/docking/ligands/lig_449.pdb
REMARK  9 active torsions:
REMARK  status: ('A' for Active; 'I' for Inactive)
REMARK    1  A    between atoms: C1_1  and  C2_2
REMARK    2  A    between atoms: C2_2  and  C3_3
REMARK    3  A    between atoms: C2_2  and  C4_4
REMARK    4  A    between atoms: C2_2  and  O1_5
REMARK    5  A    between atoms: O1_5  and  C5_6
REMARK    6  A    between atoms: C7_10  and  N2_11
REMARK    7  A    between atoms: C9_13  and  N3_14
REMARK    8  A    between atoms: C10_15  and  C11_17
REMARK    9  A    between atoms: C15_22  and  O4_23
REMARK                            x       y       z     vdW  Elec       q    Type
REMARK                         _______ _______ _______ _____ _____    ______ ____
ROOT
ATOM      1  N2  UNL     1      11.682  14.167  31.059  0.00  0.00    -0.294 N 
ATOM      2  C8  UNL     1      10.440  13.419  30.979  0.00  0.00    +0.131 C 
ATOM      3  C9  UNL     1      10.314  12.961  29.506  0.00  0.00    +0.099 C 
ATOM      4  C17 UNL     1      11.706  13.139  28.873  0.00  0.00    +0.119 C 
ATOM      5  C18 UNL     1      12.411  13.988  29.852  0.00  0.00    +0.218 C 
ATOM      6  O5  UNL     1      13.549  14.485  29.644  0.00  0.00    -0.276 OA
ENDROOT
BRANCH   1  11
ATOM      7  C5  UNL     1      11.304  13.627  35.597  0.00  0.00    +0.403 C 
ATOM      8  O2  UNL     1      10.239  14.000  36.157  0.00  0.00    -0.226 OA
ATOM      9  N1  UNL     1      11.623  14.121  34.301  0.00  0.00    -0.264 N 
ATOM     10  C6  UNL     1      12.710  13.964  33.317  0.00  0.00    +0.135 C 
ATOM     11  C7  UNL     1      12.110  14.864  32.283  0.00  0.00    +0.111 C 
ATOM     12  C19 UNL     1      11.026  15.030  33.303  0.00  0.00    +0.135 C 
BRANCH   7  13
ATOM     13  O1  UNL     1      12.185  12.733  36.222  0.00  0.00    -0.445 OA
BRANCH  13  15
ATOM     14  C1  UNL     1      13.410  10.683  36.383  0.00  0.00    +0.055 C 
ATOM     15  C2  UNL     1      12.009  11.313  36.341  0.00  0.00    +0.107 C 
ATOM     16  C3  UNL     1      11.248  10.755  35.123  0.00  0.00    +0.055 C 
ATOM     17  C4  UNL     1      11.270  10.967  37.648  0.00  0.00    +0.055 C 
ENDBRANCH  13  15
ENDBRANCH   7  13
ENDBRANCH   1  11
BRANCH   3  18
ATOM     18  N3  UNL     1       9.849  11.574  29.391  0.00  0.00    -0.307 N 
ATOM     19  C10 UNL     1       8.450  11.243  29.414  0.00  0.00    +0.244 C 
ATOM     20  O3  UNL     1       7.606  12.130  29.719  0.00  0.00    -0.270 OA
ATOM     21  H16 UNL     1      10.548  10.798  29.371  0.00  0.00    +0.149 HD
BRANCH  19  22
ATOM     22  C11 UNL     1       7.982   9.871  29.103  0.00  0.00    +0.040 A 
ATOM     23  C12 UNL     1       7.878   9.450  27.766  0.00  0.00    +0.015 A 
ATOM     24  C13 UNL     1       7.444   8.157  27.461  0.00  0.00    +0.024 A 
ATOM     25  C14 UNL     1       7.117   7.265  28.484  0.00  0.00    +0.082 A 
ATOM     26 CL1  UNL     1       6.575   5.644  28.078  0.00  0.00    -0.080 Cl
ATOM     27  C15 UNL     1       7.230   7.664  29.822  0.00  0.00    +0.136 A 
ATOM     28  C16 UNL     1       7.663   8.963  30.129  0.00  0.00    +0.060 A 
BRANCH  27  29
ATOM     29  O4  UNL     1       6.914   6.768  30.843  0.00  0.00    -0.505 OA
ATOM     30  H19 UNL     1       7.569   6.055  31.146  0.00  0.00    +0.292 HD
ENDBRANCH  27  29
ENDBRANCH  19  22
ENDBRANCH   3  18
TORSDOF 6
ENDMDL
MODEL 3
REMARK VINA RESULT:    -6.239      8.994     12.622
REMARK INTER + INTRA:          -8.896
REMARK INTER:                  -8.178
REMARK INTRA:                  -0.718
REMARK UNBOUND:                -0.652
REMARK  Name = /home/qwerty/github/datacon2025hack/step_04_hit_selection/docking/ligands/lig_449.pdb
REMARK  9 active torsions:
REMARK  status: ('A' for Active; 'I' for Inactive)
REMARK    1  A    between atoms: C1_1  and  C2_2
REMARK    2  A    between atoms: C2_2  and  C3_3
REMARK    3  A    between atoms: C2_2  and  C4_4
REMARK    4  A    between atoms: C2_2  and  O1_5
REMARK    5  A    between atoms: O1_5  and  C5_6
REMARK    6  A    between atoms: C7_10  and  N2_11
REMARK    7  A    between atoms: C9_13  and  N3_14
REMARK    8  A    between atoms: C10_15  and  C11_17
REMARK    9  A    between atoms: C15_22  and  O4_23
REMARK                            x       y       z     vdW  Elec       q    Type
REMARK                         _______ _______ _______ _____ _____    ______ ____
ROOT
ATOM      1  N2  UNL     1      11.998  14.474  30.257  0.00  0.00    -0.294 N 
ATOM      2  C8  UNL     1      10.744  13.795  30.538  0.00  0.00    +0.131 C 
ATOM      3  C9  UNL     1      10.089  13.528  29.162  0.00  0.00    +0.099 C 
ATOM      4  C17 UNL     1      11.193  13.721  28.107  0.00  0.00    +0.119 C 
ATOM      5  C18 UNL     1      12.256  14.412  28.861  0.00  0.00    +0.218 C 
ATOM      6  O5  UNL     1      13.293  14.881  28.322  0.00  0.00    -0.276 OA
ENDROOT
BRANCH   1  11
ATOM      7  C5  UNL     1      12.969  13.534  34.639  0.00  0.00    +0.403 C 
ATOM      8  O2  UNL     1      12.189  13.964  35.530  0.00  0.00    -0.226 OA
ATOM      9  N1  UNL     1      12.935  14.116  33.340  0.00  0.00    -0.264 N 
ATOM     10  C6  UNL     1      13.635  13.939  32.054  0.00  0.00    +0.135 C 
ATOM     11  C7  UNL     1      12.871  14.996  31.320  0.00  0.00    +0.111 C 
ATOM     12  C19 UNL     1      12.187  15.178  32.640  0.00  0.00    +0.135 C 
BRANCH   7  13
ATOM     13  O1  UNL     1      13.871  12.492  34.897  0.00  0.00    -0.445 OA
BRANCH  13  15
ATOM     14  C1  UNL     1      16.079  11.574  34.983  0.00  0.00    +0.055 C 
ATOM     15  C2  UNL     1      15.118  12.603  35.599  0.00  0.00    +0.107 C 
ATOM     16  C3  UNL     1      14.930  12.277  37.093  0.00  0.00    +0.055 C 
ATOM     17  C4  UNL     1      15.717  14.011  35.421  0.00  0.00    +0.055 C 
ENDBRANCH  13  15
ENDBRANCH   7  13
ENDBRANCH   1  11
BRANCH   3  18
ATOM     18  N3  UNL     1       9.499  12.186  29.077  0.00  0.00    -0.307 N 
ATOM     19  C10 UNL     1       8.446  11.883  28.146  0.00  0.00    +0.244 C 
ATOM     20  O3  UNL     1       7.887  12.820  27.512  0.00  0.00    -0.270 OA
ATOM     21  H16 UNL     1       9.791  11.452  29.760  0.00  0.00    +0.149 HD
BRANCH  19  22
ATOM     22  C11 UNL     1       7.993  10.488  27.930  0.00  0.00    +0.040 A 
ATOM     23  C12 UNL     1       8.048   9.922  26.643  0.00  0.00    +0.015 A 
ATOM     24  C13 UNL     1       7.630   8.606  26.429  0.00  0.00    +0.024 A 
ATOM     25  C14 UNL     1       7.159   7.835  27.495  0.00  0.00    +0.082 A 
ATOM     26 CL1  UNL     1       6.639   6.183  27.202  0.00  0.00    -0.080 Cl
ATOM     27  C15 UNL     1       7.112   8.379  28.784  0.00  0.00    +0.136 A 
ATOM     28  C16 UNL     1       7.530   9.701  29.000  0.00  0.00    +0.060 A 
BRANCH  27  29
ATOM     29  O4  UNL     1       6.653   7.604  29.849  0.00  0.00    -0.505 OA
ATOM     30  H19 UNL     1       6.316   6.658  29.711  0.00  0.00    +0.292 HD
ENDBRANCH  27  29
ENDBRANCH  19  22
ENDBRANCH   3  18
TORSDOF 6
ENDMDL
MODEL 4
REMARK VINA RESULT:    -6.236     12.960     15.619
REMARK INTER + INTRA:          -8.893
REMARK INTER:                  -8.191
REMARK INTRA:                  -0.703
REMARK UNBOUND:                -0.652
REMARK  Name = /home/qwerty/github/datacon2025hack/step_04_hit_selection/docking/ligands/lig_449.pdb
REMARK  9 active torsions:
REMARK  status: ('A' for Active; 'I' for Inactive)
REMARK    1  A    between atoms: C1_1  and  C2_2
REMARK    2  A    between atoms: C2_2  and  C3_3
REMARK    3  A    between atoms: C2_2  and  C4_4
REMARK    4  A    between atoms: C2_2  and  O1_5
REMARK    5  A    between atoms: O1_5  and  C5_6
REMARK    6  A    between atoms: C7_10  and  N2_11
REMARK    7  A    between atoms: C9_13  and  N3_14
REMARK    8  A    between atoms: C10_15  and  C11_17
REMARK    9  A    between atoms: C15_22  and  O4_23
REMARK                            x       y       z     vdW  Elec       q    Type
REMARK                         _______ _______ _______ _____ _____    ______ ____
ROOT
ATOM      1  N2  UNL     1       8.324  11.199  27.944  0.00  0.00    -0.294 N 
ATOM      2  C8  UNL     1       8.868  10.778  26.665  0.00  0.00    +0.131 C 
ATOM      3  C9  UNL     1       8.772   9.233  26.651  0.00  0.00    +0.099 C 
ATOM      4  C17 UNL     1       7.804   8.845  27.784  0.00  0.00    +0.119 C 
ATOM      5  C18 UNL     1       7.701  10.087  28.573  0.00  0.00    +0.218 C 
ATOM      6  O5  UNL     1       7.104  10.156  29.680  0.00  0.00    -0.276 OA
ENDROOT
BRANCH   1  11
ATOM      7  C5  UNL     1      11.394  14.302  29.348  0.00  0.00    +0.403 C 
ATOM      8  O2  UNL     1      11.772  14.270  30.550  0.00  0.00    -0.226 OA
ATOM      9  N1  UNL     1      10.190  13.643  28.974  0.00  0.00    -0.264 N 
ATOM     10  C6  UNL     1       9.404  13.433  27.744  0.00  0.00    +0.135 C 
ATOM     11  C7  UNL     1       8.337  12.603  28.386  0.00  0.00    +0.111 C 
ATOM     12  C19 UNL     1       9.134  12.846  29.630  0.00  0.00    +0.135 C 
BRANCH   7  13
ATOM     13  O1  UNL     1      12.138  14.973  28.366  0.00  0.00    -0.445 OA
BRANCH  13  15
ATOM     14  C1  UNL     1      13.201  14.977  26.222  0.00  0.00    +0.055 C 
ATOM     15  C2  UNL     1      13.280  14.457  27.666  0.00  0.00    +0.107 C 
ATOM     16  C3  UNL     1      13.253  12.917  27.642  0.00  0.00    +0.055 C 
ATOM     17  C4  UNL     1      14.584  14.968  28.307  0.00  0.00    +0.055 C 
ENDBRANCH  13  15
ENDBRANCH   7  13
ENDBRANCH   1  11
BRANCH   3  18
ATOM     18  N3  UNL     1       8.313   8.714  25.357  0.00  0.00    -0.307 N 
ATOM     19  C10 UNL     1       9.002   7.645  24.686  0.00  0.00    +0.244 C 
ATOM     20  O3  UNL     1      10.123   7.260  25.119  0.00  0.00    -0.270 OA
ATOM     21  H16 UNL     1       7.516   9.181  24.869  0.00  0.00    +0.149 HD
BRANCH  19  22
ATOM     22  C11 UNL     1       8.426   6.998  23.483  0.00  0.00    +0.040 A 
ATOM     23  C12 UNL     1       8.110   7.772  22.352  0.00  0.00    +0.015 A 
ATOM     24  C13 UNL     1       7.572   7.173  21.210  0.00  0.00    +0.024 A 
ATOM     25  C14 UNL     1       7.349   5.794  21.178  0.00  0.00    +0.082 A 
ATOM     26 CL1  UNL     1       6.672   5.062  19.732  0.00  0.00    -0.080 Cl
ATOM     27  C15 UNL     1       7.671   5.007  22.291  0.00  0.00    +0.136 A 
ATOM     28  C16 UNL     1       8.210   5.609  23.439  0.00  0.00    +0.060 A 
BRANCH  27  29
ATOM     29  O4  UNL     1       7.459   3.629  22.253  0.00  0.00    -0.505 OA
ATOM     30  H19 UNL     1       7.154   3.162  21.407  0.00  0.00    +0.292 HD
ENDBRANCH  27  29
ENDBRANCH  19  22
ENDBRANCH   3  18
TORSDOF 6
ENDMDL
MODEL 5
REMARK VINA RESULT:    -6.197      6.121     10.292
REMARK INTER + INTRA:          -8.841
REMARK INTER:                  -8.234
REMARK INTRA:                  -0.607
REMARK UNBOUND:                -0.652
REMARK  Name = /home/qwerty/github/datacon2025hack/step_04_hit_selection/docking/ligands/lig_449.pdb
REMARK  9 active torsions:
REMARK  status: ('A' for Active; 'I' for Inactive)
REMARK    1  A    between atoms: C1_1  and  C2_2
REMARK    2  A    between atoms: C2_2  and  C3_3
REMARK    3  A    between atoms: C2_2  and  C4_4
REMARK    4  A    between atoms: C2_2  and  O1_5
REMARK    5  A    between atoms: O1_5  and  C5_6
REMARK    6  A    between atoms: C7_10  and  N2_11
REMARK    7  A    between atoms: C9_13  and  N3_14
REMARK    8  A    between atoms: C10_15  and  C11_17
REMARK    9  A    between atoms: C15_22  and  O4_23
REMARK                            x       y       z     vdW  Elec       q    Type
REMARK                         _______ _______ _______ _____ _____    ______ ____
ROOT
ATOM      1  N2  UNL     1      12.713  14.226  34.092  0.00  0.00    -0.294 N 
ATOM      2  C8  UNL     1      14.076  13.750  34.251  0.00  0.00    +0.131 C 
ATOM      3  C9  UNL     1      14.205  13.321  35.733  0.00  0.00    +0.099 C 
ATOM      4  C17 UNL     1      12.771  13.204  36.280  0.00  0.00    +0.119 C 
ATOM      5  C18 UNL     1      11.966  13.893  35.255  0.00  0.00    +0.218 C 
ATOM      6  O5  UNL     1      10.739  14.143  35.391  0.00  0.00    -0.276 OA
ENDROOT
BRANCH   1  11
ATOM      7  C5  UNL     1      12.070  12.962  29.731  0.00  0.00    +0.403 C 
ATOM      8  O2  UNL     1      13.063  12.966  28.955  0.00  0.00    -0.226 OA
ATOM      9  N1  UNL     1      12.129  13.702  30.946  0.00  0.00    -0.264 N 
ATOM     10  C6  UNL     1      11.247  13.971  32.096  0.00  0.00    +0.135 C 
ATOM     11  C7  UNL     1      12.225  14.826  32.840  0.00  0.00    +0.111 C 
ATOM     12  C19 UNL     1      13.099  14.562  31.653  0.00  0.00    +0.135 C 
BRANCH   7  13
ATOM     13  O1  UNL     1      10.906  12.242  29.427  0.00  0.00    -0.445 OA
BRANCH  13  15
ATOM     14  C1  UNL     1       9.305  11.541  27.792  0.00  0.00    +0.055 C 
ATOM     15  C2  UNL     1       9.793  12.715  28.654  0.00  0.00    +0.107 C 
ATOM     16  C3  UNL     1      10.226  13.868  27.727  0.00  0.00    +0.055 C 
ATOM     17  C4  UNL     1       8.644  13.164  29.578  0.00  0.00    +0.055 C 
ENDBRANCH  13  15
ENDBRANCH   7  13
ENDBRANCH   1  11
BRANCH   3  18
ATOM     18  N3  UNL     1      14.939  12.059  35.886  0.00  0.00    -0.307 N 
ATOM     19  C10 UNL     1      16.129  11.971  36.688  0.00  0.00    +0.244 C 
ATOM     20  O3  UNL     1      16.663  13.027  37.126  0.00  0.00    -0.270 OA
ATOM     21  H16 UNL     1      14.640  11.221  35.338  0.00  0.00    +0.149 HD
BRANCH  19  22
ATOM     22  C11 UNL     1      16.751  10.661  36.994  0.00  0.00    +0.040 A 
ATOM     23  C12 UNL     1      15.969   9.492  36.985  0.00  0.00    +0.015 A 
ATOM     24  C13 UNL     1      16.545   8.251  37.266  0.00  0.00    +0.024 A 
ATOM     25  C14 UNL     1      17.910   8.157  37.552  0.00  0.00    +0.082 A 
ATOM     26 CL1  UNL     1      18.613   6.586  37.902  0.00  0.00    -0.080 Cl
ATOM     27  C15 UNL     1      18.705   9.309  37.551  0.00  0.00    +0.136 A 
ATOM     28  C16 UNL     1      18.127  10.557  37.270  0.00  0.00    +0.060 A 
BRANCH  27  29
ATOM     29  O4  UNL     1      20.069   9.213  37.824  0.00  0.00    -0.505 OA
ATOM     30  H19 UNL     1      20.601  10.007  38.163  0.00  0.00    +0.292 HD
ENDBRANCH  27  29
ENDBRANCH  19  22
ENDBRANCH   3  18
TORSDOF 6
ENDMDL
MODEL 6
REMARK VINA RESULT:    -5.955     12.310     14.210
REMARK INTER + INTRA:          -8.521
REMARK INTER:                  -7.714
REMARK INTRA:                  -0.807
REMARK UNBOUND:                -0.652
REMARK  Name = /home/qwerty/github/datacon2025hack/step_04_hit_selection/docking/ligands/lig_449.pdb
REMARK  9 active torsions:
REMARK  status: ('A' for Active; 'I' for Inactive)
REMARK    1  A    between atoms: C1_1  and  C2_2
REMARK    2  A    between atoms: C2_2  and  C3_3
REMARK    3  A    between atoms: C2_2  and  C4_4
REMARK    4  A    between atoms: C2_2  and  O1_5
REMARK    5  A    between atoms: O1_5  and  C5_6
REMARK    6  A    between atoms: C7_10  and  N2_11
REMARK    7  A    between atoms: C9_13  and  N3_14
REMARK    8  A    between atoms: C10_15  and  C11_17
REMARK    9  A    between atoms: C15_22  and  O4_23
REMARK                            x       y       z     vdW  Elec       q    Type
REMARK                         _______ _______ _______ _____ _____    ______ ____
ROOT
ATOM      1  N2  UNL     1       8.179   9.843  26.555  0.00  0.00    -0.294 N 
ATOM      2  C8  UNL     1       8.608  11.228  26.469  0.00  0.00    +0.131 C 
ATOM      3  C9  UNL     1       9.096  11.610  27.888  0.00  0.00    +0.099 C 
ATOM      4  C17 UNL     1       9.292  10.288  28.652  0.00  0.00    +0.119 C 
ATOM      5  C18 UNL     1       8.591   9.306  27.805  0.00  0.00    +0.218 C 
ATOM      6  O5  UNL     1       8.395   8.110  28.149  0.00  0.00    -0.276 OA
ENDROOT
BRANCH   1  11
ATOM      7  C5  UNL     1       8.583   9.655  21.991  0.00  0.00    +0.403 C 
ATOM      8  O2  UNL     1       8.031  10.555  21.304  0.00  0.00    -0.226 OA
ATOM      9  N1  UNL     1       8.168   9.448  23.337  0.00  0.00    -0.264 N 
ATOM     10  C6  UNL     1       8.517   8.551  24.454  0.00  0.00    +0.135 C 
ATOM     11  C7  UNL     1       7.545   9.139  25.429  0.00  0.00    +0.111 C 
ATOM     12  C19 UNL     1       7.187  10.025  24.277  0.00  0.00    +0.135 C 
BRANCH   7  13
ATOM     13  O1  UNL     1       9.602   8.851  21.461  0.00  0.00    -0.445 OA
BRANCH  13  15
ATOM     14  C1  UNL     1      11.838   8.022  21.257  0.00  0.00    +0.055 C 
ATOM     15  C2  UNL     1      10.942   9.267  21.159  0.00  0.00    +0.107 C 
ATOM     16  C3  UNL     1      11.429  10.312  22.181  0.00  0.00    +0.055 C 
ATOM     17  C4  UNL     1      11.026   9.828  19.727  0.00  0.00    +0.055 C 
ENDBRANCH  13  15
ENDBRANCH   7  13
ENDBRANCH   1  11
BRANCH   3  18
ATOM     18  N3  UNL     1      10.333  12.398  27.858  0.00  0.00    -0.307 N 
ATOM     19  C10 UNL     1      10.634  13.369  28.875  0.00  0.00    +0.244 C 
ATOM     20  O3  UNL     1       9.746  13.686  29.714  0.00  0.00    -0.270 OA
ATOM     21  H16 UNL     1      10.977  12.314  27.040  0.00  0.00    +0.149 HD
BRANCH  19  22
ATOM     22  C11 UNL     1      11.966  14.017  28.946  0.00  0.00    +0.040 A 
ATOM     23  C12 UNL     1      12.480  14.432  30.187  0.00  0.00    +0.015 A 
ATOM     24  C13 UNL     1      13.736  15.039  30.267  0.00  0.00    +0.024 A 
ATOM     25  C14 UNL     1      14.500  15.231  29.113  0.00  0.00    +0.082 A 
ATOM     26 CL1  UNL     1      16.077  15.994  29.237  0.00  0.00    -0.080 Cl
ATOM     27  C15 UNL     1      14.008  14.809  27.871  0.00  0.00    +0.136 A 
ATOM     28  C16 UNL     1      12.745  14.202  27.790  0.00  0.00    +0.060 A 
BRANCH  27  29
ATOM     29  O4  UNL     1      14.776  14.991  26.721  0.00  0.00    -0.505 OA
ATOM     30  H19 UNL     1      15.714  14.613  26.644  0.00  0.00    +0.292 HD
ENDBRANCH  27  29
ENDBRANCH  19  22
ENDBRANCH   3  18
TORSDOF 6
ENDMDL
MODEL 7
REMARK VINA RESULT:    -5.948     14.113     15.748
REMARK INTER + INTRA:          -8.512
REMARK INTER:                  -7.761
REMARK INTRA:                  -0.750
REMARK UNBOUND:                -0.652
REMARK  Name = /home/qwerty/github/datacon2025hack/step_04_hit_selection/docking/ligands/lig_449.pdb
REMARK  9 active torsions:
REMARK  status: ('A' for Active; 'I' for Inactive)
REMARK    1  A    between atoms: C1_1  and  C2_2
REMARK    2  A    between atoms: C2_2  and  C3_3
REMARK    3  A    between atoms: C2_2  and  C4_4
REMARK    4  A    between atoms: C2_2  and  O1_5
REMARK    5  A    between atoms: O1_5  and  C5_6
REMARK    6  A    between atoms: C7_10  and  N2_11
REMARK    7  A    between atoms: C9_13  and  N3_14
REMARK    8  A    between atoms: C10_15  and  C11_17
REMARK    9  A    between atoms: C15_22  and  O4_23
REMARK                            x       y       z     vdW  Elec       q    Type
REMARK                         _______ _______ _______ _____ _____    ______ ____
ROOT
ATOM      1  N2  UNL     1       9.936   5.990  20.925  0.00  0.00    -0.294 N 
ATOM      2  C8  UNL     1      10.245   7.152  21.739  0.00  0.00    +0.131 C 
ATOM      3  C9  UNL     1       8.882   7.717  22.207  0.00  0.00    +0.099 C 
ATOM      4  C17 UNL     1       7.841   6.611  21.956  0.00  0.00    +0.119 C 
ATOM      5  C18 UNL     1       8.557   5.676  21.068  0.00  0.00    +0.218 C 
ATOM      6  O5  UNL     1       8.004   4.691  20.511  0.00  0.00    -0.276 OA
ENDROOT
BRANCH   1  11
ATOM      7  C5  UNL     1      13.963   3.997  21.837  0.00  0.00    +0.403 C 
ATOM      8  O2  UNL     1      14.994   4.720  21.874  0.00  0.00    -0.226 OA
ATOM      9  N1  UNL     1      12.793   4.479  21.187  0.00  0.00    -0.264 N 
ATOM     10  C6  UNL     1      11.426   3.996  20.914  0.00  0.00    +0.135 C 
ATOM     11  C7  UNL     1      10.969   5.231  20.202  0.00  0.00    +0.111 C 
ATOM     12  C19 UNL     1      12.368   5.696  20.468  0.00  0.00    +0.135 C 
BRANCH   7  13
ATOM     13  O1  UNL     1      13.941   2.724  22.426  0.00  0.00    -0.445 OA
BRANCH  13  15
ATOM     14  C1  UNL     1      13.655   0.348  22.399  0.00  0.00    +0.055 C 
ATOM     15  C2  UNL     1      14.495   1.522  21.871  0.00  0.00    +0.107 C 
ATOM     16  C3  UNL     1      15.955   1.335  22.327  0.00  0.00    +0.055 C 
ATOM     17  C4  UNL     1      14.405   1.544  20.333  0.00  0.00    +0.055 C 
ENDBRANCH  13  15
ENDBRANCH   7  13
ENDBRANCH   1  11
BRANCH   3  18
ATOM     18  N3  UNL     1       8.901   8.121  23.618  0.00  0.00    -0.307 N 
ATOM     19  C10 UNL     1       8.094   9.208  24.102  0.00  0.00    +0.244 C 
ATOM     20  O3  UNL     1       7.490   9.950  23.278  0.00  0.00    -0.270 OA
ATOM     21  H16 UNL     1       9.574   7.666  24.275  0.00  0.00    +0.149 HD
BRANCH  19  22
ATOM     22  C11 UNL     1       7.970   9.483  25.554  0.00  0.00    +0.040 A 
ATOM     23  C12 UNL     1       8.367  10.730  26.069  0.00  0.00    +0.015 A 
ATOM     24  C13 UNL     1       8.249  11.003  27.434  0.00  0.00    +0.024 A 
ATOM     25  C14 UNL     1       7.728  10.041  28.302  0.00  0.00    +0.082 A 
ATOM     26 CL1  UNL     1       7.589  10.406  30.015  0.00  0.00    -0.080 Cl
ATOM     27  C15 UNL     1       7.315   8.799  27.803  0.00  0.00    +0.136 A 
ATOM     28  C16 UNL     1       7.435   8.523  26.432  0.00  0.00    +0.060 A 
BRANCH  27  29
ATOM     29  O4  UNL     1       6.784   7.843  28.669  0.00  0.00    -0.505 OA
ATOM     30  H19 UNL     1       6.157   7.118  28.339  0.00  0.00    +0.292 HD
ENDBRANCH  27  29
ENDBRANCH  19  22
ENDBRANCH   3  18
TORSDOF 6
ENDMDL
MODEL 8
REMARK VINA RESULT:    -5.940     13.915     15.560
REMARK INTER + INTRA:          -8.501
REMARK INTER:                  -7.721
REMARK INTRA:                  -0.781
REMARK UNBOUND:                -0.652
REMARK  Name = /home/qwerty/github/datacon2025hack/step_04_hit_selection/docking/ligands/lig_449.pdb
REMARK  9 active torsions:
REMARK  status: ('A' for Active; 'I' for Inactive)
REMARK    1  A    between atoms: C1_1  and  C2_2
REMARK    2  A    between atoms: C2_2  and  C3_3
REMARK    3  A    between atoms: C2_2  and  C4_4
REMARK    4  A    between atoms: C2_2  and  O1_5
REMARK    5  A    between atoms: O1_5  and  C5_6
REMARK    6  A    between atoms: C7_10  and  N2_11
REMARK    7  A    between atoms: C9_13  and  N3_14
REMARK    8  A    between atoms: C10_15  and  C11_17
REMARK    9  A    between atoms: C15_22  and  O4_23
REMARK                            x       y       z     vdW  Elec       q    Type
REMARK                         _______ _______ _______ _____ _____    ______ ____
ROOT
ATOM      1  N2  UNL     1      10.478   8.149  21.186  0.00  0.00    -0.294 N 
ATOM      2  C8  UNL     1      10.351   8.147  22.633  0.00  0.00    +0.131 C 
ATOM      3  C9  UNL     1      11.082   9.420  23.125  0.00  0.00    +0.099 C 
ATOM      4  C17 UNL     1      11.269  10.320  21.891  0.00  0.00    +0.119 C 
ATOM      5  C18 UNL     1      10.991   9.407  20.767  0.00  0.00    +0.218 C 
ATOM      6  O5  UNL     1      11.171   9.719  19.560  0.00  0.00    -0.276 OA
ENDROOT
BRANCH   1  11
ATOM      7  C5  UNL     1      10.398   3.566  21.327  0.00  0.00    +0.403 C 
ATOM      8  O2  UNL     1      11.436   2.939  20.984  0.00  0.00    -0.226 OA
ATOM      9  N1  UNL     1      10.241   4.925  20.934  0.00  0.00    -0.264 N 
ATOM     10  C6  UNL     1       9.237   5.993  21.100  0.00  0.00    +0.135 C 
ATOM     11  C7  UNL     1      10.002   7.037  20.348  0.00  0.00    +0.111 C 
ATOM     12  C19 UNL     1      10.999   5.935  20.169  0.00  0.00    +0.135 C 
BRANCH   7  13
ATOM     13  O1  UNL     1       9.393   2.956  22.090  0.00  0.00    -0.445 OA
BRANCH  13  15
ATOM     14  C1  UNL     1       7.920   3.536  23.885  0.00  0.00    +0.055 C 
ATOM     15  C2  UNL     1       9.296   2.957  23.523  0.00  0.00    +0.107 C 
ATOM     16  C3  UNL     1      10.390   3.850  24.140  0.00  0.00    +0.055 C 
ATOM     17  C4  UNL     1       9.393   1.521  24.073  0.00  0.00    +0.055 C 
ENDBRANCH  13  15
ENDBRANCH   7  13
ENDBRANCH   1  11
BRANCH   3  18
ATOM     18  N3  UNL     1      10.340  10.114  24.184  0.00  0.00    -0.307 N 
ATOM     19  C10 UNL     1      10.855  10.218  25.522  0.00  0.00    +0.244 C 
ATOM     20  O3  UNL     1      11.876   9.552  25.849  0.00  0.00    -0.270 OA
ATOM     21  H16 UNL     1       9.379  10.474  23.988  0.00  0.00    +0.149 HD
BRANCH  19  22
ATOM     22  C11 UNL     1      10.197  11.083  26.531  0.00  0.00    +0.040 A 
ATOM     23  C12 UNL     1       8.882  10.804  26.945  0.00  0.00    +0.015 A 
ATOM     24  C13 UNL     1       8.254  11.608  27.900  0.00  0.00    +0.024 A 
ATOM     25  C14 UNL     1       8.931  12.694  28.461  0.00  0.00    +0.082 A 
ATOM     26 CL1  UNL     1       8.122  13.691  29.660  0.00  0.00    -0.080 Cl
ATOM     27  C15 UNL     1      10.246  12.976  28.070  0.00  0.00    +0.136 A 
ATOM     28  C16 UNL     1      10.877  12.170  27.109  0.00  0.00    +0.060 A 
BRANCH  27  29
ATOM     29  O4  UNL     1      10.925  14.053  28.639  0.00  0.00    -0.505 OA
ATOM     30  H19 UNL     1      11.934  14.053  28.739  0.00  0.00    +0.292 HD
ENDBRANCH  27  29
ENDBRANCH  19  22
ENDBRANCH   3  18
TORSDOF 6
ENDMDL
MODEL 9
REMARK VINA RESULT:    -5.778      9.755     12.898
REMARK INTER + INTRA:          -8.287
REMARK INTER:                  -7.558
REMARK INTRA:                  -0.729
REMARK UNBOUND:                -0.652
REMARK  Name = /home/qwerty/github/datacon2025hack/step_04_hit_selection/docking/ligands/lig_449.pdb
REMARK  9 active torsions:
REMARK  status: ('A' for Active; 'I' for Inactive)
REMARK    1  A    between atoms: C1_1  and  C2_2
REMARK    2  A    between atoms: C2_2  and  C3_3
REMARK    3  A    between atoms: C2_2  and  C4_4
REMARK    4  A    between atoms: C2_2  and  O1_5
REMARK    5  A    between atoms: O1_5  and  C5_6
REMARK    6  A    between atoms: C7_10  and  N2_11
REMARK    7  A    between atoms: C9_13  and  N3_14
REMARK    8  A    between atoms: C10_15  and  C11_17
REMARK    9  A    between atoms: C15_22  and  O4_23
REMARK                            x       y       z     vdW  Elec       q    Type
REMARK                         _______ _______ _______ _____ _____    ______ ____
ROOT
ATOM      1  N2  UNL     1       8.950  11.626  27.851  0.00  0.00    -0.294 N 
ATOM      2  C8  UNL     1       9.927  11.010  28.733  0.00  0.00    +0.131 C 
ATOM      3  C9  UNL     1      10.429  12.141  29.663  0.00  0.00    +0.099 C 
ATOM      4  C17 UNL     1       9.421  13.296  29.531  0.00  0.00    +0.119 C 
ATOM      5  C18 UNL     1       8.653  12.932  28.326  0.00  0.00    +0.218 C 
ATOM      6  O5  UNL     1       7.807  13.695  27.787  0.00  0.00    -0.276 OA
ENDROOT
BRANCH   1  11
ATOM      7  C5  UNL     1       8.584   7.296  26.386  0.00  0.00    +0.403 C 
ATOM      8  O2  UNL     1       9.536   6.807  25.721  0.00  0.00    -0.226 OA
ATOM      9  N1  UNL     1       8.475   8.709  26.516  0.00  0.00    -0.264 N 
ATOM     10  C6  UNL     1       7.567   9.671  27.168  0.00  0.00    +0.135 C 
ATOM     11  C7  UNL     1       8.315  10.896  26.742  0.00  0.00    +0.111 C 
ATOM     12  C19 UNL     1       9.212   9.906  26.067  0.00  0.00    +0.135 C 
BRANCH   7  13
ATOM     13  O1  UNL     1       7.628   6.478  27.005  0.00  0.00    -0.445 OA
BRANCH  13  15
ATOM     14  C1  UNL     1       6.463   5.526  28.866  0.00  0.00    +0.055 C 
ATOM     15  C2  UNL     1       7.829   5.676  28.178  0.00  0.00    +0.107 C 
ATOM     16  C3  UNL     1       8.803   6.369  29.150  0.00  0.00    +0.055 C 
ATOM     17  C4  UNL     1       8.349   4.276  27.796  0.00  0.00    +0.055 C 
ENDBRANCH  13  15
ENDBRANCH   7  13
ENDBRANCH   1  11
BRANCH   3  18
ATOM     18  N3  UNL     1      10.557  11.701  31.057  0.00  0.00    -0.307 N 
ATOM     19  C10 UNL     1      11.396  12.397  31.995  0.00  0.00    +0.244 C 
ATOM     20  O3  UNL     1      12.180  13.295  31.580  0.00  0.00    -0.270 OA
ATOM     21  H16 UNL     1      10.093  10.816  31.361  0.00  0.00    +0.149 HD
BRANCH  19  22
ATOM     22  C11 UNL     1      11.368  12.067  33.440  0.00  0.00    +0.040 A 
ATOM     23  C12 UNL     1      11.347  13.097  34.396  0.00  0.00    +0.015 A 
ATOM     24  C13 UNL     1      11.315  12.798  35.761  0.00  0.00    +0.024 A 
ATOM     25  C14 UNL     1      11.296  11.468  36.189  0.00  0.00    +0.082 A 
ATOM     26 CL1  UNL     1      11.255  11.116  37.910  0.00  0.00    -0.080 Cl
ATOM     27  C15 UNL     1      11.302  10.430  35.249  0.00  0.00    +0.136 A 
ATOM     28  C16 UNL     1      11.336  10.730  33.878  0.00  0.00    +0.060 A 
BRANCH  27  29
ATOM     29  O4  UNL     1      11.270   9.104  35.678  0.00  0.00    -0.505 OA
ATOM     30  H19 UNL     1      11.158   8.864  36.657  0.00  0.00    +0.292 HD
ENDBRANCH  27  29
ENDBRANCH  19  22
ENDBRANCH   3  18
TORSDOF 6
ENDMDL
