REMARK  Name = /home/qwerty/github/datacon2025hack/step_04_hit_selection/docking/ligands/lig_423.pdb
REMARK  6 active torsions:
REMARK  status: ('A' for Active; 'I' for Inactive)
REMARK    1  A    between atoms: C1_1  and  N1_2
REMARK    2  A    between atoms: C4_6  and  C5_7
REMARK    3  A    between atoms: C5_7  and  N3_8
REMARK    4  A    between atoms: C5_7  and  C18_26
REMARK    5  A    between atoms: N4_11  and  C7_12
REMARK    6  A    between atoms: C11_16  and  C12_17
REMARK                            x       y       z     vdW  Elec       q    Type
REMARK                         _______ _______ _______ _____ _____    ______ ____
ROOT
ATOM      1  N3  UNL     1      -2.683  -0.871   1.418  0.00  0.00    -0.285 N 
ATOM      2  C6  UNL     1      -1.460  -0.150   1.634  0.00  0.00    +0.305 C 
ATOM      3  O1  UNL     1      -1.380   1.073   1.323  0.00  0.00    -0.252 OA
ATOM      4  N4  UNL     1      -0.341  -0.812   2.242  0.00  0.00    -0.269 N 
ATOM      5  H7  UNL     1      -2.780  -1.793   1.898  0.00  0.00    +0.151 HD
ATOM      6  H8  UNL     1      -0.525  -1.673   2.804  0.00  0.00    +0.156 HD
ENDROOT
BRANCH   4   7
ATOM      7  C7  UNL     1       1.003  -0.308   2.175  0.00  0.00    +0.035 A 
ATOM      8  C8  UNL     1       1.871  -0.518   3.255  0.00  0.00    +0.023 A 
ATOM      9  C9  UNL     1       3.183  -0.044   3.205  0.00  0.00    +0.003 A 
ATOM     10  C10 UNL     1       3.651   0.616   2.066  0.00  0.00    +0.013 A 
ATOM     11  C11 UNL     1       2.808   0.799   0.957  0.00  0.00    +0.039 A 
ATOM     12  C17 UNL     1       1.480   0.344   1.023  0.00  0.00    +0.036 A 
BRANCH  11  13
ATOM     13  C12 UNL     1       3.300   1.480  -0.264  0.00  0.00    +0.247 C 
ATOM     14  O2  UNL     1       2.505   2.194  -0.937  0.00  0.00    -0.270 OA
ATOM     15  N5  UNL     1       4.656   1.320  -0.717  0.00  0.00    -0.293 N 
ATOM     16  C13 UNL     1       5.350   0.033  -0.604  0.00  0.00    +0.136 C 
ATOM     17  C14 UNL     1       6.225  -0.180  -1.842  0.00  0.00    +0.179 C 
ATOM     18  O3  UNL     1       7.075   0.935  -2.058  0.00  0.00    -0.377 OA
ATOM     19  C15 UNL     1       6.300   2.075  -2.370  0.00  0.00    +0.179 C 
ATOM     20  C16 UNL     1       5.422   2.478  -1.181  0.00  0.00    +0.136 C 
ENDBRANCH  11  13
ENDBRANCH   4   7
BRANCH   1  21
ATOM     21  C5  UNL     1      -3.863  -0.240   0.812  0.00  0.00    +0.171 C 
BRANCH  21  22
ATOM     22  C18 UNL     1      -3.565   0.403  -0.531  0.00  0.00    -0.020 A 
ATOM     23  C19 UNL     1      -4.236   1.594  -0.884  0.00  0.00    +0.009 A 
ATOM     24  C20 UNL     1      -3.955   2.230  -2.095  0.00  0.00    +0.038 A 
ATOM     25  C21 UNL     1      -3.019   1.678  -2.979  0.00  0.00    +0.123 A 
ATOM     26  F1  UNL     1      -2.734   2.301  -4.150  0.00  0.00    -0.205 F 
ATOM     27  C22 UNL     1      -2.369   0.483  -2.655  0.00  0.00    +0.038 A 
ATOM     28  C23 UNL     1      -2.636  -0.150  -1.437  0.00  0.00    +0.009 A 
ENDBRANCH  21  22
BRANCH  21  34
ATOM     29  C1  UNL     1      -3.898  -3.382   0.071  0.00  0.00    +0.150 C 
ATOM     30  N1  UNL     1      -5.028  -2.487   0.318  0.00  0.00    -0.336 N 
ATOM     31  C2  UNL     1      -6.316  -2.881   0.340  0.00  0.00    +0.106 A 
ATOM     32  C3  UNL     1      -7.095  -1.804   0.693  0.00  0.00    +0.130 A 
ATOM     33  N2  UNL     1      -6.305  -0.732   0.908  0.00  0.00    -0.238 NA
ATOM     34  C4  UNL     1      -5.046  -1.180   0.697  0.00  0.00    +0.134 A 
ENDBRANCH  21  34
ENDBRANCH   1  21
TORSDOF 5
