MODEL 1
REMARK VINA RESULT:    -6.574      0.000      0.000
REMARK INTER + INTRA:          -8.513
REMARK INTER:                  -7.727
REMARK INTRA:                  -0.786
REMARK UNBOUND:                -0.786
REMARK  Name = /home/qwerty/github/datacon2025hack/step_04_hit_selection/docking/ligands/lig_0.pdb
REMARK  5 active torsions:
REMARK  status: ('A' for Active; 'I' for Inactive)
REMARK    1  A    between atoms: C1_1  and  C2_2
REMARK    2  A    between atoms: N2_4  and  C3_5
REMARK    3  A    between atoms: C5_8  and  C6_9
REMARK    4  A    between atoms: C11_15  and  C12_16
REMARK    5  A    between atoms: C13_18  and  C14_19
REMARK                            x       y       z     vdW  Elec       q    Type
REMARK                         _______ _______ _______ _____ _____    ______ ____
ROOT
ATOM      1  C1  UNL     1      16.864   5.970  19.158  0.00  0.00    +0.068 C 
ATOM      2  C2  UNL     1      17.290   5.009  20.219  0.00  0.00    +0.070 A 
ATOM      3  N1  UNL     1      16.510   3.972  20.616  0.00  0.00    -0.174 NA
ATOM      4  N2  UNL     1      17.130   3.345  21.607  0.00  0.00    -0.249 N 
ATOM      5  C3  UNL     1      16.560   2.234  22.358  0.00  0.00    +0.174 C 
ATOM      6  C4  UNL     1      18.280   3.985  21.861  0.00  0.00    +0.160 A 
ATOM      7  N3  UNL     1      19.150   3.710  22.863  0.00  0.00    -0.227 NA
ATOM      8  C5  UNL     1      20.255   4.496  23.029  0.00  0.00    +0.081 A 
ATOM      9  C10 UNL     1      20.480   5.588  22.152  0.00  0.00    +0.043 A 
ATOM     10  C11 UNL     1      19.574   5.868  21.103  0.00  0.00    +0.054 A 
ATOM     11  C20 UNL     1      18.448   5.033  20.999  0.00  0.00    +0.054 A 
ENDROOT
BRANCH   8  12
ATOM     12  C6  UNL     1      21.198   4.188  24.124  0.00  0.00    +0.038 A 
ATOM     13  C7  UNL     1      22.189   5.041  24.600  0.00  0.00    +0.017 A 
ATOM     14  C8  UNL     1      22.941   4.492  25.646  0.00  0.00    +0.008 A 
ATOM     15  C9  UNL     1      22.551   3.208  26.001  0.00  0.00    +0.046 A 
ATOM     16  S1  UNL     1      21.269   2.758  25.011  0.00  0.00    -0.095 S 
ENDBRANCH   8  12
BRANCH  10  17
ATOM     17  C12 UNL     1      19.870   6.973  20.171  0.00  0.00    +0.260 A 
ATOM     18  N4  UNL     1      19.744   8.277  20.491  0.00  0.00    -0.187 NA
ATOM     19  C13 UNL     1      20.157   8.877  19.354  0.00  0.00    +0.202 A 
ATOM     20  N5  UNL     1      20.519   7.987  18.409  0.00  0.00    -0.056 NA
ATOM     21  O1  UNL     1      20.331   6.824  18.955  0.00  0.00    -0.332 OA
BRANCH  19  22
ATOM     22  C14 UNL     1      20.211  10.343  19.170  0.00  0.00    +0.023 A 
ATOM     23  C15 UNL     1      21.400  10.964  18.745  0.00  0.00    +0.014 A 
ATOM     24  C16 UNL     1      21.449  12.351  18.571  0.00  0.00    +0.039 A 
ATOM     25  C17 UNL     1      20.314  13.129  18.818  0.00  0.00    +0.123 A 
ATOM     26  F1  UNL     1      20.364  14.474  18.648  0.00  0.00    -0.205 F 
ATOM     27  C18 UNL     1      19.129  12.522  19.239  0.00  0.00    +0.039 A 
ATOM     28  C19 UNL     1      19.075  11.135  19.415  0.00  0.00    +0.014 A 
ENDBRANCH  19  22
ENDBRANCH  10  17
TORSDOF 3
ENDMDL
MODEL 2
REMARK VINA RESULT:    -6.530      5.252      9.000
REMARK INTER + INTRA:          -8.460
REMARK INTER:                  -7.789
REMARK INTRA:                  -0.671
REMARK UNBOUND:                -0.786
REMARK  Name = /home/qwerty/github/datacon2025hack/step_04_hit_selection/docking/ligands/lig_0.pdb
REMARK  5 active torsions:
REMARK  status: ('A' for Active; 'I' for Inactive)
REMARK    1  A    between atoms: C1_1  and  C2_2
REMARK    2  A    between atoms: N2_4  and  C3_5
REMARK    3  A    between atoms: C5_8  and  C6_9
REMARK    4  A    between atoms: C11_15  and  C12_16
REMARK    5  A    between atoms: C13_18  and  C14_19
REMARK                            x       y       z     vdW  Elec       q    Type
REMARK                         _______ _______ _______ _____ _____    ______ ____
ROOT
ATOM      1  C1  UNL     1      16.629   1.754  23.439  0.00  0.00    +0.068 C 
ATOM      2  C2  UNL     1      17.097   2.929  22.644  0.00  0.00    +0.070 A 
ATOM      3  N1  UNL     1      16.293   3.582  21.768  0.00  0.00    -0.174 NA
ATOM      4  N2  UNL     1      17.009   4.529  21.177  0.00  0.00    -0.249 N 
ATOM      5  C3  UNL     1      16.516   5.380  20.103  0.00  0.00    +0.174 C 
ATOM      6  C4  UNL     1      18.263   4.470  21.649  0.00  0.00    +0.160 A 
ATOM      7  N3  UNL     1      19.318   5.207  21.225  0.00  0.00    -0.227 NA
ATOM      8  C5  UNL     1      20.553   4.987  21.765  0.00  0.00    +0.081 A 
ATOM      9  C10 UNL     1      20.718   3.991  22.763  0.00  0.00    +0.043 A 
ATOM     10  C11 UNL     1      19.614   3.228  23.208  0.00  0.00    +0.054 A 
ATOM     11  C20 UNL     1      18.374   3.492  22.598  0.00  0.00    +0.054 A 
ENDROOT
BRANCH   8  12
ATOM     12  C6  UNL     1      21.697   5.796  21.298  0.00  0.00    +0.038 A 
ATOM     13  C7  UNL     1      22.572   6.506  22.115  0.00  0.00    +0.017 A 
ATOM     14  C8  UNL     1      23.568   7.188  21.404  0.00  0.00    +0.008 A 
ATOM     15  C9  UNL     1      23.487   7.021  20.028  0.00  0.00    +0.046 A 
ATOM     16  S1  UNL     1      22.173   6.025  19.698  0.00  0.00    -0.095 S 
ENDBRANCH   8  12
BRANCH  10  17
ATOM     17  C12 UNL     1      19.807   2.244  24.290  0.00  0.00    +0.260 A 
ATOM     18  N4  UNL     1      20.039   2.579  25.575  0.00  0.00    -0.187 NA
ATOM     19  C13 UNL     1      20.103   1.366  26.164  0.00  0.00    +0.202 A 
ATOM     20  N5  UNL     1      19.912   0.361  25.288  0.00  0.00    -0.056 NA
ATOM     21  O1  UNL     1      19.728   0.945  24.143  0.00  0.00    -0.332 OA
BRANCH  19  22
ATOM     22  C14 UNL     1      20.350   1.165  27.608  0.00  0.00    +0.023 A 
ATOM     23  C15 UNL     1      21.592   0.681  28.059  0.00  0.00    +0.014 A 
ATOM     24  C16 UNL     1      21.823   0.492  29.425  0.00  0.00    +0.039 A 
ATOM     25  C17 UNL     1      20.820   0.784  30.353  0.00  0.00    +0.123 A 
ATOM     26  F1  UNL     1      21.047   0.600  31.678  0.00  0.00    -0.205 F 
ATOM     27  C18 UNL     1      19.584   1.265  29.917  0.00  0.00    +0.039 A 
ATOM     28  C19 UNL     1      19.348   1.456  28.551  0.00  0.00    +0.014 A 
ENDBRANCH  19  22
ENDBRANCH  10  17
TORSDOF 3
ENDMDL
MODEL 3
REMARK VINA RESULT:    -6.493      6.366     10.918
REMARK INTER + INTRA:          -8.418
REMARK INTER:                  -7.660
REMARK INTRA:                  -0.758
REMARK UNBOUND:                -0.786
REMARK  Name = /home/qwerty/github/datacon2025hack/step_04_hit_selection/docking/ligands/lig_0.pdb
REMARK  5 active torsions:
REMARK  status: ('A' for Active; 'I' for Inactive)
REMARK    1  A    between atoms: C1_1  and  C2_2
REMARK    2  A    between atoms: N2_4  and  C3_5
REMARK    3  A    between atoms: C5_8  and  C6_9
REMARK    4  A    between atoms: C11_15  and  C12_16
REMARK    5  A    between atoms: C13_18  and  C14_19
REMARK                            x       y       z     vdW  Elec       q    Type
REMARK                         _______ _______ _______ _____ _____    ______ ____
ROOT
ATOM      1  C1  UNL     1      22.257   4.030  26.321  0.00  0.00    +0.068 C 
ATOM      2  C2  UNL     1      21.415   3.672  25.140  0.00  0.00    +0.070 A 
ATOM      3  N1  UNL     1      21.415   4.402  23.997  0.00  0.00    -0.174 NA
ATOM      4  N2  UNL     1      20.526   3.872  23.168  0.00  0.00    -0.249 N 
ATOM      5  C3  UNL     1      20.174   4.438  21.873  0.00  0.00    +0.174 C 
ATOM      6  C4  UNL     1      19.943   2.831  23.780  0.00  0.00    +0.160 A 
ATOM      7  N3  UNL     1      18.916   2.089  23.301  0.00  0.00    -0.227 NA
ATOM      8  C5  UNL     1      18.387   1.093  24.073  0.00  0.00    +0.081 A 
ATOM      9  C10 UNL     1      18.920   0.847  25.365  0.00  0.00    +0.043 A 
ATOM     10  C11 UNL     1      19.996   1.620  25.860  0.00  0.00    +0.054 A 
ATOM     11  C20 UNL     1      20.481   2.640  25.022  0.00  0.00    +0.054 A 
ENDROOT
BRANCH   8  12
ATOM     12  C6  UNL     1      17.269   0.288  23.542  0.00  0.00    +0.038 A 
ATOM     13  C7  UNL     1      17.394  -0.913  22.849  0.00  0.00    +0.017 A 
ATOM     14  C8  UNL     1      16.166  -1.462  22.460  0.00  0.00    +0.008 A 
ATOM     15  C9  UNL     1      15.068  -0.703  22.841  0.00  0.00    +0.046 A 
ATOM     16  S1  UNL     1      15.628   0.653  23.662  0.00  0.00    -0.095 S 
ENDBRANCH   8  12
BRANCH  10  17
ATOM     17  C12 UNL     1      20.565   1.299  27.182  0.00  0.00    +0.260 A 
ATOM     18  N4  UNL     1      20.105   1.811  28.341  0.00  0.00    -0.187 NA
ATOM     19  C13 UNL     1      20.904   1.202  29.243  0.00  0.00    +0.202 A 
ATOM     20  N5  UNL     1      21.786   0.365  28.663  0.00  0.00    -0.056 NA
ATOM     21  O1  UNL     1      21.541   0.451  27.391  0.00  0.00    -0.332 OA
BRANCH  19  22
ATOM     22  C14 UNL     1      20.815   1.425  30.702  0.00  0.00    +0.023 A 
ATOM     23  C15 UNL     1      19.993   0.607  31.500  0.00  0.00    +0.014 A 
ATOM     24  C16 UNL     1      19.911   0.819  32.880  0.00  0.00    +0.039 A 
ATOM     25  C17 UNL     1      20.647   1.846  33.476  0.00  0.00    +0.123 A 
ATOM     26  F1  UNL     1      20.566   2.049  34.815  0.00  0.00    -0.205 F 
ATOM     27  C18 UNL     1      21.467   2.663  32.694  0.00  0.00    +0.039 A 
ATOM     28  C19 UNL     1      21.552   2.455  31.313  0.00  0.00    +0.014 A 
ENDBRANCH  19  22
ENDBRANCH  10  17
TORSDOF 3
ENDMDL
MODEL 4
REMARK VINA RESULT:    -6.486      5.018      8.720
REMARK INTER + INTRA:          -8.409
REMARK INTER:                  -7.642
REMARK INTRA:                  -0.767
REMARK UNBOUND:                -0.786
REMARK  Name = /home/qwerty/github/datacon2025hack/step_04_hit_selection/docking/ligands/lig_0.pdb
REMARK  5 active torsions:
REMARK  status: ('A' for Active; 'I' for Inactive)
REMARK    1  A    between atoms: C1_1  and  C2_2
REMARK    2  A    between atoms: N2_4  and  C3_5
REMARK    3  A    between atoms: C5_8  and  C6_9
REMARK    4  A    between atoms: C11_15  and  C12_16
REMARK    5  A    between atoms: C13_18  and  C14_19
REMARK                            x       y       z     vdW  Elec       q    Type
REMARK                         _______ _______ _______ _____ _____    ______ ____
ROOT
ATOM      1  C1  UNL     1      18.063   4.195  23.337  0.00  0.00    +0.068 C 
ATOM      2  C2  UNL     1      18.682   4.988  22.234  0.00  0.00    +0.070 A 
ATOM      3  N1  UNL     1      18.018   5.283  21.088  0.00  0.00    -0.174 NA
ATOM      4  N2  UNL     1      18.848   5.937  20.286  0.00  0.00    -0.249 N 
ATOM      5  C3  UNL     1      18.524   6.340  18.924  0.00  0.00    +0.174 C 
ATOM      6  C4  UNL     1      20.037   6.039  20.897  0.00  0.00    +0.160 A 
ATOM      7  N3  UNL     1      21.173   6.553  20.367  0.00  0.00    -0.227 NA
ATOM      8  C5  UNL     1      22.327   6.531  21.098  0.00  0.00    +0.081 A 
ATOM      9  C10 UNL     1      22.323   5.971  22.402  0.00  0.00    +0.043 A 
ATOM     10  C11 UNL     1      21.135   5.440  22.954  0.00  0.00    +0.054 A 
ATOM     11  C20 UNL     1      19.987   5.477  22.143  0.00  0.00    +0.054 A 
ENDROOT
BRANCH   8  12
ATOM     12  C6  UNL     1      23.559   7.096  20.513  0.00  0.00    +0.038 A 
ATOM     13  C7  UNL     1      24.393   8.027  21.127  0.00  0.00    +0.017 A 
ATOM     14  C8  UNL     1      25.494   8.390  20.342  0.00  0.00    +0.008 A 
ATOM     15  C9  UNL     1      25.539   7.752  19.110  0.00  0.00    +0.046 A 
ATOM     16  S1  UNL     1      24.204   6.736  18.998  0.00  0.00    -0.095 S 
ENDBRANCH   8  12
BRANCH  10  17
ATOM     17  C12 UNL     1      21.152   4.920  24.335  0.00  0.00    +0.260 A 
ATOM     18  N4  UNL     1      21.480   3.652  24.655  0.00  0.00    -0.187 NA
ATOM     19  C13 UNL     1      21.386   3.679  26.001  0.00  0.00    +0.202 A 
ATOM     20  N5  UNL     1      21.032   4.893  26.466  0.00  0.00    -0.056 NA
ATOM     21  O1  UNL     1      20.901   5.632  25.405  0.00  0.00    -0.332 OA
BRANCH  19  22
ATOM     22  C14 UNL     1      21.649   2.510  26.868  0.00  0.00    +0.023 A 
ATOM     23  C15 UNL     1      20.796   1.391  26.833  0.00  0.00    +0.014 A 
ATOM     24  C16 UNL     1      21.046   0.286  27.653  0.00  0.00    +0.039 A 
ATOM     25  C17 UNL     1      22.148   0.286  28.513  0.00  0.00    +0.123 A 
ATOM     26  F1  UNL     1      22.388  -0.786  29.307  0.00  0.00    -0.205 F 
ATOM     27  C18 UNL     1      23.001   1.392  28.555  0.00  0.00    +0.039 A 
ATOM     28  C19 UNL     1      22.754   2.500  27.737  0.00  0.00    +0.014 A 
ENDBRANCH  19  22
ENDBRANCH  10  17
TORSDOF 3
ENDMDL
MODEL 5
REMARK VINA RESULT:    -6.393     11.594     13.160
REMARK INTER + INTRA:          -8.300
REMARK INTER:                  -7.558
REMARK INTRA:                  -0.742
REMARK UNBOUND:                -0.786
REMARK  Name = /home/qwerty/github/datacon2025hack/step_04_hit_selection/docking/ligands/lig_0.pdb
REMARK  5 active torsions:
REMARK  status: ('A' for Active; 'I' for Inactive)
REMARK    1  A    between atoms: C1_1  and  C2_2
REMARK    2  A    between atoms: N2_4  and  C3_5
REMARK    3  A    between atoms: C5_8  and  C6_9
REMARK    4  A    between atoms: C11_15  and  C12_16
REMARK    5  A    between atoms: C13_18  and  C14_19
REMARK                            x       y       z     vdW  Elec       q    Type
REMARK                         _______ _______ _______ _____ _____    ______ ____
ROOT
ATOM      1  C1  UNL     1       7.597   9.127  30.352  0.00  0.00    +0.068 C 
ATOM      2  C2  UNL     1       7.351   7.922  29.504  0.00  0.00    +0.070 A 
ATOM      3  N1  UNL     1       6.789   6.789  29.996  0.00  0.00    -0.174 NA
ATOM      4  N2  UNL     1       6.762   5.886  29.025  0.00  0.00    -0.249 N 
ATOM      5  C3  UNL     1       6.315   4.510  29.196  0.00  0.00    +0.174 C 
ATOM      6  C4  UNL     1       7.322   6.422  27.931  0.00  0.00    +0.160 A 
ATOM      7  N3  UNL     1       7.570   5.787  26.760  0.00  0.00    -0.227 NA
ATOM      8  C5  UNL     1       8.206   6.456  25.753  0.00  0.00    +0.081 A 
ATOM      9  C10 UNL     1       8.600   7.806  25.943  0.00  0.00    +0.043 A 
ATOM     10  C11 UNL     1       8.335   8.468  27.164  0.00  0.00    +0.054 A 
ATOM     11  C20 UNL     1       7.693   7.717  28.166  0.00  0.00    +0.054 A 
ENDROOT
BRANCH   8  12
ATOM     12  C6  UNL     1       8.470   5.756  24.479  0.00  0.00    +0.038 A 
ATOM     13  C7  UNL     1       7.834   4.596  24.047  0.00  0.00    +0.017 A 
ATOM     14  C8  UNL     1       8.282   4.148  22.798  0.00  0.00    +0.008 A 
ATOM     15  C9  UNL     1       9.270   4.946  22.238  0.00  0.00    +0.046 A 
ATOM     16  S1  UNL     1       9.585   6.210  23.300  0.00  0.00    -0.095 S 
ENDBRANCH   8  12
BRANCH  10  17
ATOM     17  C12 UNL     1       8.702   9.889  27.308  0.00  0.00    +0.260 A 
ATOM     18  N4  UNL     1       9.974  10.337  27.323  0.00  0.00    -0.187 NA
ATOM     19  C13 UNL     1       9.792  11.670  27.432  0.00  0.00    +0.202 A 
ATOM     20  N5  UNL     1       8.487  12.006  27.472  0.00  0.00    -0.056 NA
ATOM     21  O1  UNL     1       7.849  10.879  27.388  0.00  0.00    -0.332 OA
BRANCH  19  22
ATOM     22  C14 UNL     1      10.897  12.649  27.496  0.00  0.00    +0.023 A 
ATOM     23  C15 UNL     1      12.216  12.255  27.203  0.00  0.00    +0.014 A 
ATOM     24  C16 UNL     1      13.261  13.183  27.264  0.00  0.00    +0.039 A 
ATOM     25  C17 UNL     1      13.000  14.511  27.615  0.00  0.00    +0.123 A 
ATOM     26  F1  UNL     1      14.015  15.409  27.673  0.00  0.00    -0.205 F 
ATOM     27  C18 UNL     1      11.695  14.912  27.907  0.00  0.00    +0.039 A 
ATOM     28  C19 UNL     1      10.647  13.987  27.848  0.00  0.00    +0.014 A 
ENDBRANCH  19  22
ENDBRANCH  10  17
TORSDOF 3
ENDMDL
MODEL 6
REMARK VINA RESULT:    -6.381      1.715      4.165
REMARK INTER + INTRA:          -8.286
REMARK INTER:                  -7.488
REMARK INTRA:                  -0.798
REMARK UNBOUND:                -0.786
REMARK  Name = /home/qwerty/github/datacon2025hack/step_04_hit_selection/docking/ligands/lig_0.pdb
REMARK  5 active torsions:
REMARK  status: ('A' for Active; 'I' for Inactive)
REMARK    1  A    between atoms: C1_1  and  C2_2
REMARK    2  A    between atoms: N2_4  and  C3_5
REMARK    3  A    between atoms: C5_8  and  C6_9
REMARK    4  A    between atoms: C11_15  and  C12_16
REMARK    5  A    between atoms: C13_18  and  C14_19
REMARK                            x       y       z     vdW  Elec       q    Type
REMARK                         _______ _______ _______ _____ _____    ______ ____
ROOT
ATOM      1  C1  UNL     1      22.565   6.694  22.137  0.00  0.00    +0.068 C 
ATOM      2  C2  UNL     1      21.561   5.703  22.627  0.00  0.00    +0.070 A 
ATOM      3  N1  UNL     1      21.782   4.917  23.711  0.00  0.00    -0.174 NA
ATOM      4  N2  UNL     1      20.743   4.106  23.852  0.00  0.00    -0.249 N 
ATOM      5  C3  UNL     1      20.657   3.050  24.852  0.00  0.00    +0.174 C 
ATOM      6  C4  UNL     1      19.876   4.349  22.859  0.00  0.00    +0.160 A 
ATOM      7  N3  UNL     1      18.736   3.664  22.599  0.00  0.00    -0.227 NA
ATOM      8  C5  UNL     1      17.985   3.995  21.507  0.00  0.00    +0.081 A 
ATOM      9  C10 UNL     1      18.405   5.052  20.659  0.00  0.00    +0.043 A 
ATOM     10  C11 UNL     1      19.592   5.769  20.936  0.00  0.00    +0.054 A 
ATOM     11  C20 UNL     1      20.328   5.366  22.064  0.00  0.00    +0.054 A 
ENDROOT
BRANCH   8  12
ATOM     12  C6  UNL     1      16.744   3.243  21.233  0.00  0.00    +0.038 A 
ATOM     13  C7  UNL     1      16.270   2.897  19.971  0.00  0.00    +0.017 A 
ATOM     14  C8  UNL     1      15.066   2.184  20.004  0.00  0.00    +0.008 A 
ATOM     15  C9  UNL     1      14.582   1.963  21.286  0.00  0.00    +0.046 A 
ATOM     16  S1  UNL     1      15.655   2.657  22.378  0.00  0.00    -0.095 S 
ENDBRANCH   8  12
BRANCH  10  17
ATOM     17  C12 UNL     1      19.968   6.902  20.069  0.00  0.00    +0.260 A 
ATOM     18  N4  UNL     1      19.692   8.190  20.356  0.00  0.00    -0.187 NA
ATOM     19  C13 UNL     1      20.257   8.829  19.309  0.00  0.00    +0.202 A 
ATOM     20  N5  UNL     1      20.848   7.977  18.448  0.00  0.00    -0.056 NA
ATOM     21  O1  UNL     1      20.650   6.798  18.955  0.00  0.00    -0.332 OA
BRANCH  19  22
ATOM     22  C14 UNL     1      20.236  10.297  19.133  0.00  0.00    +0.023 A 
ATOM     23  C15 UNL     1      21.395  10.983  18.724  0.00  0.00    +0.014 A 
ATOM     24  C16 UNL     1      21.372  12.371  18.557  0.00  0.00    +0.039 A 
ATOM     25  C17 UNL     1      20.196  13.087  18.795  0.00  0.00    +0.123 A 
ATOM     26  F1  UNL     1      20.176  14.433  18.633  0.00  0.00    -0.205 F 
ATOM     27  C18 UNL     1      19.040  12.416  19.201  0.00  0.00    +0.039 A 
ATOM     28  C19 UNL     1      19.058  11.027  19.369  0.00  0.00    +0.014 A 
ENDBRANCH  19  22
ENDBRANCH  10  17
TORSDOF 3
ENDMDL
MODEL 7
REMARK VINA RESULT:    -6.327      9.440     12.869
REMARK INTER + INTRA:          -8.222
REMARK INTER:                  -7.469
REMARK INTRA:                  -0.753
REMARK UNBOUND:                -0.786
REMARK  Name = /home/qwerty/github/datacon2025hack/step_04_hit_selection/docking/ligands/lig_0.pdb
REMARK  5 active torsions:
REMARK  status: ('A' for Active; 'I' for Inactive)
REMARK    1  A    between atoms: C1_1  and  C2_2
REMARK    2  A    between atoms: N2_4  and  C3_5
REMARK    3  A    between atoms: C5_8  and  C6_9
REMARK    4  A    between atoms: C11_15  and  C12_16
REMARK    5  A    between atoms: C13_18  and  C14_19
REMARK                            x       y       z     vdW  Elec       q    Type
REMARK                         _______ _______ _______ _____ _____    ______ ____
ROOT
ATOM      1  C1  UNL     1      18.723   0.011  32.283  0.00  0.00    +0.068 C 
ATOM      2  C2  UNL     1      18.330   0.790  33.495  0.00  0.00    +0.070 A 
ATOM      3  N1  UNL     1      17.392   0.349  34.371  0.00  0.00    -0.174 NA
ATOM      4  N2  UNL     1      17.222   1.282  35.297  0.00  0.00    -0.249 N 
ATOM      5  C3  UNL     1      16.226   1.211  36.358  0.00  0.00    +0.174 C 
ATOM      6  C4  UNL     1      18.020   2.319  35.008  0.00  0.00    +0.160 A 
ATOM      7  N3  UNL     1      18.065   3.506  35.660  0.00  0.00    -0.227 NA
ATOM      8  C5  UNL     1      18.893   4.493  35.205  0.00  0.00    +0.081 A 
ATOM      9  C10 UNL     1      19.695   4.265  34.057  0.00  0.00    +0.043 A 
ATOM     10  C11 UNL     1      19.649   3.023  33.382  0.00  0.00    +0.054 A 
ATOM     11  C20 UNL     1      18.763   2.057  33.891  0.00  0.00    +0.054 A 
ENDROOT
BRANCH   8  12
ATOM     12  C6  UNL     1      18.937   5.783  35.923  0.00  0.00    +0.038 A 
ATOM     13  C7  UNL     1      18.929   5.939  37.306  0.00  0.00    +0.017 A 
ATOM     14  C8  UNL     1      18.977   7.277  37.716  0.00  0.00    +0.008 A 
ATOM     15  C9  UNL     1      19.024   8.183  36.665  0.00  0.00    +0.046 A 
ATOM     16  S1  UNL     1      19.004   7.315  35.225  0.00  0.00    -0.095 S 
ENDBRANCH   8  12
BRANCH  10  17
ATOM     17  C12 UNL     1      20.540   2.797  32.228  0.00  0.00    +0.260 A 
ATOM     18  N4  UNL     1      20.331   3.324  31.005  0.00  0.00    -0.187 NA
ATOM     19  C13 UNL     1      21.408   2.872  30.327  0.00  0.00    +0.202 A 
ATOM     20  N5  UNL     1      22.222   2.126  31.098  0.00  0.00    -0.056 NA
ATOM     21  O1  UNL     1      21.653   2.107  32.265  0.00  0.00    -0.332 OA
BRANCH  19  22
ATOM     22  C14 UNL     1      21.666   3.168  28.901  0.00  0.00    +0.023 A 
ATOM     23  C15 UNL     1      21.425   4.456  28.386  0.00  0.00    +0.014 A 
ATOM     24  C16 UNL     1      21.670   4.734  27.037  0.00  0.00    +0.039 A 
ATOM     25  C17 UNL     1      22.158   3.733  26.192  0.00  0.00    +0.123 A 
ATOM     26  F1  UNL     1      22.395   4.005  24.885  0.00  0.00    -0.205 F 
ATOM     27  C18 UNL     1      22.401   2.452  26.694  0.00  0.00    +0.039 A 
ATOM     28  C19 UNL     1      22.157   2.169  28.042  0.00  0.00    +0.014 A 
ENDBRANCH  19  22
ENDBRANCH  10  17
TORSDOF 3
ENDMDL
MODEL 8
REMARK VINA RESULT:    -6.305      8.539     12.115
REMARK INTER + INTRA:          -8.197
REMARK INTER:                  -7.437
REMARK INTRA:                  -0.760
REMARK UNBOUND:                -0.786
REMARK  Name = /home/qwerty/github/datacon2025hack/step_04_hit_selection/docking/ligands/lig_0.pdb
REMARK  5 active torsions:
REMARK  status: ('A' for Active; 'I' for Inactive)
REMARK    1  A    between atoms: C1_1  and  C2_2
REMARK    2  A    between atoms: N2_4  and  C3_5
REMARK    3  A    between atoms: C5_8  and  C6_9
REMARK    4  A    between atoms: C11_15  and  C12_16
REMARK    5  A    between atoms: C13_18  and  C14_19
REMARK                            x       y       z     vdW  Elec       q    Type
REMARK                         _______ _______ _______ _____ _____    ______ ____
ROOT
ATOM      1  C1  UNL     1      18.695   0.445  31.813  0.00  0.00    +0.068 C 
ATOM      2  C2  UNL     1      18.892   1.341  32.993  0.00  0.00    +0.070 A 
ATOM      3  N1  UNL     1      18.119   1.260  34.105  0.00  0.00    -0.174 NA
ATOM      4  N2  UNL     1      18.495   2.219  34.939  0.00  0.00    -0.249 N 
ATOM      5  C3  UNL     1      17.833   2.511  36.204  0.00  0.00    +0.174 C 
ATOM      6  C4  UNL     1      19.478   2.924  34.362  0.00  0.00    +0.160 A 
ATOM      7  N3  UNL     1      20.062   4.043  34.853  0.00  0.00    -0.227 NA
ATOM      8  C5  UNL     1      21.015   4.686  34.114  0.00  0.00    +0.081 A 
ATOM      9  C10 UNL     1      21.382   4.175  32.843  0.00  0.00    +0.043 A 
ATOM     10  C11 UNL     1      20.775   3.003  32.335  0.00  0.00    +0.054 A 
ATOM     11  C20 UNL     1      19.790   2.400  33.138  0.00  0.00    +0.054 A 
ENDROOT
BRANCH   8  12
ATOM     12  C6  UNL     1      21.646   5.905  34.659  0.00  0.00    +0.038 A 
ATOM     13  C7  UNL     1      22.909   5.969  35.242  0.00  0.00    +0.017 A 
ATOM     14  C8  UNL     1      23.257   7.255  35.674  0.00  0.00    +0.008 A 
ATOM     15  C9  UNL     1      22.278   8.210  35.436  0.00  0.00    +0.046 A 
ATOM     16  S1  UNL     1      20.977   7.451  34.688  0.00  0.00    -0.095 S 
ENDBRANCH   8  12
BRANCH  10  17
ATOM     17  C12 UNL     1      21.224   2.463  31.037  0.00  0.00    +0.260 A 
ATOM     18  N4  UNL     1      20.768   2.901  29.846  0.00  0.00    -0.187 NA
ATOM     19  C13 UNL     1      21.487   2.147  28.987  0.00  0.00    +0.202 A 
ATOM     20  N5  UNL     1      22.332   1.312  29.623  0.00  0.00    -0.056 NA
ATOM     21  O1  UNL     1      22.141   1.541  30.886  0.00  0.00    -0.332 OA
BRANCH  19  22
ATOM     22  C14 UNL     1      21.364   2.234  27.516  0.00  0.00    +0.023 A 
ATOM     23  C15 UNL     1      22.226   3.065  26.776  0.00  0.00    +0.014 A 
ATOM     24  C16 UNL     1      22.109   3.145  25.385  0.00  0.00    +0.039 A 
ATOM     25  C17 UNL     1      21.133   2.398  24.719  0.00  0.00    +0.123 A 
ATOM     26  F1  UNL     1      21.021   2.477  23.370  0.00  0.00    -0.205 F 
ATOM     27  C18 UNL     1      20.273   1.570  25.444  0.00  0.00    +0.039 A 
ATOM     28  C19 UNL     1      20.386   1.487  26.836  0.00  0.00    +0.014 A 
ENDBRANCH  19  22
ENDBRANCH  10  17
TORSDOF 3
ENDMDL
MODEL 9
REMARK VINA RESULT:    -6.227      7.713     11.109
REMARK INTER + INTRA:          -8.105
REMARK INTER:                  -7.385
REMARK INTRA:                  -0.720
REMARK UNBOUND:                -0.786
REMARK  Name = /home/qwerty/github/datacon2025hack/step_04_hit_selection/docking/ligands/lig_0.pdb
REMARK  5 active torsions:
REMARK  status: ('A' for Active; 'I' for Inactive)
REMARK    1  A    between atoms: C1_1  and  C2_2
REMARK    2  A    between atoms: N2_4  and  C3_5
REMARK    3  A    between atoms: C5_8  and  C6_9
REMARK    4  A    between atoms: C11_15  and  C12_16
REMARK    5  A    between atoms: C13_18  and  C14_19
REMARK                            x       y       z     vdW  Elec       q    Type
REMARK                         _______ _______ _______ _____ _____    ______ ____
ROOT
ATOM      1  C1  UNL     1      10.517   0.705  22.695  0.00  0.00    +0.068 C 
ATOM      2  C2  UNL     1      10.048   2.123  22.731  0.00  0.00    +0.070 A 
ATOM      3  N1  UNL     1       8.799   2.466  23.132  0.00  0.00    -0.174 NA
ATOM      4  N2  UNL     1       8.666   3.778  22.992  0.00  0.00    -0.249 N 
ATOM      5  C3  UNL     1       7.429   4.508  23.233  0.00  0.00    +0.174 C 
ATOM      6  C4  UNL     1       9.806   4.269  22.484  0.00  0.00    +0.160 A 
ATOM      7  N3  UNL     1      10.034   5.550  22.107  0.00  0.00    -0.227 NA
ATOM      8  C5  UNL     1      11.234   5.884  21.546  0.00  0.00    +0.081 A 
ATOM      9  C10 UNL     1      12.228   4.887  21.366  0.00  0.00    +0.043 A 
ATOM     10  C11 UNL     1      11.989   3.552  21.765  0.00  0.00    +0.054 A 
ATOM     11  C20 UNL     1      10.727   3.272  22.319  0.00  0.00    +0.054 A 
ENDROOT
BRANCH   8  12
ATOM     12  C6  UNL     1      11.474   7.283  21.140  0.00  0.00    +0.038 A 
ATOM     13  C7  UNL     1      10.759   7.976  20.167  0.00  0.00    +0.017 A 
ATOM     14  C8  UNL     1      11.201   9.292  19.984  0.00  0.00    +0.008 A 
ATOM     15  C9  UNL     1      12.262   9.646  20.806  0.00  0.00    +0.046 A 
ATOM     16  S1  UNL     1      12.650   8.318  21.761  0.00  0.00    -0.095 S 
ENDBRANCH   8  12
BRANCH  10  17
ATOM     17  C12 UNL     1      13.065   2.553  21.620  0.00  0.00    +0.260 A 
ATOM     18  N4  UNL     1      13.717   1.996  22.661  0.00  0.00    -0.187 NA
ATOM     19  C13 UNL     1      14.554   1.144  22.033  0.00  0.00    +0.202 A 
ATOM     20  N5  UNL     1      14.409   1.178  20.693  0.00  0.00    -0.056 NA
ATOM     21  O1  UNL     1      13.477   2.057  20.480  0.00  0.00    -0.332 OA
BRANCH  19  22
ATOM     22  C14 UNL     1      15.517   0.268  22.735  0.00  0.00    +0.023 A 
ATOM     23  C15 UNL     1      15.099  -0.964  23.272  0.00  0.00    +0.014 A 
ATOM     24  C16 UNL     1      16.011  -1.791  23.936  0.00  0.00    +0.039 A 
ATOM     25  C17 UNL     1      17.346  -1.397  24.070  0.00  0.00    +0.123 A 
ATOM     26  F1  UNL     1      18.228  -2.201  24.714  0.00  0.00    -0.205 F 
ATOM     27  C18 UNL     1      17.770  -0.176  23.540  0.00  0.00    +0.039 A 
ATOM     28  C19 UNL     1      16.861   0.654  22.876  0.00  0.00    +0.014 A 
ENDBRANCH  19  22
ENDBRANCH  10  17
TORSDOF 3
ENDMDL
