REMARK  Name = /home/qwerty/github/datacon2025hack/step_04_hit_selection/docking/ligands/lig_298.pdb
REMARK  9 active torsions:
REMARK  status: ('A' for Active; 'I' for Inactive)
REMARK    1  A    between atoms: C1_1  and  O1_2
REMARK    2  A    between atoms: O1_2  and  C2_3
REMARK    3  A    between atoms: C2_3  and  C3_5
REMARK    4  A    between atoms: C5_7  and  N1_8
REMARK    5  A    between atoms: C6_9  and  C7_11
REMARK    6  A    between atoms: C15_21  and  N3_22
REMARK    7  A    between atoms: C16_23  and  C17_24
REMARK    8  A    between atoms: C19_27  and  O5_28
REMARK    9  A    between atoms: O5_28  and  C20_29
REMARK                            x       y       z     vdW  Elec       q    Type
REMARK                         _______ _______ _______ _____ _____    ______ ____
ROOT
ATOM      1  C3  UNL     1      -3.196   1.578   0.507  0.00  0.00    +0.102 A 
ATOM      2  C4  UNL     1      -1.789   1.585   0.475  0.00  0.00    +0.043 A 
ATOM      3  C5  UNL     1      -1.064   0.438   0.133  0.00  0.00    +0.056 A 
ATOM      4  C15 UNL     1      -1.753  -0.766  -0.127  0.00  0.00    +0.058 A 
ATOM      5  C18 UNL     1      -3.151  -0.774  -0.129  0.00  0.00    +0.071 A 
ATOM      6  C19 UNL     1      -3.886   0.385   0.187  0.00  0.00    +0.136 A 
ENDROOT
BRANCH   4   7
ATOM      7  N3  UNL     1      -1.054  -1.993  -0.383  0.00  0.00    -0.284 N 
ATOM      8  C16 UNL     1      -0.066  -2.520   0.512  0.00  0.00    +0.214 C 
ATOM      9  C17 UNL     1       0.778  -3.678   0.090  0.00  0.00    +0.109 C 
ATOM     10  O4  UNL     1       0.088  -2.020   1.659  0.00  0.00    -0.276 OA
ATOM     11  H11 UNL     1      -1.375  -2.593  -1.177  0.00  0.00    +0.155 HD
ENDBRANCH   4   7
BRANCH   3  12
ATOM     12  N1  UNL     1       0.368   0.525   0.042  0.00  0.00    -0.280 N 
ATOM     13  C6  UNL     1       1.104   0.033  -1.090  0.00  0.00    +0.251 C 
ATOM     14  O3  UNL     1       0.494  -0.216  -2.167  0.00  0.00    -0.270 OA
ATOM     15  H5  UNL     1       0.863   1.154   0.713  0.00  0.00    +0.155 HD
BRANCH  13  16
ATOM     16  C7  UNL     1       2.574  -0.151  -1.029  0.00  0.00    +0.073 A 
ATOM     17  C8  UNL     1       3.332  -0.124  -2.232  0.00  0.00    +0.018 A 
ATOM     18  C9  UNL     1       4.725  -0.311  -2.216  0.00  0.00    +0.027 A 
ATOM     19  C10 UNL     1       5.338  -0.531  -0.987  0.00  0.00    +0.049 A 
ATOM     20  N2  UNL     1       6.644  -0.743  -0.754  0.00  0.00    -0.361 N 
ATOM     21  C11 UNL     1       6.755  -0.921   0.583  0.00  0.00    +0.084 A 
ATOM     22  C12 UNL     1       5.512  -0.821   1.199  0.00  0.00    +0.030 A 
ATOM     23  C13 UNL     1       4.622  -0.570   0.177  0.00  0.00    +0.036 A 
ATOM     24  C14 UNL     1       3.240  -0.389   0.202  0.00  0.00    +0.145 A 
ATOM     25  F1  UNL     1       2.571  -0.486   1.378  0.00  0.00    -0.204 F 
ATOM     26  H8  UNL     1       7.415  -0.771  -1.456  0.00  0.00    +0.165 HD
ENDBRANCH  13  16
ENDBRANCH   3  12
BRANCH   1  27
ATOM     27  C2  UNL     1      -3.912   2.832   0.866  0.00  0.00    +0.343 C 
ATOM     28  O2  UNL     1      -5.171   2.855   0.946  0.00  0.00    -0.245 OA
BRANCH  27  30
ATOM     29  C1  UNL     1      -3.800   5.233   1.466  0.00  0.00    +0.280 C 
ATOM     30  O1  UNL     1      -3.182   3.999   1.118  0.00  0.00    -0.464 OA
ENDBRANCH  27  30
ENDBRANCH   1  27
BRANCH   6  31
ATOM     31  O5  UNL     1      -5.292   0.375   0.194  0.00  0.00    -0.494 OA
ATOM     32  C20 UNL     1      -6.100  -0.758  -0.111  0.00  0.00    +0.277 C 
ENDBRANCH   6  31
TORSDOF 6
