REMARK  Name = /home/qwerty/github/datacon2025hack/step_04_hit_selection/docking/ligands/lig_573.pdb
REMARK  8 active torsions:
REMARK  status: ('A' for Active; 'I' for Inactive)
REMARK    1  A    between atoms: C2_2  and  C3_3
REMARK    2  A    between atoms: C2_2  and  C4_4
REMARK    3  A    between atoms: C4_4  and  C5_5
REMARK    4  A    between atoms: C4_4  and  C6_6
REMARK    5  A    between atoms: C4_4  and  C7_7
REMARK    6  A    between atoms: N1_9  and  C8_10
REMARK    7  A    between atoms: C8_10  and  C9_11
REMARK    8  A    between atoms: C14_17  and  C15_19
REMARK                            x       y       z     vdW  Elec       q    Type
REMARK                         _______ _______ _______ _____ _____    ______ ____
ROOT
ATOM      1  C9  UNL     1      -0.182  -0.108   1.060  0.00  0.00    +0.093 C 
ATOM      2  C10 UNL     1       0.081  -1.632   1.193  0.00  0.00    +0.024 C 
ATOM      3  C11 UNL     1      -0.554  -2.284   2.436  0.00  0.00    +0.003 C 
ATOM      4  C12 UNL     1      -0.909  -1.260   3.510  0.00  0.00    +0.019 C 
ATOM      5  C13 UNL     1      -1.906  -0.244   2.948  0.00  0.00    +0.108 C 
ATOM      6  N2  UNL     1      -1.505   0.243   1.620  0.00  0.00    -0.293 N 
ATOM      7  C14 UNL     1      -2.292   1.312   1.072  0.00  0.00    +0.246 C 
ATOM      8  O2  UNL     1      -1.917   2.502   1.253  0.00  0.00    -0.270 OA
ENDROOT
BRANCH   7   9
ATOM      9  C15 UNL     1      -3.535   1.033   0.315  0.00  0.00    +0.049 C 
ATOM     10  C16 UNL     1      -3.883  -0.231   0.007  0.00  0.00    +0.195 C 
ATOM     11  O3  UNL     1      -5.066  -0.511  -0.691  0.00  0.00    -0.499 OA
ATOM     12  C17 UNL     1      -6.056   0.482  -0.949  0.00  0.00    +0.228 C 
ATOM     13  C18 UNL     1      -5.386   1.827  -1.217  0.00  0.00    +0.046 C 
ATOM     14  C19 UNL     1      -4.453   2.180  -0.053  0.00  0.00    +0.047 C 
ENDBRANCH   7   9
BRANCH   1  15
ATOM     15  C8  UNL     1      -0.029   0.331  -0.417  0.00  0.00    +0.126 C 
BRANCH  15  18
ATOM     16  C7  UNL     1       2.462   0.779  -0.635  0.00  0.00    +0.223 C 
ATOM     17  O1  UNL     1       2.365   1.768   0.145  0.00  0.00    -0.275 OA
ATOM     18  N1  UNL     1       1.296  -0.006  -0.935  0.00  0.00    -0.313 N 
ATOM     19  H12 UNL     1       1.376  -0.804  -1.606  0.00  0.00    +0.149 HD
BRANCH  16  20
ATOM     20  C4  UNL     1       3.797   0.444  -1.289  0.00  0.00    +0.062 C 
ATOM     21  C5  UNL     1       3.651   0.740  -2.801  0.00  0.00    +0.025 C 
ATOM     22  C6  UNL     1       4.925   1.341  -0.735  0.00  0.00    +0.025 C 
BRANCH  20  24
ATOM     23  C1  UNL     1       4.622  -1.876  -1.916  0.00  0.00    +0.008 C 
ATOM     24  C2  UNL     1       4.160  -1.022  -0.981  0.00  0.00    -0.065 C 
ATOM     25  C3  UNL     1       4.110  -1.525   0.443  0.00  0.00    +0.039 C 
ENDBRANCH  20  24
ENDBRANCH  16  20
ENDBRANCH  15  18
ENDBRANCH   1  15
TORSDOF 5
