MODEL 1
REMARK VINA RESULT:    -8.045      0.000      0.000
REMARK INTER + INTRA:         -11.845
REMARK INTER:                 -10.867
REMARK INTRA:                  -0.978
REMARK UNBOUND:                -0.978
REMARK  Name = /home/qwerty/github/datacon2025hack/step_04_hit_selection/docking/ligands/lig_491.pdb
REMARK  7 active torsions:
REMARK  status: ('A' for Active; 'I' for Inactive)
REMARK    1  A    between atoms: C1_1  and  C2_2
REMARK    2  A    between atoms: C2_2  and  N1_3
REMARK    3  A    between atoms: C2_2  and  C15_17
REMARK    4  A    between atoms: C3_4  and  C4_6
REMARK    5  A    between atoms: C7_9  and  C8_10
REMARK    6  A    between atoms: C18_20  and  N2_21
REMARK    7  A    between atoms: N3_24  and  C20_25
REMARK                            x       y       z     vdW  Elec       q    Type
REMARK                         _______ _______ _______ _____ _____    ______ ____
ROOT
ATOM      1  C15 UNL     1      15.022   0.255  21.896  0.00  0.00    -0.027 A 
ATOM      2  C16 UNL     1      15.265   1.044  20.758  0.00  0.00    +0.007 A 
ATOM      3  C17 UNL     1      14.261   1.868  20.242  0.00  0.00    +0.023 A 
ATOM      4  C18 UNL     1      12.998   1.919  20.849  0.00  0.00    +0.035 A 
ATOM      5  C28 UNL     1      12.743   1.101  21.964  0.00  0.00    +0.023 A 
ATOM      6  C29 UNL     1      13.748   0.280  22.484  0.00  0.00    +0.007 A 
ENDROOT
BRANCH   4   7
ATOM      7  N2  UNL     1      11.975   2.748  20.272  0.00  0.00    -0.269 N 
ATOM      8  C19 UNL     1      11.678   4.088  20.700  0.00  0.00    +0.308 C 
ATOM      9  O2  UNL     1      12.501   4.722  21.416  0.00  0.00    -0.252 OA
ATOM     10  N3  UNL     1      10.481   4.727  20.236  0.00  0.00    -0.263 N 
ATOM     11  H19 UNL     1      11.446   2.376  19.451  0.00  0.00    +0.156 HD
ATOM     12  H20 UNL     1       9.966   4.288  19.440  0.00  0.00    +0.157 HD
BRANCH  10  13
ATOM     13  C20 UNL     1       9.955   5.953  20.766  0.00  0.00    +0.074 A 
ATOM     14  C21 UNL     1      10.157   7.236  20.250  0.00  0.00    +0.039 A 
ATOM     15  C22 UNL     1       9.565   8.222  21.048  0.00  0.00    -0.009 A 
ATOM     16  C23 UNL     1       9.590   9.599  20.811  0.00  0.00    +0.009 A 
ATOM     17  C24 UNL     1       8.952  10.455  21.726  0.00  0.00    +0.001 A 
ATOM     18  C25 UNL     1       8.304   9.930  22.862  0.00  0.00    +0.001 A 
ATOM     19  C26 UNL     1       8.287   8.546  23.093  0.00  0.00    +0.016 A 
ATOM     20  C27 UNL     1       8.925   7.717  22.172  0.00  0.00    +0.021 A 
ATOM     21  S1  UNL     1       9.078   6.046  22.210  0.00  0.00    -0.073 S 
ENDBRANCH  10  13
ENDBRANCH   4   7
BRANCH   1  23
ATOM     22  C1  UNL     1      16.934  -1.231  21.294  0.00  0.00    +0.033 C 
ATOM     23  C2  UNL     1      16.091  -0.668  22.442  0.00  0.00    +0.100 C 
BRANCH  23  24
ATOM     24  N1  UNL     1      16.940   0.039  23.410  0.00  0.00    -0.305 N 
ATOM     25  C3  UNL     1      17.581  -0.644  24.500  0.00  0.00    +0.245 C 
ATOM     26  O1  UNL     1      17.576  -1.906  24.534  0.00  0.00    -0.270 OA
ATOM     27  H5  UNL     1      17.128   1.056  23.271  0.00  0.00    +0.150 HD
BRANCH  25  28
ATOM     28  C4  UNL     1      18.261   0.109  25.579  0.00  0.00    +0.037 A 
ATOM     29  C5  UNL     1      17.543   0.607  26.680  0.00  0.00    +0.013 A 
ATOM     30  C6  UNL     1      18.195   1.318  27.693  0.00  0.00    +0.009 A 
ATOM     31  C7  UNL     1      19.586   1.538  27.636  0.00  0.00    -0.022 A 
ATOM     32  C13 UNL     1      20.300   1.033  26.534  0.00  0.00    +0.009 A 
ATOM     33  C14 UNL     1      19.647   0.321  25.524  0.00  0.00    +0.013 A 
BRANCH  31  34
ATOM     34  C8  UNL     1      20.296   2.302  28.700  0.00  0.00    -0.044 C 
ATOM     35  C9  UNL     1      20.631   3.582  28.621  0.00  0.00    -0.023 C 
ATOM     36  C10 UNL     1      21.318   4.071  29.840  0.00  0.00    +0.028 C 
ATOM     37  C11 UNL     1      21.503   2.821  30.699  0.00  0.00    +0.009 C 
ATOM     38  C12 UNL     1      20.690   1.721  30.015  0.00  0.00    +0.036 C 
ENDBRANCH  31  34
ENDBRANCH  25  28
ENDBRANCH  23  24
ENDBRANCH   1  23
TORSDOF 6
ENDMDL
MODEL 2
REMARK VINA RESULT:    -7.958      3.683     11.336
REMARK INTER + INTRA:         -11.728
REMARK INTER:                 -10.743
REMARK INTRA:                  -0.985
REMARK UNBOUND:                -0.978
REMARK  Name = /home/qwerty/github/datacon2025hack/step_04_hit_selection/docking/ligands/lig_491.pdb
REMARK  7 active torsions:
REMARK  status: ('A' for Active; 'I' for Inactive)
REMARK    1  A    between atoms: C1_1  and  C2_2
REMARK    2  A    between atoms: C2_2  and  N1_3
REMARK    3  A    between atoms: C2_2  and  C15_17
REMARK    4  A    between atoms: C3_4  and  C4_6
REMARK    5  A    between atoms: C7_9  and  C8_10
REMARK    6  A    between atoms: C18_20  and  N2_21
REMARK    7  A    between atoms: N3_24  and  C20_25
REMARK                            x       y       z     vdW  Elec       q    Type
REMARK                         _______ _______ _______ _____ _____    ______ ____
ROOT
ATOM      1  C15 UNL     1       9.285   5.855  21.144  0.00  0.00    -0.027 A 
ATOM      2  C16 UNL     1       8.880   4.613  21.664  0.00  0.00    +0.007 A 
ATOM      3  C17 UNL     1       9.688   3.484  21.507  0.00  0.00    +0.023 A 
ATOM      4  C18 UNL     1      10.911   3.571  20.828  0.00  0.00    +0.035 A 
ATOM      5  C28 UNL     1      11.298   4.805  20.274  0.00  0.00    +0.023 A 
ATOM      6  C29 UNL     1      10.494   5.936  20.435  0.00  0.00    +0.007 A 
ENDROOT
BRANCH   4   7
ATOM      7  N2  UNL     1      11.702   2.383  20.650  0.00  0.00    -0.269 N 
ATOM      8  C19 UNL     1      12.609   1.857  21.633  0.00  0.00    +0.308 C 
ATOM      9  O2  UNL     1      12.543   2.248  22.830  0.00  0.00    -0.252 OA
ATOM     10  N3  UNL     1      13.531   0.823  21.259  0.00  0.00    -0.263 N 
ATOM     11  H19 UNL     1      11.571   1.833  19.771  0.00  0.00    +0.156 HD
ATOM     12  H20 UNL     1      13.378   0.334  20.349  0.00  0.00    +0.157 HD
BRANCH  10  13
ATOM     13  C20 UNL     1      14.632   0.384  22.068  0.00  0.00    +0.074 A 
ATOM     14  C21 UNL     1      14.649  -0.726  22.917  0.00  0.00    +0.039 A 
ATOM     15  C22 UNL     1      15.856  -0.831  23.618  0.00  0.00    -0.009 A 
ATOM     16  C23 UNL     1      16.187  -1.823  24.545  0.00  0.00    +0.009 A 
ATOM     17  C24 UNL     1      17.445  -1.772  25.171  0.00  0.00    +0.001 A 
ATOM     18  C25 UNL     1      18.352  -0.737  24.868  0.00  0.00    +0.001 A 
ATOM     19  C26 UNL     1      18.009   0.256  23.938  0.00  0.00    +0.016 A 
ATOM     20  C27 UNL     1      16.757   0.184  23.329  0.00  0.00    +0.021 A 
ATOM     21  S1  UNL     1      16.086   1.238  22.208  0.00  0.00    -0.073 S 
ENDBRANCH  10  13
ENDBRANCH   4   7
BRANCH   1  23
ATOM     22  C1  UNL     1       6.943   6.704  20.996  0.00  0.00    +0.033 C 
ATOM     23  C2  UNL     1       8.401   7.077  21.278  0.00  0.00    +0.100 C 
BRANCH  23  24
ATOM     24  N1  UNL     1       8.535   7.669  22.615  0.00  0.00    -0.305 N 
ATOM     25  C3  UNL     1       8.514   9.091  22.823  0.00  0.00    +0.245 C 
ATOM     26  O1  UNL     1       8.187   9.854  21.871  0.00  0.00    -0.270 OA
ATOM     27  H5  UNL     1       8.593   7.038  23.445  0.00  0.00    +0.150 HD
BRANCH  25  28
ATOM     28  C4  UNL     1       8.854   9.676  24.140  0.00  0.00    +0.037 A 
ATOM     29  C5  UNL     1      10.188   9.943  24.492  0.00  0.00    +0.013 A 
ATOM     30  C6  UNL     1      10.499  10.494  25.739  0.00  0.00    +0.009 A 
ATOM     31  C7  UNL     1       9.480  10.805  26.662  0.00  0.00    -0.022 A 
ATOM     32  C13 UNL     1       8.146  10.540  26.302  0.00  0.00    +0.009 A 
ATOM     33  C14 UNL     1       7.837   9.991  25.055  0.00  0.00    +0.013 A 
BRANCH  31  34
ATOM     34  C8  UNL     1       9.792  11.383  28.000  0.00  0.00    -0.044 C 
ATOM     35  C9  UNL     1      10.343  10.717  29.005  0.00  0.00    -0.023 C 
ATOM     36  C10 UNL     1      10.545  11.559  30.208  0.00  0.00    +0.028 C 
ATOM     37  C11 UNL     1       9.886  12.892  29.853  0.00  0.00    +0.009 C 
ATOM     38  C12 UNL     1       9.552  12.808  28.364  0.00  0.00    +0.036 C 
ENDBRANCH  31  34
ENDBRANCH  25  28
ENDBRANCH  23  24
ENDBRANCH   1  23
TORSDOF 6
ENDMDL
MODEL 3
REMARK VINA RESULT:    -7.943     10.225     14.233
REMARK INTER + INTRA:         -11.708
REMARK INTER:                 -10.739
REMARK INTRA:                  -0.968
REMARK UNBOUND:                -0.978
REMARK  Name = /home/qwerty/github/datacon2025hack/step_04_hit_selection/docking/ligands/lig_491.pdb
REMARK  7 active torsions:
REMARK  status: ('A' for Active; 'I' for Inactive)
REMARK    1  A    between atoms: C1_1  and  C2_2
REMARK    2  A    between atoms: C2_2  and  N1_3
REMARK    3  A    between atoms: C2_2  and  C15_17
REMARK    4  A    between atoms: C3_4  and  C4_6
REMARK    5  A    between atoms: C7_9  and  C8_10
REMARK    6  A    between atoms: C18_20  and  N2_21
REMARK    7  A    between atoms: N3_24  and  C20_25
REMARK                            x       y       z     vdW  Elec       q    Type
REMARK                         _______ _______ _______ _____ _____    ______ ____
ROOT
ATOM      1  C15 UNL     1      21.634   8.010  36.030  0.00  0.00    -0.027 A 
ATOM      2  C16 UNL     1      20.822   7.541  37.076  0.00  0.00    +0.007 A 
ATOM      3  C17 UNL     1      19.800   8.343  37.592  0.00  0.00    +0.023 A 
ATOM      4  C18 UNL     1      19.571   9.625  37.075  0.00  0.00    +0.035 A 
ATOM      5  C28 UNL     1      20.408  10.110  36.054  0.00  0.00    +0.023 A 
ATOM      6  C29 UNL     1      21.426   9.307  35.534  0.00  0.00    +0.007 A 
ENDROOT
BRANCH   4   7
ATOM      7  N2  UNL     1      18.536  10.440  37.653  0.00  0.00    -0.269 N 
ATOM      8  C19 UNL     1      17.270  10.709  37.028  0.00  0.00    +0.308 C 
ATOM      9  O2  UNL     1      16.877  10.000  36.061  0.00  0.00    -0.252 OA
ATOM     10  N3  UNL     1      16.421  11.732  37.566  0.00  0.00    -0.263 N 
ATOM     11  H19 UNL     1      18.689  10.820  38.615  0.00  0.00    +0.156 HD
ATOM     12  H20 UNL     1      16.645  12.108  38.515  0.00  0.00    +0.157 HD
BRANCH  10  13
ATOM     13  C20 UNL     1      15.258  12.254  36.908  0.00  0.00    +0.074 A 
ATOM     14  C21 UNL     1      13.932  11.875  37.139  0.00  0.00    +0.039 A 
ATOM     15  C22 UNL     1      13.043  12.525  36.275  0.00  0.00    -0.009 A 
ATOM     16  C23 UNL     1      11.655  12.363  36.246  0.00  0.00    +0.009 A 
ATOM     17  C24 UNL     1      10.909  13.088  35.300  0.00  0.00    +0.001 A 
ATOM     18  C25 UNL     1      11.551  13.958  34.398  0.00  0.00    +0.001 A 
ATOM     19  C26 UNL     1      12.946  14.112  34.433  0.00  0.00    +0.016 A 
ATOM     20  C27 UNL     1      13.665  13.384  35.380  0.00  0.00    +0.021 A 
ATOM     21  S1  UNL     1      15.325  13.359  35.629  0.00  0.00    -0.073 S 
ENDBRANCH  10  13
ENDBRANCH   4   7
BRANCH   1  23
ATOM     22  C1  UNL     1      23.459   6.419  36.632  0.00  0.00    +0.033 C 
ATOM     23  C2  UNL     1      22.766   7.163  35.487  0.00  0.00    +0.100 C 
BRANCH  23  24
ATOM     24  N1  UNL     1      22.269   6.217  34.480  0.00  0.00    -0.305 N 
ATOM     25  C3  UNL     1      23.098   5.746  33.405  0.00  0.00    +0.245 C 
ATOM     26  O1  UNL     1      24.336   5.994  33.419  0.00  0.00    -0.270 OA
ATOM     27  H5  UNL     1      21.303   5.835  34.577  0.00  0.00    +0.150 HD
BRANCH  25  28
ATOM     28  C4  UNL     1      22.527   4.960  32.287  0.00  0.00    +0.037 A 
ATOM     29  C5  UNL     1      21.930   5.594  31.185  0.00  0.00    +0.013 A 
ATOM     30  C6  UNL     1      21.393   4.843  30.135  0.00  0.00    +0.009 A 
ATOM     31  C7  UNL     1      21.450   3.435  30.156  0.00  0.00    -0.022 A 
ATOM     32  C13 UNL     1      22.053   2.805  31.260  0.00  0.00    +0.009 A 
ATOM     33  C14 UNL     1      22.592   3.558  32.307  0.00  0.00    +0.013 A 
BRANCH  31  34
ATOM     34  C8  UNL     1      20.873   2.616  29.052  0.00  0.00    -0.044 C 
ATOM     35  C9  UNL     1      19.595   2.284  28.941  0.00  0.00    -0.023 C 
ATOM     36  C10 UNL     1      19.316   1.474  27.731  0.00  0.00    +0.028 C 
ATOM     37  C11 UNL     1      20.694   1.210  27.126  0.00  0.00    +0.009 C 
ATOM     38  C12 UNL     1      21.669   2.093  27.905  0.00  0.00    +0.036 C 
ENDBRANCH  31  34
ENDBRANCH  25  28
ENDBRANCH  23  24
ENDBRANCH   1  23
TORSDOF 6
ENDMDL
MODEL 4
REMARK VINA RESULT:    -7.895      9.969     13.383
REMARK INTER + INTRA:         -11.643
REMARK INTER:                 -10.536
REMARK INTRA:                  -1.108
REMARK UNBOUND:                -0.978
REMARK  Name = /home/qwerty/github/datacon2025hack/step_04_hit_selection/docking/ligands/lig_491.pdb
REMARK  7 active torsions:
REMARK  status: ('A' for Active; 'I' for Inactive)
REMARK    1  A    between atoms: C1_1  and  C2_2
REMARK    2  A    between atoms: C2_2  and  N1_3
REMARK    3  A    between atoms: C2_2  and  C15_17
REMARK    4  A    between atoms: C3_4  and  C4_6
REMARK    5  A    between atoms: C7_9  and  C8_10
REMARK    6  A    between atoms: C18_20  and  N2_21
REMARK    7  A    between atoms: N3_24  and  C20_25
REMARK                            x       y       z     vdW  Elec       q    Type
REMARK                         _______ _______ _______ _____ _____    ______ ____
ROOT
ATOM      1  C15 UNL     1       8.586  11.498  29.520  0.00  0.00    -0.027 A 
ATOM      2  C16 UNL     1       7.387  10.767  29.457  0.00  0.00    +0.007 A 
ATOM      3  C17 UNL     1       7.349   9.434  29.873  0.00  0.00    +0.023 A 
ATOM      4  C18 UNL     1       8.504   8.805  30.358  0.00  0.00    +0.035 A 
ATOM      5  C28 UNL     1       9.712   9.524  30.386  0.00  0.00    +0.023 A 
ATOM      6  C29 UNL     1       9.751  10.859  29.975  0.00  0.00    +0.007 A 
ENDROOT
BRANCH   4   7
ATOM      7  N2  UNL     1       8.441   7.421  30.743  0.00  0.00    -0.269 N 
ATOM      8  C19 UNL     1       8.269   6.329  29.824  0.00  0.00    +0.308 C 
ATOM      9  O2  UNL     1       8.458   6.504  28.589  0.00  0.00    -0.252 OA
ATOM     10  N3  UNL     1       7.963   5.022  30.331  0.00  0.00    -0.263 N 
ATOM     11  H19 UNL     1       8.584   7.184  31.751  0.00  0.00    +0.156 HD
ATOM     12  H20 UNL     1       8.082   4.853  31.355  0.00  0.00    +0.157 HD
BRANCH  10  13
ATOM     13  C20 UNL     1       7.539   3.915  29.523  0.00  0.00    +0.074 A 
ATOM     14  C21 UNL     1       8.364   2.954  28.932  0.00  0.00    +0.039 A 
ATOM     15  C22 UNL     1       7.638   2.051  28.147  0.00  0.00    -0.009 A 
ATOM     16  C23 UNL     1       8.166   0.979  27.422  0.00  0.00    +0.009 A 
ATOM     17  C24 UNL     1       7.292   0.174  26.671  0.00  0.00    +0.001 A 
ATOM     18  C25 UNL     1       5.910   0.447  26.649  0.00  0.00    +0.001 A 
ATOM     19  C26 UNL     1       5.390   1.528  27.378  0.00  0.00    +0.016 A 
ATOM     20  C27 UNL     1       6.275   2.312  28.116  0.00  0.00    +0.021 A 
ATOM     21  S1  UNL     1       5.935   3.663  29.053  0.00  0.00    -0.073 S 
ENDBRANCH  10  13
ENDBRANCH   4   7
BRANCH   1  23
ATOM     22  C1  UNL     1       7.517  13.747  29.677  0.00  0.00    +0.033 C 
ATOM     23  C2  UNL     1       8.646  12.932  29.039  0.00  0.00    +0.100 C 
BRANCH  23  24
ATOM     24  N1  UNL     1       9.953  13.527  29.348  0.00  0.00    -0.305 N 
ATOM     25  C3  UNL     1      10.811  14.051  28.321  0.00  0.00    +0.245 C 
ATOM     26  O1  UNL     1      10.369  14.180  27.145  0.00  0.00    -0.270 OA
ATOM     27  H5  UNL     1      10.243  13.622  30.346  0.00  0.00    +0.150 HD
BRANCH  25  28
ATOM     28  C4  UNL     1      12.203  14.457  28.622  0.00  0.00    +0.037 A 
ATOM     29  C5  UNL     1      13.100  14.792  27.593  0.00  0.00    +0.013 A 
ATOM     30  C6  UNL     1      14.413  15.172  27.888  0.00  0.00    +0.009 A 
ATOM     31  C7  UNL     1      14.859  15.240  29.222  0.00  0.00    -0.022 A 
ATOM     32  C13 UNL     1      13.956  14.909  30.249  0.00  0.00    +0.009 A 
ATOM     33  C14 UNL     1      12.644  14.530  29.952  0.00  0.00    +0.013 A 
BRANCH  31  34
ATOM     34  C8  UNL     1      16.258  15.633  29.556  0.00  0.00    -0.044 C 
ATOM     35  C9  UNL     1      16.816  16.794  29.242  0.00  0.00    -0.023 C 
ATOM     36  C10 UNL     1      18.216  16.903  29.716  0.00  0.00    +0.028 C 
ATOM     37  C11 UNL     1      18.532  15.522  30.289  0.00  0.00    +0.009 C 
ATOM     38  C12 UNL     1      17.201  14.770  30.323  0.00  0.00    +0.036 C 
ENDBRANCH  31  34
ENDBRANCH  25  28
ENDBRANCH  23  24
ENDBRANCH   1  23
TORSDOF 6
ENDMDL
MODEL 5
REMARK VINA RESULT:    -7.804     11.382     18.081
REMARK INTER + INTRA:         -11.520
REMARK INTER:                 -10.555
REMARK INTRA:                  -0.964
REMARK UNBOUND:                -0.978
REMARK  Name = /home/qwerty/github/datacon2025hack/step_04_hit_selection/docking/ligands/lig_491.pdb
REMARK  7 active torsions:
REMARK  status: ('A' for Active; 'I' for Inactive)
REMARK    1  A    between atoms: C1_1  and  C2_2
REMARK    2  A    between atoms: C2_2  and  N1_3
REMARK    3  A    between atoms: C2_2  and  C15_17
REMARK    4  A    between atoms: C3_4  and  C4_6
REMARK    5  A    between atoms: C7_9  and  C8_10
REMARK    6  A    between atoms: C18_20  and  N2_21
REMARK    7  A    between atoms: N3_24  and  C20_25
REMARK                            x       y       z     vdW  Elec       q    Type
REMARK                         _______ _______ _______ _____ _____    ______ ____
ROOT
ATOM      1  C15 UNL     1      14.465  13.476  36.498  0.00  0.00    -0.027 A 
ATOM      2  C16 UNL     1      14.022  12.156  36.695  0.00  0.00    +0.007 A 
ATOM      3  C17 UNL     1      14.878  11.198  37.246  0.00  0.00    +0.023 A 
ATOM      4  C18 UNL     1      16.189  11.538  37.607  0.00  0.00    +0.035 A 
ATOM      5  C28 UNL     1      16.644  12.848  37.374  0.00  0.00    +0.023 A 
ATOM      6  C29 UNL     1      15.788  13.808  36.829  0.00  0.00    +0.007 A 
ENDROOT
BRANCH   4   7
ATOM      7  N2  UNL     1      17.057  10.520  38.136  0.00  0.00    -0.269 N 
ATOM      8  C19 UNL     1      18.191   9.978  37.439  0.00  0.00    +0.308 C 
ATOM      9  O2  UNL     1      18.665  10.577  36.435  0.00  0.00    -0.252 OA
ATOM     10  N3  UNL     1      18.830   8.797  37.944  0.00  0.00    -0.263 N 
ATOM     11  H19 UNL     1      16.888  10.189  39.112  0.00  0.00    +0.156 HD
ATOM     12  H20 UNL     1      18.592   8.485  38.912  0.00  0.00    +0.157 HD
BRANCH  10  13
ATOM     13  C20 UNL     1      19.807   8.029  37.225  0.00  0.00    +0.074 A 
ATOM     14  C21 UNL     1      21.186   8.021  37.449  0.00  0.00    +0.039 A 
ATOM     15  C22 UNL     1      21.863   7.218  36.524  0.00  0.00    -0.009 A 
ATOM     16  C23 UNL     1      23.243   7.003  36.472  0.00  0.00    +0.009 A 
ATOM     17  C24 UNL     1      23.762   6.172  35.464  0.00  0.00    +0.001 A 
ATOM     18  C25 UNL     1      22.904   5.571  34.522  0.00  0.00    +0.001 A 
ATOM     19  C26 UNL     1      21.519   5.796  34.580  0.00  0.00    +0.016 A 
ATOM     20  C27 UNL     1      21.028   6.622  35.589  0.00  0.00    +0.021 A 
ATOM     21  S1  UNL     1      19.437   7.075  35.879  0.00  0.00    -0.073 S 
ENDBRANCH  10  13
ENDBRANCH   4   7
BRANCH   1  23
ATOM     22  C1  UNL     1      14.245  15.881  35.873  0.00  0.00    +0.033 C 
ATOM     23  C2  UNL     1      13.557  14.513  35.870  0.00  0.00    +0.100 C 
BRANCH  23  24
ATOM     24  N1  UNL     1      13.190  14.120  34.504  0.00  0.00    -0.305 N 
ATOM     25  C3  UNL     1      11.837  13.795  34.144  0.00  0.00    +0.245 C 
ATOM     26  O1  UNL     1      10.902  14.026  34.961  0.00  0.00    -0.270 OA
ATOM     27  H5  UNL     1      13.921  14.130  33.759  0.00  0.00    +0.150 HD
BRANCH  25  28
ATOM     28  C4  UNL     1      11.517  13.206  32.823  0.00  0.00    +0.037 A 
ATOM     29  C5  UNL     1      11.382  11.816  32.662  0.00  0.00    +0.013 A 
ATOM     30  C6  UNL     1      11.082  11.271  31.410  0.00  0.00    +0.009 A 
ATOM     31  C7  UNL     1      10.897  12.103  30.288  0.00  0.00    -0.022 A 
ATOM     32  C13 UNL     1      11.029  13.494  30.457  0.00  0.00    +0.009 A 
ATOM     33  C14 UNL     1      11.327  14.037  31.709  0.00  0.00    +0.013 A 
BRANCH  31  34
ATOM     34  C8  UNL     1      10.587  11.539  28.944  0.00  0.00    -0.044 C 
ATOM     35  C9  UNL     1       9.764  10.525  28.717  0.00  0.00    -0.023 C 
ATOM     36  C10 UNL     1       9.646  10.194  27.277  0.00  0.00    +0.028 C 
ATOM     37  C11 UNL     1      10.669  11.102  26.594  0.00  0.00    +0.009 C 
ATOM     38  C12 UNL     1      11.147  12.076  27.671  0.00  0.00    +0.036 C 
ENDBRANCH  31  34
ENDBRANCH  25  28
ENDBRANCH  23  24
ENDBRANCH   1  23
TORSDOF 6
ENDMDL
MODEL 6
REMARK VINA RESULT:    -7.794      1.645      2.203
REMARK INTER + INTRA:         -11.506
REMARK INTER:                 -10.376
REMARK INTRA:                  -1.130
REMARK UNBOUND:                -0.978
REMARK  Name = /home/qwerty/github/datacon2025hack/step_04_hit_selection/docking/ligands/lig_491.pdb
REMARK  7 active torsions:
REMARK  status: ('A' for Active; 'I' for Inactive)
REMARK    1  A    between atoms: C1_1  and  C2_2
REMARK    2  A    between atoms: C2_2  and  N1_3
REMARK    3  A    between atoms: C2_2  and  C15_17
REMARK    4  A    between atoms: C3_4  and  C4_6
REMARK    5  A    between atoms: C7_9  and  C8_10
REMARK    6  A    between atoms: C18_20  and  N2_21
REMARK    7  A    between atoms: N3_24  and  C20_25
REMARK                            x       y       z     vdW  Elec       q    Type
REMARK                         _______ _______ _______ _____ _____    ______ ____
ROOT
ATOM      1  C15 UNL     1      15.611   0.848  20.683  0.00  0.00    -0.027 A 
ATOM      2  C16 UNL     1      14.219   1.043  20.645  0.00  0.00    +0.007 A 
ATOM      3  C17 UNL     1      13.688   2.292  20.313  0.00  0.00    +0.023 A 
ATOM      4  C18 UNL     1      14.534   3.369  20.014  0.00  0.00    +0.035 A 
ATOM      5  C28 UNL     1      15.926   3.185  20.089  0.00  0.00    +0.023 A 
ATOM      6  C29 UNL     1      16.459   1.935  20.416  0.00  0.00    +0.007 A 
ENDROOT
BRANCH   4   7
ATOM      7  N2  UNL     1      13.958   4.652  19.713  0.00  0.00    -0.269 N 
ATOM      8  C19 UNL     1      13.281   5.483  20.671  0.00  0.00    +0.308 C 
ATOM      9  O2  UNL     1      13.411   5.263  21.906  0.00  0.00    -0.252 OA
ATOM     10  N3  UNL     1      12.525   6.613  20.214  0.00  0.00    -0.263 N 
ATOM     11  H19 UNL     1      14.085   5.033  18.749  0.00  0.00    +0.156 HD
ATOM     12  H20 UNL     1      12.658   6.926  19.226  0.00  0.00    +0.157 HD
BRANCH  10  13
ATOM     13  C20 UNL     1      11.621   7.372  21.031  0.00  0.00    +0.074 A 
ATOM     14  C21 UNL     1      10.232   7.231  21.085  0.00  0.00    +0.039 A 
ATOM     15  C22 UNL     1       9.641   8.178  21.930  0.00  0.00    -0.009 A 
ATOM     16  C23 UNL     1       8.275   8.307  22.196  0.00  0.00    +0.009 A 
ATOM     17  C24 UNL     1       7.848   9.327  23.065  0.00  0.00    +0.001 A 
ATOM     18  C25 UNL     1       8.783  10.202  23.652  0.00  0.00    +0.001 A 
ATOM     19  C26 UNL     1      10.152  10.066  23.376  0.00  0.00    +0.016 A 
ATOM     20  C27 UNL     1      10.552   9.048  22.513  0.00  0.00    +0.021 A 
ATOM     21  S1  UNL     1      12.105   8.673  21.997  0.00  0.00    -0.073 S 
ENDBRANCH  10  13
ENDBRANCH   4   7
BRANCH   1  23
ATOM     22  C1  UNL     1      16.905  -1.126  19.874  0.00  0.00    +0.033 C 
ATOM     23  C2  UNL     1      16.197  -0.492  21.075  0.00  0.00    +0.100 C 
BRANCH  23  24
ATOM     24  N1  UNL     1      17.124  -0.341  22.204  0.00  0.00    -0.305 N 
ATOM     25  C3  UNL     1      16.659  -0.122  23.546  0.00  0.00    +0.245 C 
ATOM     26  O1  UNL     1      15.430  -0.246  23.807  0.00  0.00    -0.270 OA
ATOM     27  H5  UNL     1      18.149  -0.449  22.035  0.00  0.00    +0.150 HD
BRANCH  25  28
ATOM     28  C4  UNL     1      17.600   0.231  24.633  0.00  0.00    +0.037 A 
ATOM     29  C5  UNL     1      18.982   0.327  24.393  0.00  0.00    +0.013 A 
ATOM     30  C6  UNL     1      19.862   0.660  25.427  0.00  0.00    +0.009 A 
ATOM     31  C7  UNL     1      19.381   0.918  26.727  0.00  0.00    -0.022 A 
ATOM     32  C13 UNL     1      17.997   0.825  26.959  0.00  0.00    +0.009 A 
ATOM     33  C14 UNL     1      17.118   0.494  25.924  0.00  0.00    +0.013 A 
BRANCH  31  34
ATOM     34  C8  UNL     1      20.305   1.264  27.844  0.00  0.00    -0.044 C 
ATOM     35  C9  UNL     1      21.601   1.508  27.710  0.00  0.00    -0.023 C 
ATOM     36  C10 UNL     1      22.259   1.836  28.997  0.00  0.00    +0.028 C 
ATOM     37  C11 UNL     1      21.168   1.624  30.046  0.00  0.00    +0.009 C 
ATOM     38  C12 UNL     1      19.872   1.413  29.262  0.00  0.00    +0.036 C 
ENDBRANCH  31  34
ENDBRANCH  25  28
ENDBRANCH  23  24
ENDBRANCH   1  23
TORSDOF 6
ENDMDL
MODEL 7
REMARK VINA RESULT:    -7.771      8.546     12.467
REMARK INTER + INTRA:         -11.475
REMARK INTER:                 -10.563
REMARK INTRA:                  -0.912
REMARK UNBOUND:                -0.978
REMARK  Name = /home/qwerty/github/datacon2025hack/step_04_hit_selection/docking/ligands/lig_491.pdb
REMARK  7 active torsions:
REMARK  status: ('A' for Active; 'I' for Inactive)
REMARK    1  A    between atoms: C1_1  and  C2_2
REMARK    2  A    between atoms: C2_2  and  N1_3
REMARK    3  A    between atoms: C2_2  and  C15_17
REMARK    4  A    between atoms: C3_4  and  C4_6
REMARK    5  A    between atoms: C7_9  and  C8_10
REMARK    6  A    between atoms: C18_20  and  N2_21
REMARK    7  A    between atoms: N3_24  and  C20_25
REMARK                            x       y       z     vdW  Elec       q    Type
REMARK                         _______ _______ _______ _____ _____    ______ ____
ROOT
ATOM      1  C15 UNL     1      19.834   6.737  20.282  0.00  0.00    -0.027 A 
ATOM      2  C16 UNL     1      21.165   6.401  20.579  0.00  0.00    +0.007 A 
ATOM      3  C17 UNL     1      21.457   5.249  21.314  0.00  0.00    +0.023 A 
ATOM      4  C18 UNL     1      20.427   4.412  21.766  0.00  0.00    +0.035 A 
ATOM      5  C28 UNL     1      19.093   4.768  21.502  0.00  0.00    +0.023 A 
ATOM      6  C29 UNL     1      18.800   5.918  20.763  0.00  0.00    +0.007 A 
ENDROOT
BRANCH   4   7
ATOM      7  N2  UNL     1      20.758   3.254  22.552  0.00  0.00    -0.269 N 
ATOM      8  C19 UNL     1      20.444   3.101  23.946  0.00  0.00    +0.308 C 
ATOM      9  O2  UNL     1      19.595   3.859  24.492  0.00  0.00    -0.252 OA
ATOM     10  N3  UNL     1      21.040   2.029  24.690  0.00  0.00    -0.263 N 
ATOM     11  H19 UNL     1      21.208   2.444  22.068  0.00  0.00    +0.156 HD
ATOM     12  H20 UNL     1      21.516   1.267  24.157  0.00  0.00    +0.157 HD
BRANCH  10  13
ATOM     13  C20 UNL     1      20.997   1.909  26.119  0.00  0.00    +0.074 A 
ATOM     14  C21 UNL     1      22.057   2.130  27.003  0.00  0.00    +0.039 A 
ATOM     15  C22 UNL     1      21.701   1.853  28.328  0.00  0.00    -0.009 A 
ATOM     16  C23 UNL     1      22.531   1.969  29.447  0.00  0.00    +0.009 A 
ATOM     17  C24 UNL     1      22.014   1.636  30.711  0.00  0.00    +0.001 A 
ATOM     18  C25 UNL     1      20.684   1.192  30.844  0.00  0.00    +0.001 A 
ATOM     19  C26 UNL     1      19.859   1.077  29.715  0.00  0.00    +0.016 A 
ATOM     20  C27 UNL     1      20.392   1.413  28.472  0.00  0.00    +0.021 A 
ATOM     21  S1  UNL     1      19.646   1.350  26.969  0.00  0.00    -0.073 S 
ENDBRANCH  10  13
ENDBRANCH   4   7
BRANCH   1  23
ATOM     22  C1  UNL     1      17.993   8.098  19.289  0.00  0.00    +0.033 C 
ATOM     23  C2  UNL     1      19.504   8.002  19.517  0.00  0.00    +0.100 C 
BRANCH  23  24
ATOM     24  N1  UNL     1      19.996   9.185  20.236  0.00  0.00    -0.305 N 
ATOM     25  C3  UNL     1      21.169   9.898  19.812  0.00  0.00    +0.245 C 
ATOM     26  O1  UNL     1      21.692   9.629  18.694  0.00  0.00    -0.270 OA
ATOM     27  H5  UNL     1      19.448   9.550  21.045  0.00  0.00    +0.150 HD
BRANCH  25  28
ATOM     28  C4  UNL     1      21.767  10.957  20.658  0.00  0.00    +0.037 A 
ATOM     29  C5  UNL     1      21.006  11.621  21.634  0.00  0.00    +0.013 A 
ATOM     30  C6  UNL     1      21.580  12.621  22.426  0.00  0.00    +0.009 A 
ATOM     31  C7  UNL     1      22.936  12.972  22.270  0.00  0.00    -0.022 A 
ATOM     32  C13 UNL     1      23.695  12.300  21.294  0.00  0.00    +0.009 A 
ATOM     33  C14 UNL     1      23.119  11.300  20.504  0.00  0.00    +0.013 A 
BRANCH  31  34
ATOM     34  C8  UNL     1      23.562  14.042  23.097  0.00  0.00    -0.044 C 
ATOM     35  C9  UNL     1      23.288  14.274  24.373  0.00  0.00    -0.023 C 
ATOM     36  C10 UNL     1      24.077  15.396  24.934  0.00  0.00    +0.028 C 
ATOM     37  C11 UNL     1      24.836  15.964  23.734  0.00  0.00    +0.009 C 
ATOM     38  C12 UNL     1      24.613  14.972  22.593  0.00  0.00    +0.036 C 
ENDBRANCH  31  34
ENDBRANCH  25  28
ENDBRANCH  23  24
ENDBRANCH   1  23
TORSDOF 6
ENDMDL
MODEL 8
REMARK VINA RESULT:    -7.705      6.070     11.464
REMARK INTER + INTRA:         -11.387
REMARK INTER:                 -10.273
REMARK INTRA:                  -1.114
REMARK UNBOUND:                -0.978
REMARK  Name = /home/qwerty/github/datacon2025hack/step_04_hit_selection/docking/ligands/lig_491.pdb
REMARK  7 active torsions:
REMARK  status: ('A' for Active; 'I' for Inactive)
REMARK    1  A    between atoms: C1_1  and  C2_2
REMARK    2  A    between atoms: C2_2  and  N1_3
REMARK    3  A    between atoms: C2_2  and  C15_17
REMARK    4  A    between atoms: C3_4  and  C4_6
REMARK    5  A    between atoms: C7_9  and  C8_10
REMARK    6  A    between atoms: C18_20  and  N2_21
REMARK    7  A    between atoms: N3_24  and  C20_25
REMARK                            x       y       z     vdW  Elec       q    Type
REMARK                         _______ _______ _______ _____ _____    ______ ____
ROOT
ATOM      1  C15 UNL     1       7.786   2.666  28.055  0.00  0.00    -0.027 A 
ATOM      2  C16 UNL     1       7.659   3.234  26.776  0.00  0.00    +0.007 A 
ATOM      3  C17 UNL     1       8.211   2.598  25.661  0.00  0.00    +0.023 A 
ATOM      4  C18 UNL     1       8.900   1.385  25.802  0.00  0.00    +0.035 A 
ATOM      5  C28 UNL     1       9.060   0.836  27.086  0.00  0.00    +0.023 A 
ATOM      6  C29 UNL     1       8.505   1.469  28.201  0.00  0.00    +0.007 A 
ENDROOT
BRANCH   4   7
ATOM      7  N2  UNL     1       9.489   0.774  24.641  0.00  0.00    -0.269 N 
ATOM      8  C19 UNL     1      10.765   1.140  24.089  0.00  0.00    +0.308 C 
ATOM      9  O2  UNL     1      11.578   1.823  24.770  0.00  0.00    -0.252 OA
ATOM     10  N3  UNL     1      11.139   0.652  22.793  0.00  0.00    -0.263 N 
ATOM     11  H19 UNL     1       8.984  -0.027  24.198  0.00  0.00    +0.156 HD
ATOM     12  H20 UNL     1      10.572  -0.122  22.377  0.00  0.00    +0.157 HD
BRANCH  10  13
ATOM     13  C20 UNL     1      12.263   1.126  22.038  0.00  0.00    +0.074 A 
ATOM     14  C21 UNL     1      13.530   0.539  21.976  0.00  0.00    +0.039 A 
ATOM     15  C22 UNL     1      14.421   1.295  21.206  0.00  0.00    -0.009 A 
ATOM     16  C23 UNL     1      15.760   0.985  20.953  0.00  0.00    +0.009 A 
ATOM     17  C24 UNL     1      16.522   1.866  20.166  0.00  0.00    +0.001 A 
ATOM     18  C25 UNL     1      15.944   3.040  19.645  0.00  0.00    +0.001 A 
ATOM     19  C26 UNL     1      14.599   3.345  19.908  0.00  0.00    +0.016 A 
ATOM     20  C27 UNL     1      13.863   2.456  20.690  0.00  0.00    +0.021 A 
ATOM     21  S1  UNL     1      12.260   2.580  21.173  0.00  0.00    -0.073 S 
ENDBRANCH  10  13
ENDBRANCH   4   7
BRANCH   1  23
ATOM     22  C1  UNL     1       7.721   2.679  30.549  0.00  0.00    +0.033 C 
ATOM     23  C2  UNL     1       7.222   3.365  29.275  0.00  0.00    +0.100 C 
BRANCH  23  24
ATOM     24  N1  UNL     1       7.590   4.787  29.273  0.00  0.00    -0.305 N 
ATOM     25  C3  UNL     1       6.676   5.809  29.703  0.00  0.00    +0.245 C 
ATOM     26  O1  UNL     1       5.598   5.481  30.272  0.00  0.00    -0.270 OA
ATOM     27  H5  UNL     1       8.561   5.058  29.004  0.00  0.00    +0.150 HD
BRANCH  25  28
ATOM     28  C4  UNL     1       6.985   7.244  29.504  0.00  0.00    +0.037 A 
ATOM     29  C5  UNL     1       6.958   8.148  30.579  0.00  0.00    +0.013 A 
ATOM     30  C6  UNL     1       7.249   9.501  30.379  0.00  0.00    +0.009 A 
ATOM     31  C7  UNL     1       7.588   9.982  29.099  0.00  0.00    -0.022 A 
ATOM     32  C13 UNL     1       7.619   9.071  28.027  0.00  0.00    +0.009 A 
ATOM     33  C14 UNL     1       7.329   7.719  28.229  0.00  0.00    +0.013 A 
BRANCH  31  34
ATOM     34  C8  UNL     1       7.891  11.423  28.865  0.00  0.00    -0.044 C 
ATOM     35  C9  UNL     1       7.788  12.379  29.777  0.00  0.00    -0.023 C 
ATOM     36  C10 UNL     1       8.168  13.713  29.255  0.00  0.00    +0.028 C 
ATOM     37  C11 UNL     1       8.413  13.481  27.764  0.00  0.00    +0.009 C 
ATOM     38  C12 UNL     1       8.387  11.965  27.568  0.00  0.00    +0.036 C 
ENDBRANCH  31  34
ENDBRANCH  25  28
ENDBRANCH  23  24
ENDBRANCH   1  23
TORSDOF 6
ENDMDL
MODEL 9
REMARK VINA RESULT:    -7.630      6.879     12.512
REMARK INTER + INTRA:         -11.284
REMARK INTER:                 -10.274
REMARK INTRA:                  -1.010
REMARK UNBOUND:                -0.978
REMARK  Name = /home/qwerty/github/datacon2025hack/step_04_hit_selection/docking/ligands/lig_491.pdb
REMARK  7 active torsions:
REMARK  status: ('A' for Active; 'I' for Inactive)
REMARK    1  A    between atoms: C1_1  and  C2_2
REMARK    2  A    between atoms: C2_2  and  N1_3
REMARK    3  A    between atoms: C2_2  and  C15_17
REMARK    4  A    between atoms: C3_4  and  C4_6
REMARK    5  A    between atoms: C7_9  and  C8_10
REMARK    6  A    between atoms: C18_20  and  N2_21
REMARK    7  A    between atoms: N3_24  and  C20_25
REMARK                            x       y       z     vdW  Elec       q    Type
REMARK                         _______ _______ _______ _____ _____    ______ ____
ROOT
ATOM      1  C15 UNL     1      21.726   1.038  30.165  0.00  0.00    -0.027 A 
ATOM      2  C16 UNL     1      20.620   0.278  30.581  0.00  0.00    +0.007 A 
ATOM      3  C17 UNL     1      19.930   0.614  31.749  0.00  0.00    +0.023 A 
ATOM      4  C18 UNL     1      20.333   1.711  32.523  0.00  0.00    +0.035 A 
ATOM      5  C28 UNL     1      21.463   2.448  32.128  0.00  0.00    +0.023 A 
ATOM      6  C29 UNL     1      22.150   2.117  30.957  0.00  0.00    +0.007 A 
ENDROOT
BRANCH   4   7
ATOM      7  N2  UNL     1      19.626   2.008  33.740  0.00  0.00    -0.269 N 
ATOM      8  C19 UNL     1      19.088   3.299  34.072  0.00  0.00    +0.308 C 
ATOM      9  O2  UNL     1      18.950   4.178  33.178  0.00  0.00    -0.252 OA
ATOM     10  N3  UNL     1      18.633   3.550  35.410  0.00  0.00    -0.263 N 
ATOM     11  H19 UNL     1      19.441   1.223  34.405  0.00  0.00    +0.156 HD
ATOM     12  H20 UNL     1      18.507   2.732  36.047  0.00  0.00    +0.157 HD
BRANCH  10  13
ATOM     13  C20 UNL     1      18.300   4.847  35.926  0.00  0.00    +0.074 A 
ATOM     14  C21 UNL     1      19.180   5.753  36.524  0.00  0.00    +0.039 A 
ATOM     15  C22 UNL     1      18.520   6.898  36.986  0.00  0.00    -0.009 A 
ATOM     16  C23 UNL     1      19.111   7.987  37.633  0.00  0.00    +0.009 A 
ATOM     17  C24 UNL     1      18.295   9.055  38.044  0.00  0.00    +0.001 A 
ATOM     18  C25 UNL     1      16.906   9.024  37.810  0.00  0.00    +0.001 A 
ATOM     19  C26 UNL     1      16.321   7.924  37.163  0.00  0.00    +0.016 A 
ATOM     20  C27 UNL     1      17.150   6.878  36.763  0.00  0.00    +0.021 A 
ATOM     21  S1  UNL     1      16.721   5.447  35.996  0.00  0.00    -0.073 S 
ENDBRANCH  10  13
ENDBRANCH   4   7
BRANCH   1  23
ATOM     22  C1  UNL     1      22.963  -0.796  29.009  0.00  0.00    +0.033 C 
ATOM     23  C2  UNL     1      22.502   0.662  28.919  0.00  0.00    +0.100 C 
BRANCH  23  24
ATOM     24  N1  UNL     1      21.685   0.874  27.717  0.00  0.00    -0.305 N 
ATOM     25  C3  UNL     1      21.869   2.016  26.865  0.00  0.00    +0.245 C 
ATOM     26  O1  UNL     1      22.872   2.765  27.034  0.00  0.00    -0.270 OA
ATOM     27  H5  UNL     1      20.988   0.147  27.444  0.00  0.00    +0.150 HD
BRANCH  25  28
ATOM     28  C4  UNL     1      20.910   2.323  25.779  0.00  0.00    +0.037 A 
ATOM     29  C5  UNL     1      21.074   3.455  24.964  0.00  0.00    +0.013 A 
ATOM     30  C6  UNL     1      20.161   3.737  23.943  0.00  0.00    +0.009 A 
ATOM     31  C7  UNL     1      19.065   2.884  23.702  0.00  0.00    -0.022 A 
ATOM     32  C13 UNL     1      18.908   1.748  24.519  0.00  0.00    +0.009 A 
ATOM     33  C14 UNL     1      19.823   1.468  25.538  0.00  0.00    +0.013 A 
BRANCH  31  34
ATOM     34  C8  UNL     1      18.076   3.173  22.626  0.00  0.00    -0.044 C 
ATOM     35  C9  UNL     1      17.009   2.435  22.357  0.00  0.00    -0.023 C 
ATOM     36  C10 UNL     1      16.203   2.978  21.238  0.00  0.00    +0.028 C 
ATOM     37  C11 UNL     1      17.025   4.156  20.715  0.00  0.00    +0.009 C 
ATOM     38  C12 UNL     1      18.150   4.363  21.731  0.00  0.00    +0.036 C 
ENDBRANCH  31  34
ENDBRANCH  25  28
ENDBRANCH  23  24
ENDBRANCH   1  23
TORSDOF 6
ENDMDL
