REMARK  Name = /home/qwerty/github/datacon2025hack/step_04_hit_selection/docking/ligands/lig_616.pdb
REMARK  8 active torsions:
REMARK  status: ('A' for Active; 'I' for Inactive)
REMARK    1  A    between atoms: C1_1  and  C2_2
REMARK    2  A    between atoms: C2_2  and  C3_3
REMARK    3  A    between atoms: C3_3  and  C4_4
REMARK    4  A    between atoms: C3_3  and  C5_5
REMARK    5  A    between atoms: C5_5  and  C6_6
REMARK    6  A    between atoms: C9_11  and  N2_12
REMARK    7  A    between atoms: C10_13  and  C11_15
REMARK    8  A    between atoms: C14_21  and  C15_22
REMARK                            x       y       z     vdW  Elec       q    Type
REMARK                         _______ _______ _______ _____ _____    ______ ____
ROOT
ATOM      1  N2  UNL     1       1.396   0.029  -1.416  0.00  0.00    -0.307 N 
ATOM      2  C10 UNL     1       2.558   0.727  -0.939  0.00  0.00    +0.246 C 
ATOM      3  O2  UNL     1       2.613   1.984  -1.037  0.00  0.00    -0.270 OA
ATOM      4  H17 UNL     1       1.441  -1.009  -1.524  0.00  0.00    +0.149 HD
ENDROOT
BRANCH   2   5
ATOM      5  C11 UNL     1       3.704  -0.004  -0.348  0.00  0.00    +0.056 A 
ATOM      6  C12 UNL     1       3.533  -1.289   0.247  0.00  0.00    +0.127 A 
ATOM      7  N3  UNL     1       4.596  -1.955   0.793  0.00  0.00    -0.218 NA
ATOM      8  C13 UNL     1       5.816  -1.371   0.767  0.00  0.00    +0.259 A 
ATOM      9  O3  UNL     1       6.941  -1.857   1.226  0.00  0.00    -0.334 OA
ATOM     10  N4  UNL     1       7.911  -1.003   1.016  0.00  0.00    -0.080 NA
ATOM     11  C14 UNL     1       7.373   0.080   0.402  0.00  0.00    +0.090 A 
ATOM     12  C15 UNL     1       8.153   1.267  -0.058  0.00  0.00    +0.070 C 
ATOM     13  C16 UNL     1       6.026  -0.144   0.226  0.00  0.00    +0.064 A 
ATOM     14  C17 UNL     1       4.991   0.584  -0.346  0.00  0.00    +0.029 A 
ENDBRANCH   2   5
BRANCH   1  20
ATOM     15  C6  UNL     1      -2.448   0.230   0.813  0.00  0.00    +0.216 C 
ATOM     16  O1  UNL     1      -2.218   1.068   1.727  0.00  0.00    -0.276 OA
ATOM     17  N1  UNL     1      -1.656   0.264  -0.390  0.00  0.00    -0.300 N 
ATOM     18  C7  UNL     1      -1.764  -0.686  -1.485  0.00  0.00    +0.109 C 
ATOM     19  C8  UNL     1      -0.793  -0.195  -2.550  0.00  0.00    +0.043 C 
ATOM     20  C9  UNL     1       0.180   0.743  -1.825  0.00  0.00    +0.092 C 
ATOM     21  C18 UNL     1      -0.589   1.230  -0.595  0.00  0.00    +0.130 C 
BRANCH  15  22
ATOM     22  C5  UNL     1      -3.503  -0.826   1.044  0.00  0.00    +0.099 C 
BRANCH  22  23
ATOM     23  C3  UNL     1      -4.810  -0.247   1.635  0.00  0.00    -0.006 C 
ATOM     24  C4  UNL     1      -5.793  -1.378   1.971  0.00  0.00    +0.008 C 
BRANCH  23  26
ATOM     25  C1  UNL     1      -5.900   0.360  -0.641  0.00  0.00    +0.004 C 
ATOM     26  C2  UNL     1      -5.466   0.841   0.746  0.00  0.00    +0.000 C 
ENDBRANCH  23  26
ENDBRANCH  22  23
ENDBRANCH  15  22
ENDBRANCH   1  20
TORSDOF 5
