REMARK  Name = /home/qwerty/github/datacon2025hack/step_04_hit_selection/docking/ligands/lig_92.pdb
REMARK  10 active torsions:
REMARK  status: ('A' for Active; 'I' for Inactive)
REMARK    1  A    between atoms: C1_1  and  C2_2
REMARK    2  A    between atoms: C2_2  and  C3_3
REMARK    3  A    between atoms: C2_2  and  C4_4
REMARK    4  A    between atoms: C6_8  and  C7_9
REMARK    5  A    between atoms: N2_11  and  C8_12
REMARK    6  A    between atoms: C8_12  and  C9_13
REMARK    7  A    between atoms: C9_13  and  C10_14
REMARK    8  A    between atoms: C9_13  and  N3_15
REMARK    9  A    between atoms: C11_16  and  C12_18
REMARK   10  A    between atoms: C15_21  and  C16_22
REMARK                            x       y       z     vdW  Elec       q    Type
REMARK                         _______ _______ _______ _____ _____    ______ ____
ROOT
ATOM      1  C9  UNL     1       0.520  -1.715  -0.276  0.00  0.00    +0.087 C 
ATOM      2  C10 UNL     1       0.060  -3.072  -0.824  0.00  0.00    +0.029 C 
ENDROOT
BRANCH   1   3
ATOM      3  N3  UNL     1       1.980  -1.603  -0.368  0.00  0.00    -0.305 N 
ATOM      4  C11 UNL     1       2.652  -0.334  -0.314  0.00  0.00    +0.280 C 
ATOM      5  O3  UNL     1       1.981   0.732  -0.249  0.00  0.00    -0.267 OA
ATOM      6  H16 UNL     1       2.543  -2.472  -0.505  0.00  0.00    +0.149 HD
BRANCH   4   7
ATOM      7  C12 UNL     1       4.122  -0.242  -0.338  0.00  0.00    +0.190 A 
ATOM      8  C13 UNL     1       5.024  -1.293  -0.366  0.00  0.00    +0.055 A 
ATOM      9  C14 UNL     1       6.276  -0.715  -0.377  0.00  0.00    +0.055 A 
ATOM     10  C15 UNL     1       6.060   0.650  -0.355  0.00  0.00    +0.190 A 
ATOM     11  O5  UNL     1       4.771   0.900  -0.332  0.00  0.00    -0.446 OA
BRANCH  10  12
ATOM     12  C16 UNL     1       7.101   1.688  -0.357  0.00  0.00    +0.277 C 
ATOM     13  N4  UNL     1       6.744   3.070  -0.332  0.00  0.00    -0.323 N 
ATOM     14  O4  UNL     1       8.317   1.360  -0.379  0.00  0.00    -0.267 OA
ATOM     15  H19 UNL     1       7.486   3.805  -0.334  0.00  0.00    +0.145 HD
ATOM     16  H20 UNL     1       5.743   3.366  -0.313  0.00  0.00    +0.145 HD
ENDBRANCH  10  12
ENDBRANCH   4   7
ENDBRANCH   1   3
BRANCH   1  17
ATOM     17  C8  UNL     1       0.076  -1.531   1.188  0.00  0.00    +0.126 C 
BRANCH  17  20
ATOM     18  C7  UNL     1      -2.180  -0.405   0.878  0.00  0.00    +0.266 C 
ATOM     19  O2  UNL     1      -1.618   0.641   0.457  0.00  0.00    -0.268 OA
ATOM     20  N2  UNL     1      -1.382  -1.521   1.301  0.00  0.00    -0.308 N 
ATOM     21  H9  UNL     1      -1.845  -2.345   1.746  0.00  0.00    +0.149 HD
BRANCH  18  26
ATOM     22  C4  UNL     1      -4.585   0.487   0.597  0.00  0.00    +0.140 A 
ATOM     23  O1  UNL     1      -5.777  -0.033   0.761  0.00  0.00    -0.446 OA
ATOM     24  C5  UNL     1      -5.614  -1.264   1.188  0.00  0.00    +0.308 A 
ATOM     25  N1  UNL     1      -4.314  -1.600   1.311  0.00  0.00    -0.211 NA
ATOM     26  C6  UNL     1      -3.655  -0.488   0.932  0.00  0.00    +0.167 A 
BRANCH  22  28
ATOM     27  C1  UNL     1      -4.114   1.858  -1.429  0.00  0.00    +0.015 C 
ATOM     28  C2  UNL     1      -4.338   1.885   0.085  0.00  0.00    +0.051 C 
ATOM     29  C3  UNL     1      -5.508   2.810   0.439  0.00  0.00    +0.015 C 
ENDBRANCH  22  28
ENDBRANCH  18  26
ENDBRANCH  17  20
ENDBRANCH   1  17
TORSDOF 7
