REMARK  Name = /home/qwerty/github/datacon2025hack/step_04_hit_selection/docking/ligands/lig_360.pdb
REMARK  6 active torsions:
REMARK  status: ('A' for Active; 'I' for Inactive)
REMARK    1  A    between atoms: C1_1  and  N1_2
REMARK    2  A    between atoms: N1_2  and  C2_3
REMARK    3  A    between atoms: N1_2  and  C3_4
REMARK    4  A    between atoms: C6_7  and  N2_8
REMARK    5  A    between atoms: C10_14  and  N4_15
REMARK    6  A    between atoms: N4_15  and  C11_16
REMARK                            x       y       z     vdW  Elec       q    Type
REMARK                         _______ _______ _______ _____ _____    ______ ____
ROOT
ATOM      1  N2  UNL     1      -2.094   0.477   0.312  0.00  0.00    -0.269 N 
ATOM      2  C7  UNL     1      -1.137  -0.150  -0.564  0.00  0.00    +0.306 C 
ATOM      3  O1  UNL     1      -1.533  -0.784  -1.579  0.00  0.00    -0.252 OA
ATOM      4  N3  UNL     1       0.276  -0.048  -0.307  0.00  0.00    -0.285 N 
ATOM      5  C8  UNL     1       0.836   1.127   0.372  0.00  0.00    +0.111 C 
ATOM      6  C9  UNL     1       2.223   1.462  -0.186  0.00  0.00    +0.038 C 
ATOM      7  C10 UNL     1       3.149   0.228  -0.182  0.00  0.00    +0.057 C 
ATOM      8  C16 UNL     1       2.485  -0.904  -0.988  0.00  0.00    +0.038 C 
ATOM      9  C17 UNL     1       1.109  -1.252  -0.416  0.00  0.00    +0.111 C 
ATOM     10  H9  UNL     1      -1.753   1.139   1.043  0.00  0.00    +0.156 HD
ENDROOT
BRANCH   1  14
ATOM     11  C3  UNL     1      -6.328  -0.016   0.062  0.00  0.00    +0.029 A 
ATOM     12  C4  UNL     1      -5.463  -1.098  -0.207  0.00  0.00    +0.025 A 
ATOM     13  C5  UNL     1      -4.076  -0.943  -0.131  0.00  0.00    +0.025 A 
ATOM     14  C6  UNL     1      -3.516   0.300   0.201  0.00  0.00    +0.035 A 
ATOM     15  C18 UNL     1      -4.367   1.372   0.495  0.00  0.00    +0.025 A 
ATOM     16  C19 UNL     1      -5.754   1.222   0.419  0.00  0.00    +0.025 A 
BRANCH  11  18
ATOM     17  C1  UNL     1      -8.665   0.776   0.651  0.00  0.00    +0.129 C 
ATOM     18  N1  UNL     1      -7.769  -0.177  -0.017  0.00  0.00    -0.336 N 
ATOM     19  C2  UNL     1      -8.357  -1.295  -0.766  0.00  0.00    +0.129 C 
ENDBRANCH  11  18
ENDBRANCH   1  14
BRANCH   7  20
ATOM     20  N4  UNL     1       4.456   0.565  -0.784  0.00  0.00    -0.310 NA
ATOM     21  H15 UNL     1       4.695   1.570  -0.613  0.00  0.00    +0.122 HD
BRANCH  20  22
ATOM     22  C11 UNL     1       5.552  -0.282  -0.272  0.00  0.00    +0.054 C 
ATOM     23  C12 UNL     1       6.785  -0.166  -1.164  0.00  0.00    +0.019 C 
ATOM     24  C13 UNL     1       7.999  -0.307  -0.246  0.00  0.00    +0.002 C 
ATOM     25  C14 UNL     1       7.477  -0.324   1.188  0.00  0.00    +0.002 C 
ATOM     26  C15 UNL     1       6.030   0.133   1.119  0.00  0.00    +0.019 C 
ENDBRANCH  20  22
ENDBRANCH   7  20
TORSDOF 4
