REMARK  Name = /home/qwerty/github/datacon2025hack/step_04_hit_selection/docking/ligands/lig_487.pdb
REMARK  6 active torsions:
REMARK  status: ('A' for Active; 'I' for Inactive)
REMARK    1  A    between atoms: C1_1  and  C2_2
REMARK    2  A    between atoms: C4_4  and  C5_5
REMARK    3  A    between atoms: C8_10  and  N2_11
REMARK    4  A    between atoms: C9_12  and  C10_14
REMARK    5  A    between atoms: N3_17  and  C13_18
REMARK    6  A    between atoms: C15_20  and  C16_21
REMARK                            x       y       z     vdW  Elec       q    Type
REMARK                         _______ _______ _______ _____ _____    ______ ____
ROOT
ATOM      1  C5  UNL     1       2.719  -0.847  -1.720  0.00  0.00    +0.267 C 
ATOM      2  O1  UNL     1       2.484  -0.889  -2.957  0.00  0.00    -0.268 OA
ATOM      3  N1  UNL     1       1.650  -1.071  -0.790  0.00  0.00    -0.296 N 
ATOM      4  C6  UNL     1       0.939  -2.354  -0.801  0.00  0.00    +0.110 C 
ATOM      5  C7  UNL     1      -0.565  -2.115  -0.647  0.00  0.00    +0.041 C 
ATOM      6  C8  UNL     1      -0.926  -1.255   0.594  0.00  0.00    +0.079 C 
ATOM      7  C15 UNL     1       0.309  -0.548   1.227  0.00  0.00    +0.024 C 
ATOM      8  C16 UNL     1      -0.083   0.551   2.226  0.00  0.00    +0.011 C 
ATOM      9  C17 UNL     1       1.265  -0.008   0.149  0.00  0.00    +0.113 C 
ENDROOT
BRANCH   1  13
ATOM     10  C1  UNL     1       6.910  -0.595   1.046  0.00  0.00    +0.065 C 
ATOM     11  C2  UNL     1       5.907  -0.481  -0.054  0.00  0.00    +0.034 A 
ATOM     12  C3  UNL     1       4.569  -0.808   0.031  0.00  0.00    +0.057 A 
ATOM     13  C4  UNL     1       4.093  -0.605  -1.253  0.00  0.00    +0.147 A 
ATOM     14  N4  UNL     1       5.100  -0.205  -2.059  0.00  0.00    -0.169 NA
ATOM     15  N5  UNL     1       6.197  -0.132  -1.322  0.00  0.00    -0.281 N 
ATOM     16  H23 UNL     1       7.136   0.141  -1.691  0.00  0.00    +0.189 HD
ENDBRANCH   1  13
BRANCH   6  17
ATOM     17  N2  UNL     1      -1.961  -0.283   0.222  0.00  0.00    -0.308 N 
ATOM     18  C9  UNL     1      -3.363  -0.560   0.361  0.00  0.00    +0.246 C 
ATOM     19  O2  UNL     1      -3.747  -1.697   0.749  0.00  0.00    -0.270 OA
ATOM     20  H10 UNL     1      -1.669   0.566  -0.310  0.00  0.00    +0.149 HD
BRANCH  18  21
ATOM     21  C10 UNL     1      -4.371   0.471   0.050  0.00  0.00    +0.054 A 
ATOM     22  C11 UNL     1      -5.743   0.288   0.042  0.00  0.00    +0.032 A 
ATOM     23  C12 UNL     1      -6.297   1.515  -0.265  0.00  0.00    +0.086 A 
ATOM     24  N3  UNL     1      -5.320   2.422  -0.451  0.00  0.00    -0.356 N 
ATOM     25  C13 UNL     1      -5.508   3.845  -0.705  0.00  0.00    +0.148 C 
ATOM     26  C14 UNL     1      -4.143   1.803  -0.248  0.00  0.00    +0.098 A 
ENDBRANCH  18  21
ENDBRANCH   6  17
TORSDOF 3
