MODEL 1
REMARK VINA RESULT:    -6.538      0.000      0.000
REMARK INTER + INTRA:          -9.065
REMARK INTER:                  -8.067
REMARK INTRA:                  -0.999
REMARK UNBOUND:                -0.999
REMARK  Name = /home/qwerty/github/datacon2025hack/step_04_hit_selection/docking/ligands/lig_347.pdb
REMARK  8 active torsions:
REMARK  status: ('A' for Active; 'I' for Inactive)
REMARK    1  A    between atoms: C1_1  and  C2_2
REMARK    2  A    between atoms: C4_4  and  C5_5
REMARK    3  A    between atoms: C6_6  and  C7_7
REMARK    4  A    between atoms: C9_11  and  C10_12
REMARK    5  A    between atoms: C10_12  and  N2_13
REMARK    6  A    between atoms: C11_14  and  C12_16
REMARK    7  A    between atoms: C14_20  and  C15_21
REMARK    8  A    between atoms: C17_23  and  C18_24
REMARK                            x       y       z     vdW  Elec       q    Type
REMARK                         _______ _______ _______ _____ _____    ______ ____
ROOT
ATOM      1  C7  UNL     1       8.329   6.551  21.365  0.00  0.00    +0.263 C 
ATOM      2  O1  UNL     1       7.118   6.383  21.063  0.00  0.00    -0.268 OA
ATOM      3  N1  UNL     1       9.071   5.473  21.961  0.00  0.00    -0.293 N 
ATOM      4  C8  UNL     1       8.758   4.077  21.711  0.00  0.00    +0.113 C 
ATOM      5  C9  UNL     1       9.633   3.282  22.685  0.00  0.00    +0.025 C 
ATOM      6  C16 UNL     1      10.739   4.252  23.118  0.00  0.00    +0.028 C 
ATOM      7  C17 UNL     1      10.147   5.651  22.930  0.00  0.00    +0.074 C 
ATOM      8  C18 UNL     1       9.593   6.213  24.242  0.00  0.00    +0.028 C 
ENDROOT
BRANCH   1  14
ATOM      9  C1  UNL     1      11.151  10.045  19.283  0.00  0.00    +0.063 C 
ATOM     10  C2  UNL     1      10.212   9.376  20.233  0.00  0.00    +0.014 A 
ATOM     11  C3  UNL     1       9.538  10.002  21.264  0.00  0.00    +0.026 A 
ATOM     12  C4  UNL     1       8.743   9.031  21.843  0.00  0.00    -0.020 A 
ATOM     13  C5  UNL     1       7.888   9.228  23.057  0.00  0.00    +0.046 C 
ATOM     14  C6  UNL     1       8.947   7.865  21.119  0.00  0.00    +0.105 A 
ATOM     15  N5  UNL     1       9.853   8.081  20.147  0.00  0.00    -0.354 N 
ATOM     16  H25 UNL     1      10.195   7.385  19.447  0.00  0.00    +0.166 HD
ENDBRANCH   1  14
BRANCH   5  17
ATOM     17  C10 UNL     1      10.182   1.988  22.059  0.00  0.00    +0.109 C 
BRANCH  17  18
ATOM     18  N2  UNL     1      11.375   2.262  21.259  0.00  0.00    -0.310 N 
ATOM     19  C11 UNL     1      12.642   1.639  21.525  0.00  0.00    +0.264 C 
ATOM     20  O2  UNL     1      12.738   0.772  22.434  0.00  0.00    -0.268 OA
ATOM     21  H13 UNL     1      11.282   2.908  20.444  0.00  0.00    +0.149 HD
BRANCH  19  22
ATOM     22  C12 UNL     1      13.830   2.010  20.734  0.00  0.00    +0.150 A 
ATOM     23  N3  UNL     1      14.501   1.145  19.946  0.00  0.00    -0.169 NA
ATOM     24  N4  UNL     1      15.504   1.800  19.383  0.00  0.00    -0.284 N 
ATOM     25  C13 UNL     1      15.497   3.082  19.791  0.00  0.00    +0.109 A 
ATOM     26  C14 UNL     1      14.439   3.256  20.659  0.00  0.00    -0.001 A 
ATOM     27  C15 UNL     1      14.053   4.524  21.349  0.00  0.00    +0.048 C 
ATOM     28  H14 UNL     1      16.187   1.371  18.721  0.00  0.00    +0.188 HD
ENDBRANCH  19  22
ENDBRANCH  17  18
ENDBRANCH   5  17
TORSDOF 4
ENDMDL
MODEL 2
REMARK VINA RESULT:    -6.433      5.542      8.538
REMARK INTER + INTRA:          -8.936
REMARK INTER:                  -8.041
REMARK INTRA:                  -0.895
REMARK UNBOUND:                -0.999
REMARK  Name = /home/qwerty/github/datacon2025hack/step_04_hit_selection/docking/ligands/lig_347.pdb
REMARK  8 active torsions:
REMARK  status: ('A' for Active; 'I' for Inactive)
REMARK    1  A    between atoms: C1_1  and  C2_2
REMARK    2  A    between atoms: C4_4  and  C5_5
REMARK    3  A    between atoms: C6_6  and  C7_7
REMARK    4  A    between atoms: C9_11  and  C10_12
REMARK    5  A    between atoms: C10_12  and  N2_13
REMARK    6  A    between atoms: C11_14  and  C12_16
REMARK    7  A    between atoms: C14_20  and  C15_21
REMARK    8  A    between atoms: C17_23  and  C18_24
REMARK                            x       y       z     vdW  Elec       q    Type
REMARK                         _______ _______ _______ _____ _____    ______ ____
ROOT
ATOM      1  C7  UNL     1      16.171   0.688  20.806  0.00  0.00    +0.263 C 
ATOM      2  O1  UNL     1      16.554  -0.013  19.832  0.00  0.00    -0.268 OA
ATOM      3  N1  UNL     1      16.132   0.114  22.124  0.00  0.00    -0.293 N 
ATOM      4  C8  UNL     1      17.022  -0.958  22.537  0.00  0.00    +0.113 C 
ATOM      5  C9  UNL     1      16.513  -1.405  23.910  0.00  0.00    +0.025 C 
ATOM      6  C16 UNL     1      15.637  -0.250  24.412  0.00  0.00    +0.028 C 
ATOM      7  C17 UNL     1      15.161   0.475  23.151  0.00  0.00    +0.074 C 
ATOM      8  C18 UNL     1      13.757   0.025  22.736  0.00  0.00    +0.028 C 
ENDROOT
BRANCH   1  14
ATOM      9  C1  UNL     1      13.505   4.508  19.132  0.00  0.00    +0.063 C 
ATOM     10  C2  UNL     1      14.604   3.741  19.792  0.00  0.00    +0.014 A 
ATOM     11  C3  UNL     1      15.642   4.296  20.517  0.00  0.00    +0.026 A 
ATOM     12  C4  UNL     1      16.385   3.231  20.992  0.00  0.00    -0.020 A 
ATOM     13  C5  UNL     1      17.660   3.349  21.768  0.00  0.00    +0.046 C 
ATOM     14  C6  UNL     1      15.747   2.076  20.560  0.00  0.00    +0.105 A 
ATOM     15  N5  UNL     1      14.669   2.396  19.820  0.00  0.00    -0.354 N 
ATOM     16  H25 UNL     1      14.001   1.731  19.371  0.00  0.00    +0.166 HD
ENDBRANCH   1  14
BRANCH   5  17
ATOM     17  C10 UNL     1      17.659  -1.753  24.877  0.00  0.00    +0.109 C 
BRANCH  17  18
ATOM     18  N2  UNL     1      18.776  -0.824  24.717  0.00  0.00    -0.310 N 
ATOM     19  C11 UNL     1      18.955   0.320  25.565  0.00  0.00    +0.264 C 
ATOM     20  O2  UNL     1      18.171   0.516  26.533  0.00  0.00    -0.268 OA
ATOM     21  H13 UNL     1      19.483  -1.030  23.977  0.00  0.00    +0.149 HD
BRANCH  19  22
ATOM     22  C12 UNL     1      20.058   1.267  25.310  0.00  0.00    +0.150 A 
ATOM     23  N3  UNL     1      20.290   1.836  24.110  0.00  0.00    -0.169 NA
ATOM     24  N4  UNL     1      21.343   2.628  24.231  0.00  0.00    -0.284 N 
ATOM     25  C13 UNL     1      21.803   2.585  25.494  0.00  0.00    +0.109 A 
ATOM     26  C14 UNL     1      21.005   1.723  26.217  0.00  0.00    -0.001 A 
ATOM     27  C15 UNL     1      21.151   1.378  27.665  0.00  0.00    +0.048 C 
ATOM     28  H14 UNL     1      21.743   3.195  23.452  0.00  0.00    +0.188 HD
ENDBRANCH  19  22
ENDBRANCH  17  18
ENDBRANCH   5  17
TORSDOF 4
ENDMDL
MODEL 3
REMARK VINA RESULT:    -6.413     12.797     15.396
REMARK INTER + INTRA:          -8.911
REMARK INTER:                  -7.886
REMARK INTRA:                  -1.026
REMARK UNBOUND:                -0.999
REMARK  Name = /home/qwerty/github/datacon2025hack/step_04_hit_selection/docking/ligands/lig_347.pdb
REMARK  8 active torsions:
REMARK  status: ('A' for Active; 'I' for Inactive)
REMARK    1  A    between atoms: C1_1  and  C2_2
REMARK    2  A    between atoms: C4_4  and  C5_5
REMARK    3  A    between atoms: C6_6  and  C7_7
REMARK    4  A    between atoms: C9_11  and  C10_12
REMARK    5  A    between atoms: C10_12  and  N2_13
REMARK    6  A    between atoms: C11_14  and  C12_16
REMARK    7  A    between atoms: C14_20  and  C15_21
REMARK    8  A    between atoms: C17_23  and  C18_24
REMARK                            x       y       z     vdW  Elec       q    Type
REMARK                         _______ _______ _______ _____ _____    ______ ____
ROOT
ATOM      1  C7  UNL     1      21.928   1.543  28.535  0.00  0.00    +0.263 C 
ATOM      2  O1  UNL     1      22.293   0.338  28.548  0.00  0.00    -0.268 OA
ATOM      3  N1  UNL     1      21.439   2.152  29.743  0.00  0.00    -0.293 N 
ATOM      4  C8  UNL     1      21.868   1.724  31.064  0.00  0.00    +0.113 C 
ATOM      5  C9  UNL     1      20.965   2.473  32.048  0.00  0.00    +0.025 C 
ATOM      6  C16 UNL     1      20.375   3.640  31.248  0.00  0.00    +0.028 C 
ATOM      7  C17 UNL     1      20.415   3.190  29.786  0.00  0.00    +0.074 C 
ATOM      8  C18 UNL     1      19.066   2.626  29.330  0.00  0.00    +0.028 C 
ENDROOT
BRANCH   1  14
ATOM      9  C1  UNL     1      23.296   4.936  25.200  0.00  0.00    +0.063 C 
ATOM     10  C2  UNL     1      22.558   3.800  25.830  0.00  0.00    +0.014 A 
ATOM     11  C3  UNL     1      21.620   3.007  25.197  0.00  0.00    +0.026 A 
ATOM     12  C4  UNL     1      21.241   2.053  26.123  0.00  0.00    -0.020 A 
ATOM     13  C5  UNL     1      20.179   1.019  25.910  0.00  0.00    +0.046 C 
ATOM     14  C6  UNL     1      21.989   2.291  27.269  0.00  0.00    +0.105 A 
ATOM     15  N5  UNL     1      22.780   3.364  27.086  0.00  0.00    -0.354 N 
ATOM     16  H25 UNL     1      23.452   3.769  27.775  0.00  0.00    +0.166 HD
ENDBRANCH   1  14
BRANCH   5  17
ATOM     17  C10 UNL     1      21.722   2.931  33.308  0.00  0.00    +0.109 C 
BRANCH  17  18
ATOM     18  N2  UNL     1      22.624   4.039  32.999  0.00  0.00    -0.310 N 
ATOM     19  C11 UNL     1      22.597   5.280  33.721  0.00  0.00    +0.264 C 
ATOM     20  O2  UNL     1      21.821   5.419  34.705  0.00  0.00    -0.268 OA
ATOM     21  H13 UNL     1      23.335   3.898  32.247  0.00  0.00    +0.149 HD
BRANCH  19  22
ATOM     22  C12 UNL     1      23.478   6.392  33.317  0.00  0.00    +0.150 A 
ATOM     23  N3  UNL     1      24.508   6.837  34.065  0.00  0.00    -0.169 NA
ATOM     24  N4  UNL     1      25.085   7.833  33.412  0.00  0.00    -0.284 N 
ATOM     25  C13 UNL     1      24.448   8.045  32.247  0.00  0.00    +0.109 A 
ATOM     26  C14 UNL     1      23.411   7.141  32.150  0.00  0.00    -0.001 A 
ATOM     27  C15 UNL     1      22.443   7.015  31.017  0.00  0.00    +0.048 C 
ATOM     28  H14 UNL     1      25.913   8.363  33.763  0.00  0.00    +0.188 HD
ENDBRANCH  19  22
ENDBRANCH  17  18
ENDBRANCH   5  17
TORSDOF 4
ENDMDL
MODEL 4
REMARK VINA RESULT:    -6.300      7.064      9.774
REMARK INTER + INTRA:          -8.772
REMARK INTER:                  -7.814
REMARK INTRA:                  -0.958
REMARK UNBOUND:                -0.999
REMARK  Name = /home/qwerty/github/datacon2025hack/step_04_hit_selection/docking/ligands/lig_347.pdb
REMARK  8 active torsions:
REMARK  status: ('A' for Active; 'I' for Inactive)
REMARK    1  A    between atoms: C1_1  and  C2_2
REMARK    2  A    between atoms: C4_4  and  C5_5
REMARK    3  A    between atoms: C6_6  and  C7_7
REMARK    4  A    between atoms: C9_11  and  C10_12
REMARK    5  A    between atoms: C10_12  and  N2_13
REMARK    6  A    between atoms: C11_14  and  C12_16
REMARK    7  A    between atoms: C14_20  and  C15_21
REMARK    8  A    between atoms: C17_23  and  C18_24
REMARK                            x       y       z     vdW  Elec       q    Type
REMARK                         _______ _______ _______ _____ _____    ______ ____
ROOT
ATOM      1  C7  UNL     1       9.227  13.062  29.432  0.00  0.00    +0.263 C 
ATOM      2  O1  UNL     1       8.274  13.766  29.862  0.00  0.00    -0.268 OA
ATOM      3  N1  UNL     1       9.071  11.636  29.335  0.00  0.00    -0.293 N 
ATOM      4  C8  UNL     1       7.782  11.003  29.117  0.00  0.00    +0.113 C 
ATOM      5  C9  UNL     1       8.030   9.502  29.288  0.00  0.00    +0.025 C 
ATOM      6  C16 UNL     1       9.546   9.324  29.139  0.00  0.00    +0.028 C 
ATOM      7  C17 UNL     1      10.152  10.675  29.524  0.00  0.00    +0.074 C 
ATOM      8  C18 UNL     1      10.628  10.689  30.980  0.00  0.00    +0.028 C 
ENDROOT
BRANCH   1  14
ATOM      9  C1  UNL     1      12.831  14.968  26.624  0.00  0.00    +0.063 C 
ATOM     10  C2  UNL     1      12.080  14.516  27.834  0.00  0.00    +0.014 A 
ATOM     11  C3  UNL     1      12.472  14.725  29.143  0.00  0.00    +0.026 A 
ATOM     12  C4  UNL     1      11.464  14.201  29.930  0.00  0.00    -0.020 A 
ATOM     13  C5  UNL     1      11.489  14.128  31.426  0.00  0.00    +0.046 C 
ATOM     14  C6  UNL     1      10.490  13.724  29.064  0.00  0.00    +0.105 A 
ATOM     15  N5  UNL     1      10.878  13.909  27.789  0.00  0.00    -0.354 N 
ATOM     16  H25 UNL     1      10.343  13.652  26.930  0.00  0.00    +0.166 HD
ENDBRANCH   1  14
BRANCH   5  17
ATOM     17  C10 UNL     1       7.225   8.656  28.285  0.00  0.00    +0.109 C 
BRANCH  17  18
ATOM     18  N2  UNL     1       7.220   9.280  26.963  0.00  0.00    -0.310 N 
ATOM     19  C11 UNL     1       7.965   8.750  25.857  0.00  0.00    +0.264 C 
ATOM     20  O2  UNL     1       8.603   7.670  25.986  0.00  0.00    -0.268 OA
ATOM     21  H13 UNL     1       6.619  10.122  26.821  0.00  0.00    +0.149 HD
BRANCH  19  22
ATOM     22  C12 UNL     1       7.984   9.463  24.565  0.00  0.00    +0.150 A 
ATOM     23  N3  UNL     1       6.885   9.989  23.987  0.00  0.00    -0.169 NA
ATOM     24  N4  UNL     1       7.254  10.556  22.850  0.00  0.00    -0.284 N 
ATOM     25  C13 UNL     1       8.579  10.409  22.676  0.00  0.00    +0.109 A 
ATOM     26  C14 UNL     1       9.084   9.713  23.756  0.00  0.00    -0.001 A 
ATOM     27  C15 UNL     1      10.512   9.330  23.979  0.00  0.00    +0.048 C 
ATOM     28  H14 UNL     1       6.600  11.042  22.198  0.00  0.00    +0.188 HD
ENDBRANCH  19  22
ENDBRANCH  17  18
ENDBRANCH   5  17
TORSDOF 4
ENDMDL
MODEL 5
REMARK VINA RESULT:    -6.174      9.489     12.639
REMARK INTER + INTRA:          -8.616
REMARK INTER:                  -7.580
REMARK INTRA:                  -1.036
REMARK UNBOUND:                -0.999
REMARK  Name = /home/qwerty/github/datacon2025hack/step_04_hit_selection/docking/ligands/lig_347.pdb
REMARK  8 active torsions:
REMARK  status: ('A' for Active; 'I' for Inactive)
REMARK    1  A    between atoms: C1_1  and  C2_2
REMARK    2  A    between atoms: C4_4  and  C5_5
REMARK    3  A    between atoms: C6_6  and  C7_7
REMARK    4  A    between atoms: C9_11  and  C10_12
REMARK    5  A    between atoms: C10_12  and  N2_13
REMARK    6  A    between atoms: C11_14  and  C12_16
REMARK    7  A    between atoms: C14_20  and  C15_21
REMARK    8  A    between atoms: C17_23  and  C18_24
REMARK                            x       y       z     vdW  Elec       q    Type
REMARK                         _______ _______ _______ _____ _____    ______ ____
ROOT
ATOM      1  C7  UNL     1       8.691  12.426  27.825  0.00  0.00    +0.263 C 
ATOM      2  O1  UNL     1       7.890  13.295  27.391  0.00  0.00    -0.268 OA
ATOM      3  N1  UNL     1      10.098  12.718  27.880  0.00  0.00    -0.293 N 
ATOM      4  C8  UNL     1      10.611  14.067  28.046  0.00  0.00    +0.113 C 
ATOM      5  C9  UNL     1      12.124  13.957  27.841  0.00  0.00    +0.025 C 
ATOM      6  C16 UNL     1      12.450  12.470  28.025  0.00  0.00    +0.028 C 
ATOM      7  C17 UNL     1      11.153  11.728  27.693  0.00  0.00    +0.074 C 
ATOM      8  C18 UNL     1      11.148  11.212  26.251  0.00  0.00    +0.028 C 
ENDROOT
BRANCH   1  14
ATOM      9  C1  UNL     1       7.145   8.765  30.777  0.00  0.00    +0.063 C 
ATOM     10  C2  UNL     1       7.528   9.507  29.538  0.00  0.00    +0.014 A 
ATOM     11  C3  UNL     1       7.375   9.039  28.246  0.00  0.00    +0.026 A 
ATOM     12  C4  UNL     1       7.799  10.062  27.419  0.00  0.00    -0.020 A 
ATOM     13  C5  UNL     1       7.890   9.982  25.926  0.00  0.00    +0.046 C 
ATOM     14  C6  UNL     1       8.162  11.117  28.244  0.00  0.00    +0.105 A 
ATOM     15  N5  UNL     1       8.005  10.767  29.534  0.00  0.00    -0.354 N 
ATOM     16  H25 UNL     1       8.196  11.362  30.371  0.00  0.00    +0.166 HD
ENDBRANCH   1  14
BRANCH   5  17
ATOM     17  C10 UNL     1      12.915  14.867  28.799  0.00  0.00    +0.109 C 
BRANCH  17  18
ATOM     18  N2  UNL     1      12.377  14.786  30.156  0.00  0.00    -0.310 N 
ATOM     19  C11 UNL     1      13.014  14.025  31.194  0.00  0.00    +0.264 C 
ATOM     20  O2  UNL     1      14.113  13.450  30.970  0.00  0.00    -0.268 OA
ATOM     21  H13 UNL     1      11.518  15.336  30.377  0.00  0.00    +0.149 HD
BRANCH  19  22
ATOM     22  C12 UNL     1      12.387  13.916  32.525  0.00  0.00    +0.150 A 
ATOM     23  N3  UNL     1      12.378  14.917  33.429  0.00  0.00    -0.169 NA
ATOM     24  N4  UNL     1      11.736  14.490  34.504  0.00  0.00    -0.284 N 
ATOM     25  C13 UNL     1      11.323  13.224  34.315  0.00  0.00    +0.109 A 
ATOM     26  C14 UNL     1      11.721  12.820  33.057  0.00  0.00    -0.001 A 
ATOM     27  C15 UNL     1      11.471  11.487  32.429  0.00  0.00    +0.048 C 
ATOM     28  H14 UNL     1      11.580  15.063  35.362  0.00  0.00    +0.188 HD
ENDBRANCH  19  22
ENDBRANCH  17  18
ENDBRANCH   5  17
TORSDOF 4
ENDMDL
MODEL 6
REMARK VINA RESULT:    -6.092     16.508     17.524
REMARK INTER + INTRA:          -8.516
REMARK INTER:                  -7.770
REMARK INTRA:                  -0.746
REMARK UNBOUND:                -0.999
REMARK  Name = /home/qwerty/github/datacon2025hack/step_04_hit_selection/docking/ligands/lig_347.pdb
REMARK  8 active torsions:
REMARK  status: ('A' for Active; 'I' for Inactive)
REMARK    1  A    between atoms: C1_1  and  C2_2
REMARK    2  A    between atoms: C4_4  and  C5_5
REMARK    3  A    between atoms: C6_6  and  C7_7
REMARK    4  A    between atoms: C9_11  and  C10_12
REMARK    5  A    between atoms: C10_12  and  N2_13
REMARK    6  A    between atoms: C11_14  and  C12_16
REMARK    7  A    between atoms: C14_20  and  C15_21
REMARK    8  A    between atoms: C17_23  and  C18_24
REMARK                            x       y       z     vdW  Elec       q    Type
REMARK                         _______ _______ _______ _____ _____    ______ ____
ROOT
ATOM      1  C7  UNL     1      16.469  12.869  35.164  0.00  0.00    +0.263 C 
ATOM      2  O1  UNL     1      16.980  12.803  34.015  0.00  0.00    -0.268 OA
ATOM      3  N1  UNL     1      16.699  11.808  36.107  0.00  0.00    -0.293 N 
ATOM      4  C8  UNL     1      17.900  10.990  36.087  0.00  0.00    +0.113 C 
ATOM      5  C9  UNL     1      17.648   9.870  37.100  0.00  0.00    +0.025 C 
ATOM      6  C16 UNL     1      16.498  10.373  37.982  0.00  0.00    +0.028 C 
ATOM      7  C17 UNL     1      15.737  11.381  37.118  0.00  0.00    +0.074 C 
ATOM      8  C18 UNL     1      14.513  10.746  36.452  0.00  0.00    +0.028 C 
ENDROOT
BRANCH   1  14
ATOM      9  C1  UNL     1      15.059  17.163  37.184  0.00  0.00    +0.063 C 
ATOM     10  C2  UNL     1      14.999  15.880  36.420  0.00  0.00    +0.014 A 
ATOM     11  C3  UNL     1      13.927  15.452  35.659  0.00  0.00    +0.026 A 
ATOM     12  C4  UNL     1      14.320  14.256  35.088  0.00  0.00    -0.020 A 
ATOM     13  C5  UNL     1      13.451  13.380  34.240  0.00  0.00    +0.046 C 
ATOM     14  C6  UNL     1      15.625  14.026  35.503  0.00  0.00    +0.105 A 
ATOM     15  N5  UNL     1      16.027  15.015  36.323  0.00  0.00    -0.354 N 
ATOM     16  H25 UNL     1      16.961  15.105  36.781  0.00  0.00    +0.166 HD
ENDBRANCH   1  14
BRANCH   5  17
ATOM     17  C10 UNL     1      18.910   9.512  37.906  0.00  0.00    +0.109 C 
BRANCH  17  18
ATOM     18  N2  UNL     1      20.009   9.143  37.016  0.00  0.00    -0.310 N 
ATOM     19  C11 UNL     1      20.470   7.790  36.879  0.00  0.00    +0.264 C 
ATOM     20  O2  UNL     1      19.878   6.858  37.488  0.00  0.00    -0.268 OA
ATOM     21  H13 UNL     1      20.443   9.894  36.435  0.00  0.00    +0.149 HD
BRANCH  19  22
ATOM     22  C12 UNL     1      21.632   7.485  36.023  0.00  0.00    +0.150 A 
ATOM     23  N3  UNL     1      21.644   7.671  34.687  0.00  0.00    -0.169 NA
ATOM     24  N4  UNL     1      22.832   7.304  34.235  0.00  0.00    -0.284 N 
ATOM     25  C13 UNL     1      23.598   6.881  35.257  0.00  0.00    +0.109 A 
ATOM     26  C14 UNL     1      22.864   6.982  36.420  0.00  0.00    -0.001 A 
ATOM     27  C15 UNL     1      23.323   6.624  37.798  0.00  0.00    +0.048 C 
ATOM     28  H14 UNL     1      23.117   7.344  33.232  0.00  0.00    +0.188 HD
ENDBRANCH  19  22
ENDBRANCH  17  18
ENDBRANCH   5  17
TORSDOF 4
ENDMDL
MODEL 7
REMARK VINA RESULT:    -6.035     16.468     18.487
REMARK INTER + INTRA:          -8.445
REMARK INTER:                  -7.251
REMARK INTRA:                  -1.194
REMARK UNBOUND:                -0.999
REMARK  Name = /home/qwerty/github/datacon2025hack/step_04_hit_selection/docking/ligands/lig_347.pdb
REMARK  8 active torsions:
REMARK  status: ('A' for Active; 'I' for Inactive)
REMARK    1  A    between atoms: C1_1  and  C2_2
REMARK    2  A    between atoms: C4_4  and  C5_5
REMARK    3  A    between atoms: C6_6  and  C7_7
REMARK    4  A    between atoms: C9_11  and  C10_12
REMARK    5  A    between atoms: C10_12  and  N2_13
REMARK    6  A    between atoms: C11_14  and  C12_16
REMARK    7  A    between atoms: C14_20  and  C15_21
REMARK    8  A    between atoms: C17_23  and  C18_24
REMARK                            x       y       z     vdW  Elec       q    Type
REMARK                         _______ _______ _______ _____ _____    ______ ____
ROOT
ATOM      1  C7  UNL     1      23.049   7.057  35.424  0.00  0.00    +0.263 C 
ATOM      2  O1  UNL     1      23.662   6.942  36.518  0.00  0.00    -0.268 OA
ATOM      3  N1  UNL     1      21.667   6.671  35.337  0.00  0.00    -0.293 N 
ATOM      4  C8  UNL     1      20.767   6.725  36.477  0.00  0.00    +0.113 C 
ATOM      5  C9  UNL     1      19.478   6.042  36.012  0.00  0.00    +0.025 C 
ATOM      6  C16 UNL     1      19.550   6.044  34.480  0.00  0.00    +0.028 C 
ATOM      7  C17 UNL     1      21.041   6.112  34.144  0.00  0.00    +0.074 C 
ATOM      8  C18 UNL     1      21.617   4.726  33.841  0.00  0.00    +0.028 C 
ENDROOT
BRANCH   1  14
ATOM      9  C1  UNL     1      24.385  10.053  31.716  0.00  0.00    +0.063 C 
ATOM     10  C2  UNL     1      24.331   8.856  32.607  0.00  0.00    +0.014 A 
ATOM     11  C3  UNL     1      25.180   7.768  32.536  0.00  0.00    +0.026 A 
ATOM     12  C4  UNL     1      24.815   6.932  33.575  0.00  0.00    -0.020 A 
ATOM     13  C5  UNL     1      25.408   5.584  33.846  0.00  0.00    +0.046 C 
ATOM     14  C6  UNL     1      23.780   7.564  34.250  0.00  0.00    +0.105 A 
ATOM     15  N5  UNL     1      23.483   8.731  33.647  0.00  0.00    -0.354 N 
ATOM     16  H25 UNL     1      22.752   9.417  33.940  0.00  0.00    +0.166 HD
ENDBRANCH   1  14
BRANCH   5  17
ATOM     17  C10 UNL     1      18.216   6.735  36.555  0.00  0.00    +0.109 C 
BRANCH  17  18
ATOM     18  N2  UNL     1      18.466   8.156  36.796  0.00  0.00    -0.310 N 
ATOM     19  C11 UNL     1      18.103   9.174  35.851  0.00  0.00    +0.264 C 
ATOM     20  O2  UNL     1      17.485   8.864  34.797  0.00  0.00    -0.268 OA
ATOM     21  H13 UNL     1      18.892   8.431  37.709  0.00  0.00    +0.149 HD
BRANCH  19  22
ATOM     22  C12 UNL     1      18.447  10.585  36.112  0.00  0.00    +0.150 A 
ATOM     23  N3  UNL     1      17.668  11.423  36.827  0.00  0.00    -0.169 NA
ATOM     24  N4  UNL     1      18.270  12.600  36.870  0.00  0.00    -0.284 N 
ATOM     25  C13 UNL     1      19.432  12.544  36.195  0.00  0.00    +0.109 A 
ATOM     26  C14 UNL     1      19.581  11.268  35.694  0.00  0.00    -0.001 A 
ATOM     27  C15 UNL     1      20.729  10.759  34.883  0.00  0.00    +0.048 C 
ATOM     28  H14 UNL     1      17.887  13.437  37.362  0.00  0.00    +0.188 HD
ENDBRANCH  19  22
ENDBRANCH  17  18
ENDBRANCH   5  17
TORSDOF 4
ENDMDL
MODEL 8
REMARK VINA RESULT:    -6.014      3.236      8.528
REMARK INTER + INTRA:          -8.419
REMARK INTER:                  -7.665
REMARK INTRA:                  -0.755
REMARK UNBOUND:                -0.999
REMARK  Name = /home/qwerty/github/datacon2025hack/step_04_hit_selection/docking/ligands/lig_347.pdb
REMARK  8 active torsions:
REMARK  status: ('A' for Active; 'I' for Inactive)
REMARK    1  A    between atoms: C1_1  and  C2_2
REMARK    2  A    between atoms: C4_4  and  C5_5
REMARK    3  A    between atoms: C6_6  and  C7_7
REMARK    4  A    between atoms: C9_11  and  C10_12
REMARK    5  A    between atoms: C10_12  and  N2_13
REMARK    6  A    between atoms: C11_14  and  C12_16
REMARK    7  A    between atoms: C14_20  and  C15_21
REMARK    8  A    between atoms: C17_23  and  C18_24
REMARK                            x       y       z     vdW  Elec       q    Type
REMARK                         _______ _______ _______ _____ _____    ______ ____
ROOT
ATOM      1  C7  UNL     1      13.909   0.494  22.264  0.00  0.00    +0.263 C 
ATOM      2  O1  UNL     1      12.674   0.291  22.118  0.00  0.00    -0.268 OA
ATOM      3  N1  UNL     1      14.584   1.428  21.404  0.00  0.00    -0.293 N 
ATOM      4  C8  UNL     1      13.909   2.566  20.804  0.00  0.00    +0.113 C 
ATOM      5  C9  UNL     1      14.915   3.163  19.816  0.00  0.00    +0.025 C 
ATOM      6  C16 UNL     1      16.279   2.607  20.243  0.00  0.00    +0.028 C 
ATOM      7  C17 UNL     1      15.972   1.299  20.975  0.00  0.00    +0.074 C 
ATOM      8  C18 UNL     1      16.133   0.084  20.056  0.00  0.00    +0.028 C 
ENDROOT
BRANCH   1  14
ATOM      9  C1  UNL     1      16.575  -3.084  24.408  0.00  0.00    +0.063 C 
ATOM     10  C2  UNL     1      15.763  -1.841  24.244  0.00  0.00    +0.014 A 
ATOM     11  C3  UNL     1      15.525  -0.905  25.233  0.00  0.00    +0.026 A 
ATOM     12  C4  UNL     1      14.786   0.100  24.636  0.00  0.00    -0.020 A 
ATOM     13  C5  UNL     1      14.226   1.294  25.343  0.00  0.00    +0.046 C 
ATOM     14  C6  UNL     1      14.635  -0.256  23.302  0.00  0.00    +0.105 A 
ATOM     15  N5  UNL     1      15.223  -1.446  23.075  0.00  0.00    -0.354 N 
ATOM     16  H25 UNL     1      15.270  -1.954  22.164  0.00  0.00    +0.166 HD
ENDBRANCH   1  14
BRANCH   5  17
ATOM     17  C10 UNL     1      14.875   4.701  19.793  0.00  0.00    +0.109 C 
BRANCH  17  18
ATOM     18  N2  UNL     1      13.499   5.184  19.682  0.00  0.00    -0.310 N 
ATOM     19  C11 UNL     1      12.883   5.997  20.693  0.00  0.00    +0.264 C 
ATOM     20  O2  UNL     1      13.553   6.376  21.691  0.00  0.00    -0.268 OA
ATOM     21  H13 UNL     1      12.967   4.953  18.814  0.00  0.00    +0.149 HD
BRANCH  19  22
ATOM     22  C12 UNL     1      11.467   6.393  20.564  0.00  0.00    +0.150 A 
ATOM     23  N3  UNL     1      11.068   7.644  20.258  0.00  0.00    -0.169 NA
ATOM     24  N4  UNL     1       9.745   7.651  20.221  0.00  0.00    -0.284 N 
ATOM     25  C13 UNL     1       9.274   6.422  20.498  0.00  0.00    +0.109 A 
ATOM     26  C14 UNL     1      10.349   5.587  20.724  0.00  0.00    -0.001 A 
ATOM     27  C15 UNL     1      10.289   4.131  21.062  0.00  0.00    +0.048 C 
ATOM     28  H14 UNL     1       9.169   8.494  20.005  0.00  0.00    +0.188 HD
ENDBRANCH  19  22
ENDBRANCH  17  18
ENDBRANCH   5  17
TORSDOF 4
ENDMDL
MODEL 9
REMARK VINA RESULT:    -6.001     15.611     17.135
REMARK INTER + INTRA:          -8.403
REMARK INTER:                  -7.364
REMARK INTRA:                  -1.039
REMARK UNBOUND:                -0.999
REMARK  Name = /home/qwerty/github/datacon2025hack/step_04_hit_selection/docking/ligands/lig_347.pdb
REMARK  8 active torsions:
REMARK  status: ('A' for Active; 'I' for Inactive)
REMARK    1  A    between atoms: C1_1  and  C2_2
REMARK    2  A    between atoms: C4_4  and  C5_5
REMARK    3  A    between atoms: C6_6  and  C7_7
REMARK    4  A    between atoms: C9_11  and  C10_12
REMARK    5  A    between atoms: C10_12  and  N2_13
REMARK    6  A    between atoms: C11_14  and  C12_16
REMARK    7  A    between atoms: C14_20  and  C15_21
REMARK    8  A    between atoms: C17_23  and  C18_24
REMARK                            x       y       z     vdW  Elec       q    Type
REMARK                         _______ _______ _______ _____ _____    ______ ____
ROOT
ATOM      1  C7  UNL     1      14.218  14.127  35.772  0.00  0.00    +0.263 C 
ATOM      2  O1  UNL     1      14.241  15.348  36.078  0.00  0.00    -0.268 OA
ATOM      3  N1  UNL     1      15.369  13.525  35.154  0.00  0.00    -0.293 N 
ATOM      4  C8  UNL     1      16.720  14.006  35.383  0.00  0.00    +0.113 C 
ATOM      5  C9  UNL     1      17.600  13.239  34.392  0.00  0.00    +0.025 C 
ATOM      6  C16 UNL     1      16.766  12.025  33.967  0.00  0.00    +0.028 C 
ATOM      7  C17 UNL     1      15.308  12.440  34.181  0.00  0.00    +0.074 C 
ATOM      8  C18 UNL     1      14.661  12.927  32.881  0.00  0.00    +0.028 C 
ENDROOT
BRANCH   1  14
ATOM      9  C1  UNL     1      11.117  10.917  37.914  0.00  0.00    +0.063 C 
ATOM     10  C2  UNL     1      11.658  11.919  36.946  0.00  0.00    +0.014 A 
ATOM     11  C3  UNL     1      10.948  12.493  35.909  0.00  0.00    +0.026 A 
ATOM     12  C4  UNL     1      11.809  13.395  35.313  0.00  0.00    -0.020 A 
ATOM     13  C5  UNL     1      11.500  14.200  34.088  0.00  0.00    +0.046 C 
ATOM     14  C6  UNL     1      12.994  13.351  36.034  0.00  0.00    +0.105 A 
ATOM     15  N5  UNL     1      12.898  12.441  37.021  0.00  0.00    -0.354 N 
ATOM     16  H25 UNL     1      13.634  12.200  37.721  0.00  0.00    +0.166 HD
ENDBRANCH   1  14
BRANCH   5  17
ATOM     17  C10 UNL     1      18.962  12.850  34.994  0.00  0.00    +0.109 C 
BRANCH  17  18
ATOM     18  N2  UNL     1      18.820  11.728  35.921  0.00  0.00    -0.310 N 
ATOM     19  C11 UNL     1      19.457  10.460  35.701  0.00  0.00    +0.264 C 
ATOM     20  O2  UNL     1      20.225  10.305  34.714  0.00  0.00    -0.268 OA
ATOM     21  H13 UNL     1      18.262  11.878  36.791  0.00  0.00    +0.149 HD
BRANCH  19  22
ATOM     22  C12 UNL     1      19.217   9.339  36.630  0.00  0.00    +0.150 A 
ATOM     23  N3  UNL     1      20.178   8.794  37.403  0.00  0.00    -0.169 NA
ATOM     24  N4  UNL     1      19.627   7.821  38.111  0.00  0.00    -0.284 N 
ATOM     25  C13 UNL     1      18.319   7.724  37.812  0.00  0.00    +0.109 A 
ATOM     26  C14 UNL     1      18.018   8.681  36.866  0.00  0.00    -0.001 A 
ATOM     27  C15 UNL     1      16.680   8.933  36.250  0.00  0.00    +0.048 C 
ATOM     28  H14 UNL     1      20.145   7.228  38.797  0.00  0.00    +0.188 HD
ENDBRANCH  19  22
ENDBRANCH  17  18
ENDBRANCH   5  17
TORSDOF 4
ENDMDL
