MODEL 1
REMARK VINA RESULT:    -6.042      0.000      0.000
REMARK INTER + INTRA:          -8.896
REMARK INTER:                  -8.161
REMARK INTRA:                  -0.735
REMARK UNBOUND:                -0.735
REMARK  Name = /home/qwerty/github/datacon2025hack/step_04_hit_selection/docking/ligands/lig_60.pdb
REMARK  8 active torsions:
REMARK  status: ('A' for Active; 'I' for Inactive)
REMARK    1  A    between atoms: C1_1  and  O1_2
REMARK    2  A    between atoms: O1_2  and  C2_3
REMARK    3  A    between atoms: C2_3  and  C3_5
REMARK    4  A    between atoms: C6_8  and  N1_9
REMARK    5  A    between atoms: C7_10  and  C8_12
REMARK    6  A    between atoms: C11_15  and  O4_16
REMARK    7  A    between atoms: O4_16  and  C12_17
REMARK    8  A    between atoms: C13_18  and  N2_19
REMARK                            x       y       z     vdW  Elec       q    Type
REMARK                         _______ _______ _______ _____ _____    ______ ____
ROOT
ATOM      1  N1  UNL     1      21.175   3.230  23.980  0.00  0.00    -0.282 N 
ATOM      2  C7  UNL     1      20.666   4.561  23.789  0.00  0.00    +0.248 C 
ATOM      3  O3  UNL     1      20.028   5.126  24.720  0.00  0.00    -0.270 OA
ATOM      4  H6  UNL     1      21.266   2.614  23.141  0.00  0.00    +0.155 HD
ENDROOT
BRANCH   1   8
ATOM      5  C3  UNL     1      21.893   1.430  27.776  0.00  0.00    +0.059 A 
ATOM      6  C4  UNL     1      20.817   1.016  26.973  0.00  0.00    +0.017 A 
ATOM      7  C5  UNL     1      20.587   1.614  25.730  0.00  0.00    +0.024 A 
ATOM      8  C6  UNL     1      21.419   2.645  25.272  0.00  0.00    +0.034 A 
ATOM      9  C16 UNL     1      22.509   3.047  26.064  0.00  0.00    +0.024 A 
ATOM     10  C17 UNL     1      22.740   2.450  27.306  0.00  0.00    +0.017 A 
BRANCH   5  11
ATOM     11  C2  UNL     1      22.141   0.800  29.092  0.00  0.00    +0.339 C 
ATOM     12  O2  UNL     1      22.282   1.518  30.121  0.00  0.00    -0.245 OA
BRANCH  11  14
ATOM     13  C1  UNL     1      23.409  -1.318  28.909  0.00  0.00    +0.280 C 
ATOM     14  O1  UNL     1      22.220  -0.592  29.195  0.00  0.00    -0.464 OA
ENDBRANCH  11  14
ENDBRANCH   5  11
ENDBRANCH   1   8
BRANCH   2  15
ATOM     15  C8  UNL     1      20.836   5.260  22.491  0.00  0.00    +0.039 A 
ATOM     16  C9  UNL     1      19.801   5.278  21.544  0.00  0.00    +0.017 A 
ATOM     17  C10 UNL     1      19.967   5.933  20.325  0.00  0.00    +0.048 A 
ATOM     18  C11 UNL     1      21.177   6.583  20.017  0.00  0.00    +0.146 A 
ATOM     19  C13 UNL     1      22.230   6.568  20.959  0.00  0.00    +0.111 A 
ATOM     20  C15 UNL     1      22.047   5.901  22.186  0.00  0.00    +0.044 A 
BRANCH  19  21
ATOM     21  N2  UNL     1      23.479   7.232  20.679  0.00  0.00    -0.197 N 
ATOM     22  C14 UNL     1      24.565   6.740  20.052  0.00  0.00    +0.251 A 
ATOM     23  N3  UNL     1      25.527   7.679  20.003  0.00  0.00    -0.116 NA
ATOM     24  N4  UNL     1      25.013   8.740  20.610  0.00  0.00    -0.023 NA
ATOM     25  N5  UNL     1      23.782   8.474  21.017  0.00  0.00    -0.039 NA
ENDBRANCH  19  21
BRANCH  18  26
ATOM     26  O4  UNL     1      21.366   7.233  18.786  0.00  0.00    -0.493 OA
ATOM     27  C12 UNL     1      20.740   8.455  18.409  0.00  0.00    +0.277 C 
ENDBRANCH  18  26
ENDBRANCH   2  15
TORSDOF 6
ENDMDL
MODEL 2
REMARK VINA RESULT:    -6.005      3.136      9.419
REMARK INTER + INTRA:          -8.846
REMARK INTER:                  -8.140
REMARK INTRA:                  -0.706
REMARK UNBOUND:                -0.735
REMARK  Name = /home/qwerty/github/datacon2025hack/step_04_hit_selection/docking/ligands/lig_60.pdb
REMARK  8 active torsions:
REMARK  status: ('A' for Active; 'I' for Inactive)
REMARK    1  A    between atoms: C1_1  and  O1_2
REMARK    2  A    between atoms: O1_2  and  C2_3
REMARK    3  A    between atoms: C2_3  and  C3_5
REMARK    4  A    between atoms: C6_8  and  N1_9
REMARK    5  A    between atoms: C7_10  and  C8_12
REMARK    6  A    between atoms: C11_15  and  O4_16
REMARK    7  A    between atoms: O4_16  and  C12_17
REMARK    8  A    between atoms: C13_18  and  N2_19
REMARK                            x       y       z     vdW  Elec       q    Type
REMARK                         _______ _______ _______ _____ _____    ______ ____
ROOT
ATOM      1  N1  UNL     1      22.088   4.341  25.381  0.00  0.00    -0.282 N 
ATOM      2  C7  UNL     1      21.245   4.643  26.506  0.00  0.00    +0.248 C 
ATOM      3  O3  UNL     1      20.446   5.619  26.444  0.00  0.00    -0.270 OA
ATOM      4  H6  UNL     1      23.013   3.894  25.568  0.00  0.00    +0.155 HD
ENDROOT
BRANCH   1   8
ATOM      5  C3  UNL     1      21.171   5.575  21.406  0.00  0.00    +0.059 A 
ATOM      6  C4  UNL     1      20.536   4.460  21.981  0.00  0.00    +0.017 A 
ATOM      7  C5  UNL     1      20.846   4.061  23.285  0.00  0.00    +0.024 A 
ATOM      8  C6  UNL     1      21.803   4.758  24.034  0.00  0.00    +0.034 A 
ATOM      9  C16 UNL     1      22.424   5.886  23.470  0.00  0.00    +0.024 A 
ATOM     10  C17 UNL     1      22.115   6.286  22.166  0.00  0.00    +0.017 A 
BRANCH   5  11
ATOM     11  C2  UNL     1      20.847   6.002  20.027  0.00  0.00    +0.339 C 
ATOM     12  O2  UNL     1      19.825   6.709  19.807  0.00  0.00    -0.245 OA
BRANCH  11  14
ATOM     13  C1  UNL     1      22.927   6.245  18.706  0.00  0.00    +0.280 C 
ATOM     14  O1  UNL     1      21.675   5.621  18.966  0.00  0.00    -0.464 OA
ENDBRANCH  11  14
ENDBRANCH   5  11
ENDBRANCH   1   8
BRANCH   2  15
ATOM     15  C8  UNL     1      21.338   3.855  27.759  0.00  0.00    +0.039 A 
ATOM     16  C9  UNL     1      20.658   4.262  28.917  0.00  0.00    +0.017 A 
ATOM     17  C10 UNL     1      20.751   3.520  30.093  0.00  0.00    +0.048 A 
ATOM     18  C11 UNL     1      21.536   2.352  30.145  0.00  0.00    +0.146 A 
ATOM     19  C13 UNL     1      22.232   1.933  28.988  0.00  0.00    +0.111 A 
ATOM     20  C15 UNL     1      22.127   2.694  27.809  0.00  0.00    +0.044 A 
BRANCH  19  21
ATOM     21  N2  UNL     1      23.036   0.736  29.005  0.00  0.00    -0.197 N 
ATOM     22  C14 UNL     1      24.366   0.626  29.187  0.00  0.00    +0.251 A 
ATOM     23  N3  UNL     1      24.729  -0.668  29.121  0.00  0.00    -0.116 NA
ATOM     24  N4  UNL     1      23.606  -1.336  28.892  0.00  0.00    -0.023 NA
ATOM     25  N5  UNL     1      22.587  -0.494  28.823  0.00  0.00    -0.039 NA
ENDBRANCH  19  21
BRANCH  18  26
ATOM     26  O4  UNL     1      21.655   1.602  31.327  0.00  0.00    -0.493 OA
ATOM     27  C12 UNL     1      20.673   0.692  31.813  0.00  0.00    +0.277 C 
ENDBRANCH  18  26
ENDBRANCH   2  15
TORSDOF 6
ENDMDL
MODEL 3
REMARK VINA RESULT:    -6.002      7.082     10.488
REMARK INTER + INTRA:          -8.843
REMARK INTER:                  -8.181
REMARK INTRA:                  -0.662
REMARK UNBOUND:                -0.735
REMARK  Name = /home/qwerty/github/datacon2025hack/step_04_hit_selection/docking/ligands/lig_60.pdb
REMARK  8 active torsions:
REMARK  status: ('A' for Active; 'I' for Inactive)
REMARK    1  A    between atoms: C1_1  and  O1_2
REMARK    2  A    between atoms: O1_2  and  C2_3
REMARK    3  A    between atoms: C2_3  and  C3_5
REMARK    4  A    between atoms: C6_8  and  N1_9
REMARK    5  A    between atoms: C7_10  and  C8_12
REMARK    6  A    between atoms: C11_15  and  O4_16
REMARK    7  A    between atoms: O4_16  and  C12_17
REMARK    8  A    between atoms: C13_18  and  N2_19
REMARK                            x       y       z     vdW  Elec       q    Type
REMARK                         _______ _______ _______ _____ _____    ______ ____
ROOT
ATOM      1  N1  UNL     1      21.025   5.193  32.754  0.00  0.00    -0.282 N 
ATOM      2  C7  UNL     1      21.441   3.849  32.462  0.00  0.00    +0.248 C 
ATOM      3  O3  UNL     1      21.678   3.048  33.409  0.00  0.00    -0.270 OA
ATOM      4  H6  UNL     1      21.276   5.944  32.072  0.00  0.00    +0.155 HD
ENDROOT
BRANCH   1   8
ATOM      5  C3  UNL     1      19.265   6.441  36.430  0.00  0.00    +0.059 A 
ATOM      6  C4  UNL     1      20.610   6.727  36.140  0.00  0.00    +0.017 A 
ATOM      7  C5  UNL     1      21.180   6.311  34.932  0.00  0.00    +0.024 A 
ATOM      8  C6  UNL     1      20.422   5.591  33.999  0.00  0.00    +0.034 A 
ATOM      9  C16 UNL     1      19.071   5.322  34.277  0.00  0.00    +0.024 A 
ATOM     10  C17 UNL     1      18.500   5.737  35.484  0.00  0.00    +0.017 A 
BRANCH   5  11
ATOM     11  C2  UNL     1      18.657   6.879  37.705  0.00  0.00    +0.339 C 
ATOM     12  O2  UNL     1      17.856   6.120  38.319  0.00  0.00    -0.245 OA
BRANCH  11  14
ATOM     13  C1  UNL     1      18.311   9.328  37.821  0.00  0.00    +0.280 C 
ATOM     14  O1  UNL     1      18.970   8.136  38.232  0.00  0.00    -0.464 OA
ENDBRANCH  11  14
ENDBRANCH   5  11
ENDBRANCH   1   8
BRANCH   2  15
ATOM     15  C8  UNL     1      21.647   3.404  31.062  0.00  0.00    +0.039 A 
ATOM     16  C9  UNL     1      21.162   4.164  29.987  0.00  0.00    +0.017 A 
ATOM     17  C10 UNL     1      21.355   3.740  28.674  0.00  0.00    +0.048 A 
ATOM     18  C11 UNL     1      22.032   2.536  28.399  0.00  0.00    +0.146 A 
ATOM     19  C13 UNL     1      22.520   1.756  29.472  0.00  0.00    +0.111 A 
ATOM     20  C15 UNL     1      22.317   2.199  30.793  0.00  0.00    +0.044 A 
BRANCH  19  21
ATOM     21  N2  UNL     1      23.227   0.524  29.226  0.00  0.00    -0.197 N 
ATOM     22  C14 UNL     1      22.716  -0.696  28.972  0.00  0.00    +0.251 A 
ATOM     23  N3  UNL     1      23.714  -1.584  28.810  0.00  0.00    -0.116 NA
ATOM     24  N4  UNL     1      24.831  -0.888  28.973  0.00  0.00    -0.023 NA
ATOM     25  N5  UNL     1      24.542   0.378  29.223  0.00  0.00    -0.039 NA
ENDBRANCH  19  21
BRANCH  18  26
ATOM     26  O4  UNL     1      22.220   2.085  27.082  0.00  0.00    -0.493 OA
ATOM     27  C12 UNL     1      22.478   2.929  25.964  0.00  0.00    +0.277 C 
ENDBRANCH  18  26
ENDBRANCH   2  15
TORSDOF 6
ENDMDL
MODEL 4
REMARK VINA RESULT:    -5.880      7.333     10.782
REMARK INTER + INTRA:          -8.678
REMARK INTER:                  -8.150
REMARK INTRA:                  -0.528
REMARK UNBOUND:                -0.735
REMARK  Name = /home/qwerty/github/datacon2025hack/step_04_hit_selection/docking/ligands/lig_60.pdb
REMARK  8 active torsions:
REMARK  status: ('A' for Active; 'I' for Inactive)
REMARK    1  A    between atoms: C1_1  and  O1_2
REMARK    2  A    between atoms: O1_2  and  C2_3
REMARK    3  A    between atoms: C2_3  and  C3_5
REMARK    4  A    between atoms: C6_8  and  N1_9
REMARK    5  A    between atoms: C7_10  and  C8_12
REMARK    6  A    between atoms: C11_15  and  O4_16
REMARK    7  A    between atoms: O4_16  and  C12_17
REMARK    8  A    between atoms: C13_18  and  N2_19
REMARK                            x       y       z     vdW  Elec       q    Type
REMARK                         _______ _______ _______ _____ _____    ______ ____
ROOT
ATOM      1  N1  UNL     1      16.916   6.761  18.861  0.00  0.00    -0.282 N 
ATOM      2  C7  UNL     1      17.209   5.648  19.723  0.00  0.00    +0.248 C 
ATOM      3  O3  UNL     1      18.334   5.577  20.291  0.00  0.00    -0.270 OA
ATOM      4  H6  UNL     1      16.250   6.607  18.070  0.00  0.00    +0.155 HD
ENDROOT
BRANCH   1   8
ATOM      5  C3  UNL     1      18.923  10.511  19.131  0.00  0.00    +0.059 A 
ATOM      6  C4  UNL     1      17.604  10.363  19.593  0.00  0.00    +0.017 A 
ATOM      7  C5  UNL     1      16.952   9.130  19.498  0.00  0.00    +0.024 A 
ATOM      8  C6  UNL     1      17.600   8.025  18.927  0.00  0.00    +0.034 A 
ATOM      9  C16 UNL     1      18.926   8.164  18.483  0.00  0.00    +0.024 A 
ATOM     10  C17 UNL     1      19.579   9.397  18.578  0.00  0.00    +0.017 A 
BRANCH   5  11
ATOM     11  C2  UNL     1      19.618  11.813  19.229  0.00  0.00    +0.339 C 
ATOM     12  O2  UNL     1      19.016  12.818  19.700  0.00  0.00    -0.245 OA
BRANCH  11  14
ATOM     13  C1  UNL     1      21.742  13.076  19.074  0.00  0.00    +0.280 C 
ATOM     14  O1  UNL     1      20.944  11.931  18.799  0.00  0.00    -0.464 OA
ENDBRANCH  11  14
ENDBRANCH   5  11
ENDBRANCH   1   8
BRANCH   2  15
ATOM     15  C8  UNL     1      16.225   4.553  19.912  0.00  0.00    +0.039 A 
ATOM     16  C9  UNL     1      14.849   4.794  19.787  0.00  0.00    +0.017 A 
ATOM     17  C10 UNL     1      13.929   3.763  19.970  0.00  0.00    +0.048 A 
ATOM     18  C11 UNL     1      14.361   2.462  20.291  0.00  0.00    +0.146 A 
ATOM     19  C13 UNL     1      15.745   2.207  20.427  0.00  0.00    +0.111 A 
ATOM     20  C15 UNL     1      16.661   3.259  20.239  0.00  0.00    +0.044 A 
BRANCH  19  21
ATOM     21  N2  UNL     1      16.222   0.883  20.745  0.00  0.00    -0.197 N 
ATOM     22  C14 UNL     1      16.466  -0.141  19.905  0.00  0.00    +0.251 A 
ATOM     23  N3  UNL     1      16.890  -1.211  20.603  0.00  0.00    -0.116 NA
ATOM     24  N4  UNL     1      16.894  -0.823  21.871  0.00  0.00    -0.023 NA
ATOM     25  N5  UNL     1      16.493   0.435  21.959  0.00  0.00    -0.039 NA
ENDBRANCH  19  21
BRANCH  18  26
ATOM     26  O4  UNL     1      13.447   1.416  20.496  0.00  0.00    -0.493 OA
ATOM     27  C12 UNL     1      12.873   1.074  21.754  0.00  0.00    +0.277 C 
ENDBRANCH  18  26
ENDBRANCH   2  15
TORSDOF 6
ENDMDL
MODEL 5
REMARK VINA RESULT:    -5.815      2.296      3.019
REMARK INTER + INTRA:          -8.590
REMARK INTER:                  -7.857
REMARK INTRA:                  -0.734
REMARK UNBOUND:                -0.735
REMARK  Name = /home/qwerty/github/datacon2025hack/step_04_hit_selection/docking/ligands/lig_60.pdb
REMARK  8 active torsions:
REMARK  status: ('A' for Active; 'I' for Inactive)
REMARK    1  A    between atoms: C1_1  and  O1_2
REMARK    2  A    between atoms: O1_2  and  C2_3
REMARK    3  A    between atoms: C2_3  and  C3_5
REMARK    4  A    between atoms: C6_8  and  N1_9
REMARK    5  A    between atoms: C7_10  and  C8_12
REMARK    6  A    between atoms: C11_15  and  O4_16
REMARK    7  A    between atoms: O4_16  and  C12_17
REMARK    8  A    between atoms: C13_18  and  N2_19
REMARK                            x       y       z     vdW  Elec       q    Type
REMARK                         _______ _______ _______ _____ _____    ______ ____
ROOT
ATOM      1  N1  UNL     1      21.642   3.452  24.318  0.00  0.00    -0.282 N 
ATOM      2  C7  UNL     1      20.847   4.629  24.096  0.00  0.00    +0.248 C 
ATOM      3  O3  UNL     1      19.871   4.877  24.859  0.00  0.00    -0.270 OA
ATOM      4  H6  UNL     1      22.100   3.007  23.491  0.00  0.00    +0.155 HD
ENDROOT
BRANCH   1   8
ATOM      5  C3  UNL     1      21.866   1.347  28.017  0.00  0.00    +0.059 A 
ATOM      6  C4  UNL     1      20.926   0.986  27.037  0.00  0.00    +0.017 A 
ATOM      7  C5  UNL     1      20.857   1.685  25.828  0.00  0.00    +0.024 A 
ATOM      8  C6  UNL     1      21.717   2.764  25.579  0.00  0.00    +0.034 A 
ATOM      9  C16 UNL     1      22.673   3.114  26.549  0.00  0.00    +0.024 A 
ATOM     10  C17 UNL     1      22.742   2.416  27.758  0.00  0.00    +0.017 A 
BRANCH   5  11
ATOM     11  C2  UNL     1      21.943   0.612  29.299  0.00  0.00    +0.339 C 
ATOM     12  O2  UNL     1      21.751   1.219  30.389  0.00  0.00    -0.245 OA
BRANCH  11  14
ATOM     13  C1  UNL     1      23.487  -1.280  28.892  0.00  0.00    +0.280 C 
ATOM     14  O1  UNL     1      22.230  -0.757  29.302  0.00  0.00    -0.464 OA
ENDBRANCH  11  14
ENDBRANCH   5  11
ENDBRANCH   1   8
BRANCH   2  15
ATOM     15  C8  UNL     1      21.125   5.530  22.951  0.00  0.00    +0.039 A 
ATOM     16  C9  UNL     1      22.411   6.051  22.743  0.00  0.00    +0.017 A 
ATOM     17  C10 UNL     1      22.667   6.900  21.667  0.00  0.00    +0.048 A 
ATOM     18  C11 UNL     1      21.639   7.259  20.775  0.00  0.00    +0.146 A 
ATOM     19  C13 UNL     1      20.337   6.748  20.977  0.00  0.00    +0.111 A 
ATOM     20  C15 UNL     1      20.095   5.891  22.068  0.00  0.00    +0.044 A 
BRANCH  19  21
ATOM     21  N2  UNL     1      19.263   7.087  20.075  0.00  0.00    -0.197 N 
ATOM     22  C14 UNL     1      18.848   6.419  18.982  0.00  0.00    +0.251 A 
ATOM     23  N3  UNL     1      17.823   7.076  18.409  0.00  0.00    -0.116 NA
ATOM     24  N4  UNL     1      17.628   8.149  19.165  0.00  0.00    -0.023 NA
ATOM     25  N5  UNL     1      18.493   8.158  20.166  0.00  0.00    -0.039 NA
ENDBRANCH  19  21
BRANCH  18  26
ATOM     26  O4  UNL     1      21.875   8.128  19.697  0.00  0.00    -0.493 OA
ATOM     27  C12 UNL     1      22.077   9.533  19.815  0.00  0.00    +0.277 C 
ENDBRANCH  18  26
ENDBRANCH   2  15
TORSDOF 6
ENDMDL
MODEL 6
REMARK VINA RESULT:    -5.756      7.041     10.654
REMARK INTER + INTRA:          -8.509
REMARK INTER:                  -7.844
REMARK INTRA:                  -0.665
REMARK UNBOUND:                -0.735
REMARK  Name = /home/qwerty/github/datacon2025hack/step_04_hit_selection/docking/ligands/lig_60.pdb
REMARK  8 active torsions:
REMARK  status: ('A' for Active; 'I' for Inactive)
REMARK    1  A    between atoms: C1_1  and  O1_2
REMARK    2  A    between atoms: O1_2  and  C2_3
REMARK    3  A    between atoms: C2_3  and  C3_5
REMARK    4  A    between atoms: C6_8  and  N1_9
REMARK    5  A    between atoms: C7_10  and  C8_12
REMARK    6  A    between atoms: C11_15  and  O4_16
REMARK    7  A    between atoms: O4_16  and  C12_17
REMARK    8  A    between atoms: C13_18  and  N2_19
REMARK                            x       y       z     vdW  Elec       q    Type
REMARK                         _______ _______ _______ _____ _____    ______ ____
ROOT
ATOM      1  N1  UNL     1      18.815   1.911  33.134  0.00  0.00    -0.282 N 
ATOM      2  C7  UNL     1      18.940   0.766  32.272  0.00  0.00    +0.248 C 
ATOM      3  O3  UNL     1      18.553  -0.365  32.677  0.00  0.00    -0.270 OA
ATOM      4  H6  UNL     1      19.510   2.684  33.026  0.00  0.00    +0.155 HD
ENDROOT
BRANCH   1   8
ATOM      5  C3  UNL     1      16.121   2.189  36.425  0.00  0.00    +0.059 A 
ATOM      6  C4  UNL     1      17.510   2.139  36.631  0.00  0.00    +0.017 A 
ATOM      7  C5  UNL     1      18.387   2.044  35.545  0.00  0.00    +0.024 A 
ATOM      8  C6  UNL     1      17.893   1.985  34.235  0.00  0.00    +0.034 A 
ATOM      9  C16 UNL     1      16.504   2.056  34.024  0.00  0.00    +0.024 A 
ATOM     10  C17 UNL     1      15.628   2.151  35.109  0.00  0.00    +0.017 A 
BRANCH   5  11
ATOM     11  C2  UNL     1      15.189   2.289  37.569  0.00  0.00    +0.339 C 
ATOM     12  O2  UNL     1      14.614   3.383  37.824  0.00  0.00    -0.245 OA
BRANCH  11  14
ATOM     13  C1  UNL     1      14.740  -0.132  37.833  0.00  0.00    +0.280 C 
ATOM     14  O1  UNL     1      14.946   1.169  38.371  0.00  0.00    -0.464 OA
ENDBRANCH  11  14
ENDBRANCH   5  11
ENDBRANCH   1   8
BRANCH   2  15
ATOM     15  C8  UNL     1      19.565   0.888  30.932  0.00  0.00    +0.039 A 
ATOM     16  C9  UNL     1      18.887   1.515  29.877  0.00  0.00    +0.017 A 
ATOM     17  C10 UNL     1      19.477   1.623  28.619  0.00  0.00    +0.048 A 
ATOM     18  C11 UNL     1      20.762   1.099  28.380  0.00  0.00    +0.146 A 
ATOM     19  C13 UNL     1      21.455   0.459  29.433  0.00  0.00    +0.111 A 
ATOM     20  C15 UNL     1      20.844   0.357  30.698  0.00  0.00    +0.044 A 
BRANCH  19  21
ATOM     21  N2  UNL     1      22.776  -0.080  29.225  0.00  0.00    -0.197 N 
ATOM     22  C14 UNL     1      23.960   0.557  29.306  0.00  0.00    +0.251 A 
ATOM     23  N3  UNL     1      24.959  -0.301  29.029  0.00  0.00    -0.116 NA
ATOM     24  N4  UNL     1      24.365  -1.460  28.775  0.00  0.00    -0.023 NA
ATOM     25  N5  UNL     1      23.053  -1.330  28.893  0.00  0.00    -0.039 NA
ENDBRANCH  19  21
BRANCH  18  26
ATOM     26  O4  UNL     1      21.364   1.184  27.114  0.00  0.00    -0.493 OA
ATOM     27  C12 UNL     1      20.717   1.658  25.937  0.00  0.00    +0.277 C 
ENDBRANCH  18  26
ENDBRANCH   2  15
TORSDOF 6
ENDMDL
MODEL 7
REMARK VINA RESULT:    -5.701      7.646     11.381
REMARK INTER + INTRA:          -8.435
REMARK INTER:                  -7.773
REMARK INTRA:                  -0.662
REMARK UNBOUND:                -0.735
REMARK  Name = /home/qwerty/github/datacon2025hack/step_04_hit_selection/docking/ligands/lig_60.pdb
REMARK  8 active torsions:
REMARK  status: ('A' for Active; 'I' for Inactive)
REMARK    1  A    between atoms: C1_1  and  O1_2
REMARK    2  A    between atoms: O1_2  and  C2_3
REMARK    3  A    between atoms: C2_3  and  C3_5
REMARK    4  A    between atoms: C6_8  and  N1_9
REMARK    5  A    between atoms: C7_10  and  C8_12
REMARK    6  A    between atoms: C11_15  and  O4_16
REMARK    7  A    between atoms: O4_16  and  C12_17
REMARK    8  A    between atoms: C13_18  and  N2_19
REMARK                            x       y       z     vdW  Elec       q    Type
REMARK                         _______ _______ _______ _____ _____    ______ ____
ROOT
ATOM      1  N1  UNL     1      17.041   7.361  18.918  0.00  0.00    -0.282 N 
ATOM      2  C7  UNL     1      17.147   6.359  19.943  0.00  0.00    +0.248 C 
ATOM      3  O3  UNL     1      18.120   6.389  20.748  0.00  0.00    -0.270 OA
ATOM      4  H6  UNL     1      16.568   7.099  18.024  0.00  0.00    +0.155 HD
ENDROOT
BRANCH   1   8
ATOM      5  C3  UNL     1      18.908  11.182  19.195  0.00  0.00    +0.059 A 
ATOM      6  C4  UNL     1      17.544  11.022  19.494  0.00  0.00    +0.017 A 
ATOM      7  C5  UNL     1      16.939   9.764  19.397  0.00  0.00    +0.024 A 
ATOM      8  C6  UNL     1      17.680   8.647  18.988  0.00  0.00    +0.034 A 
ATOM      9  C16 UNL     1      19.050   8.801  18.709  0.00  0.00    +0.024 A 
ATOM     10  C17 UNL     1      19.656  10.057  18.805  0.00  0.00    +0.017 A 
BRANCH   5  11
ATOM     11  C2  UNL     1      19.553  12.509  19.295  0.00  0.00    +0.339 C 
ATOM     12  O2  UNL     1      20.435  12.850  18.459  0.00  0.00    -0.245 OA
BRANCH  11  14
ATOM     13  C1  UNL     1      20.046  13.705  21.406  0.00  0.00    +0.280 C 
ATOM     14  O1  UNL     1      19.185  13.388  20.319  0.00  0.00    -0.464 OA
ENDBRANCH  11  14
ENDBRANCH   5  11
ENDBRANCH   1   8
BRANCH   2  15
ATOM     15  C8  UNL     1      16.158   5.258  20.037  0.00  0.00    +0.039 A 
ATOM     16  C9  UNL     1      16.532   3.931  19.778  0.00  0.00    +0.017 A 
ATOM     17  C10 UNL     1      15.597   2.900  19.864  0.00  0.00    +0.048 A 
ATOM     18  C11 UNL     1      14.258   3.171  20.203  0.00  0.00    +0.146 A 
ATOM     19  C13 UNL     1      13.865   4.504  20.459  0.00  0.00    +0.111 A 
ATOM     20  C15 UNL     1      14.821   5.534  20.368  0.00  0.00    +0.044 A 
BRANCH  19  21
ATOM     21  N2  UNL     1      12.503   4.815  20.818  0.00  0.00    -0.197 N 
ATOM     22  C14 UNL     1      11.489   5.182  20.011  0.00  0.00    +0.251 A 
ATOM     23  N3  UNL     1      10.379   5.392  20.741  0.00  0.00    -0.116 NA
ATOM     24  N4  UNL     1      10.735   5.154  21.997  0.00  0.00    -0.023 NA
ATOM     25  N5  UNL     1      12.011   4.807  22.046  0.00  0.00    -0.039 NA
ENDBRANCH  19  21
BRANCH  18  26
ATOM     26  O4  UNL     1      13.299   2.147  20.276  0.00  0.00    -0.493 OA
ATOM     27  C12 UNL     1      13.153   1.249  21.372  0.00  0.00    +0.277 C 
ENDBRANCH  18  26
ENDBRANCH   2  15
TORSDOF 6
ENDMDL
MODEL 8
REMARK VINA RESULT:    -5.671      8.999     12.686
REMARK INTER + INTRA:          -8.395
REMARK INTER:                  -7.706
REMARK INTRA:                  -0.689
REMARK UNBOUND:                -0.735
REMARK  Name = /home/qwerty/github/datacon2025hack/step_04_hit_selection/docking/ligands/lig_60.pdb
REMARK  8 active torsions:
REMARK  status: ('A' for Active; 'I' for Inactive)
REMARK    1  A    between atoms: C1_1  and  O1_2
REMARK    2  A    between atoms: O1_2  and  C2_3
REMARK    3  A    between atoms: C2_3  and  C3_5
REMARK    4  A    between atoms: C6_8  and  N1_9
REMARK    5  A    between atoms: C7_10  and  C8_12
REMARK    6  A    between atoms: C11_15  and  O4_16
REMARK    7  A    between atoms: O4_16  and  C12_17
REMARK    8  A    between atoms: C13_18  and  N2_19
REMARK                            x       y       z     vdW  Elec       q    Type
REMARK                         _______ _______ _______ _____ _____    ______ ____
ROOT
ATOM      1  N1  UNL     1      20.656   2.877  33.461  0.00  0.00    -0.282 N 
ATOM      2  C7  UNL     1      19.702   3.953  33.476  0.00  0.00    +0.248 C 
ATOM      3  O3  UNL     1      19.429   4.561  32.404  0.00  0.00    -0.270 OA
ATOM      4  H6  UNL     1      21.212   2.703  34.328  0.00  0.00    +0.155 HD
ENDROOT
BRANCH   1   8
ATOM      5  C3  UNL     1      21.747   0.661  29.989  0.00  0.00    +0.059 A 
ATOM      6  C4  UNL     1      22.485   1.789  30.387  0.00  0.00    +0.017 A 
ATOM      7  C5  UNL     1      22.118   2.512  31.526  0.00  0.00    +0.024 A 
ATOM      8  C6  UNL     1      21.000   2.131  32.281  0.00  0.00    +0.034 A 
ATOM      9  C16 UNL     1      20.272   0.990  31.897  0.00  0.00    +0.024 A 
ATOM     10  C17 UNL     1      20.639   0.267  30.759  0.00  0.00    +0.017 A 
BRANCH   5  11
ATOM     11  C2  UNL     1      22.131  -0.108  28.785  0.00  0.00    +0.339 C 
ATOM     12  O2  UNL     1      21.761   0.279  27.641  0.00  0.00    -0.245 OA
BRANCH  11  14
ATOM     13  C1  UNL     1      24.327  -1.243  28.921  0.00  0.00    +0.280 C 
ATOM     14  O1  UNL     1      22.905  -1.266  28.913  0.00  0.00    -0.464 OA
ENDBRANCH  11  14
ENDBRANCH   5  11
ENDBRANCH   1   8
BRANCH   2  15
ATOM     15  C8  UNL     1      19.071   4.393  34.745  0.00  0.00    +0.039 A 
ATOM     16  C9  UNL     1      18.412   3.475  35.576  0.00  0.00    +0.017 A 
ATOM     17  C10 UNL     1      17.818   3.894  36.765  0.00  0.00    +0.048 A 
ATOM     18  C11 UNL     1      17.861   5.247  37.152  0.00  0.00    +0.146 A 
ATOM     19  C13 UNL     1      18.516   6.185  36.321  0.00  0.00    +0.111 A 
ATOM     20  C15 UNL     1      19.111   5.745  35.123  0.00  0.00    +0.044 A 
BRANCH  19  21
ATOM     21  N2  UNL     1      18.587   7.576  36.693  0.00  0.00    -0.197 N 
ATOM     22  C14 UNL     1      17.815   8.594  36.268  0.00  0.00    +0.251 A 
ATOM     23  N3  UNL     1      18.214   9.741  36.848  0.00  0.00    -0.116 NA
ATOM     24  N4  UNL     1      19.237   9.405  37.622  0.00  0.00    -0.023 NA
ATOM     25  N5  UNL     1      19.463   8.104  37.531  0.00  0.00    -0.039 NA
ENDBRANCH  19  21
BRANCH  18  26
ATOM     26  O4  UNL     1      17.252   5.689  38.338  0.00  0.00    -0.493 OA
ATOM     27  C12 UNL     1      15.852   5.652  38.595  0.00  0.00    +0.277 C 
ENDBRANCH  18  26
ENDBRANCH   2  15
TORSDOF 6
ENDMDL
MODEL 9
REMARK VINA RESULT:    -5.554      2.528      3.317
REMARK INTER + INTRA:          -8.238
REMARK INTER:                  -7.611
REMARK INTRA:                  -0.627
REMARK UNBOUND:                -0.735
REMARK  Name = /home/qwerty/github/datacon2025hack/step_04_hit_selection/docking/ligands/lig_60.pdb
REMARK  8 active torsions:
REMARK  status: ('A' for Active; 'I' for Inactive)
REMARK    1  A    between atoms: C1_1  and  O1_2
REMARK    2  A    between atoms: O1_2  and  C2_3
REMARK    3  A    between atoms: C2_3  and  C3_5
REMARK    4  A    between atoms: C6_8  and  N1_9
REMARK    5  A    between atoms: C7_10  and  C8_12
REMARK    6  A    between atoms: C11_15  and  O4_16
REMARK    7  A    between atoms: O4_16  and  C12_17
REMARK    8  A    between atoms: C13_18  and  N2_19
REMARK                            x       y       z     vdW  Elec       q    Type
REMARK                         _______ _______ _______ _____ _____    ______ ____
ROOT
ATOM      1  N1  UNL     1      21.793   4.399  23.616  0.00  0.00    -0.282 N 
ATOM      2  C7  UNL     1      21.378   5.775  23.641  0.00  0.00    +0.248 C 
ATOM      3  O3  UNL     1      20.572   6.169  24.529  0.00  0.00    -0.270 OA
ATOM      4  H6  UNL     1      22.044   3.979  22.693  0.00  0.00    +0.155 HD
ENDROOT
BRANCH   1   8
ATOM      5  C3  UNL     1      21.618   1.873  27.044  0.00  0.00    +0.059 A 
ATOM      6  C4  UNL     1      22.568   2.905  26.956  0.00  0.00    +0.017 A 
ATOM      7  C5  UNL     1      22.619   3.727  25.826  0.00  0.00    +0.024 A 
ATOM      8  C6  UNL     1      21.734   3.526  24.758  0.00  0.00    +0.034 A 
ATOM      9  C16 UNL     1      20.770   2.507  24.852  0.00  0.00    +0.024 A 
ATOM     10  C17 UNL     1      20.717   1.685  25.981  0.00  0.00    +0.017 A 
BRANCH   5  11
ATOM     11  C2  UNL     1      21.558   1.000  28.237  0.00  0.00    +0.339 C 
ATOM     12  O2  UNL     1      20.557   1.044  29.004  0.00  0.00    -0.245 OA
BRANCH  11  14
ATOM     13  C1  UNL     1      23.777   0.526  29.228  0.00  0.00    +0.280 C 
ATOM     14  O1  UNL     1      22.614   0.125  28.515  0.00  0.00    -0.464 OA
ENDBRANCH  11  14
ENDBRANCH   5  11
ENDBRANCH   1   8
BRANCH   2  15
ATOM     15  C8  UNL     1      21.845   6.729  22.604  0.00  0.00    +0.039 A 
ATOM     16  C9  UNL     1      23.174   6.712  22.159  0.00  0.00    +0.017 A 
ATOM     17  C10 UNL     1      23.608   7.612  21.187  0.00  0.00    +0.048 A 
ATOM     18  C11 UNL     1      22.725   8.562  20.641  0.00  0.00    +0.146 A 
ATOM     19  C13 UNL     1      21.383   8.596  21.086  0.00  0.00    +0.111 A 
ATOM     20  C15 UNL     1      20.960   7.679  22.068  0.00  0.00    +0.044 A 
BRANCH  19  21
ATOM     21  N2  UNL     1      20.449   9.549  20.540  0.00  0.00    -0.197 N 
ATOM     22  C14 UNL     1      20.151  10.781  20.995  0.00  0.00    +0.251 A 
ATOM     23  N3  UNL     1      19.218  11.345  20.206  0.00  0.00    -0.116 NA
ATOM     24  N4  UNL     1      18.953  10.438  19.275  0.00  0.00    -0.023 NA
ATOM     25  N5  UNL     1      19.691   9.358  19.473  0.00  0.00    -0.039 NA
ENDBRANCH  19  21
BRANCH  18  26
ATOM     26  O4  UNL     1      23.150   9.488  19.675  0.00  0.00    -0.493 OA
ATOM     27  C12 UNL     1      23.919  10.655  19.951  0.00  0.00    +0.277 C 
ENDBRANCH  18  26
ENDBRANCH   2  15
TORSDOF 6
ENDMDL
