REMARK  Name = /home/qwerty/github/datacon2025hack/step_04_hit_selection/docking/ligands/lig_464.pdb
REMARK  4 active torsions:
REMARK  status: ('A' for Active; 'I' for Inactive)
REMARK    1  A    between atoms: N1_3  and  C2_4
REMARK    2  A    between atoms: N2_11  and  C8_12
REMARK    3  A    between atoms: C11_16  and  C12_18
REMARK    4  A    between atoms: N6_29  and  C19_30
REMARK                            x       y       z     vdW  Elec       q    Type
REMARK                         _______ _______ _______ _____ _____    ______ ____
ROOT
ATOM      1  C8  UNL     1       3.365  -0.805  -1.032  0.00  0.00    +0.093 C 
ATOM      2  C9  UNL     1       2.799   0.440  -0.345  0.00  0.00    +0.043 C 
ATOM      3  C10 UNL     1       1.286   0.281  -0.397  0.00  0.00    +0.110 C 
ATOM      4  N3  UNL     1       1.048  -1.136  -0.624  0.00  0.00    -0.296 N 
ATOM      5  C11 UNL     1      -0.260  -1.706  -0.815  0.00  0.00    +0.248 C 
ATOM      6  O2  UNL     1      -0.395  -2.715  -1.558  0.00  0.00    -0.270 OA
ATOM      7  C25 UNL     1       2.273  -1.869  -0.900  0.00  0.00    +0.130 C 
ENDROOT
BRANCH   5   8
ATOM      8  C12 UNL     1      -1.457  -1.124  -0.175  0.00  0.00    +0.056 A 
ATOM      9  C13 UNL     1      -2.651  -1.002  -0.891  0.00  0.00    +0.126 A 
ATOM     10  N4  UNL     1      -3.754  -0.478  -0.298  0.00  0.00    -0.236 NA
ATOM     11  C14 UNL     1      -3.770  -0.060   0.999  0.00  0.00    +0.150 A 
ATOM     12  C15 UNL     1      -2.590  -0.189   1.763  0.00  0.00    +0.083 A 
ATOM     13  C16 UNL     1      -1.438  -0.732   1.169  0.00  0.00    +0.031 A 
ATOM     14  C17 UNL     1      -2.607   0.229   3.096  0.00  0.00    +0.263 A 
ATOM     15  O3  UNL     1      -1.578   0.129   3.819  0.00  0.00    -0.267 OA
ATOM     16  N5  UNL     1      -3.742   0.750   3.620  0.00  0.00    -0.274 N 
ATOM     17  C18 UNL     1      -4.877   0.878   2.881  0.00  0.00    +0.331 A 
ATOM     18  O4  UNL     1      -5.898   1.372   3.436  0.00  0.00    -0.246 OA
ATOM     19  N6  UNL     1      -4.913   0.477   1.560  0.00  0.00    -0.275 N 
ATOM     20  H14 UNL     1      -3.745   1.061   4.619  0.00  0.00    +0.173 HD
BRANCH  19  21
ATOM     21  C19 UNL     1      -6.175   0.637   0.778  0.00  0.00    +0.094 C 
ATOM     22  C20 UNL     1      -6.007   1.611  -0.410  0.00  0.00    +0.025 C 
ATOM     23  C21 UNL     1      -7.337   1.792  -1.155  0.00  0.00    +0.002 C 
ATOM     24  C22 UNL     1      -7.902   0.441  -1.613  0.00  0.00    +0.000 C 
ATOM     25  C23 UNL     1      -8.082  -0.516  -0.426  0.00  0.00    +0.002 C 
ATOM     26  C24 UNL     1      -6.760  -0.720   0.327  0.00  0.00    +0.025 C 
ENDBRANCH  19  21
ENDBRANCH   5   8
BRANCH   1  30
ATOM     27  O1  UNL     1       5.831   0.591  -1.273  0.00  0.00    -0.253 OA
ATOM     28  C1  UNL     1       5.837  -0.464  -0.580  0.00  0.00    +0.304 C 
ATOM     29  N1  UNL     1       7.055  -0.933   0.018  0.00  0.00    -0.269 N 
ATOM     30  N2  UNL     1       4.632  -1.227  -0.426  0.00  0.00    -0.295 N 
ATOM     31  H1  UNL     1       7.080  -1.925   0.353  0.00  0.00    +0.156 HD
ATOM     32  H6  UNL     1       4.688  -2.132   0.093  0.00  0.00    +0.151 HD
BRANCH  29  33
ATOM     33  C2  UNL     1       8.274  -0.171   0.076  0.00  0.00    +0.035 A 
ATOM     34  C3  UNL     1       8.262   1.225   0.254  0.00  0.00    +0.026 A 
ATOM     35  C4  UNL     1       9.463   1.937   0.328  0.00  0.00    +0.040 A 
ATOM     36  C5  UNL     1      10.683   1.263   0.243  0.00  0.00    +0.124 A 
ATOM     37  F1  UNL     1      11.847   1.954   0.316  0.00  0.00    -0.205 F 
ATOM     38  C6  UNL     1      10.705  -0.127   0.089  0.00  0.00    +0.040 A 
ATOM     39  C7  UNL     1       9.507  -0.841   0.013  0.00  0.00    +0.026 A 
ENDBRANCH  29  33
ENDBRANCH   1  30
TORSDOF 4
