REMARK  Name = /home/qwerty/github/datacon2025hack/step_04_hit_selection/docking/ligands/lig_137.pdb
REMARK  4 active torsions:
REMARK  status: ('A' for Active; 'I' for Inactive)
REMARK    1  A    between atoms: C1_1  and  N1_2
REMARK    2  A    between atoms: C3_4  and  C4_5
REMARK    3  A    between atoms: N5_16  and  C10_17
REMARK    4  A    between atoms: C10_17  and  C11_18
REMARK                            x       y       z     vdW  Elec       q    Type
REMARK                         _______ _______ _______ _____ _____    ______ ____
ROOT
ATOM      1  C4  UNL     1       1.524  -1.229   0.614  0.00  0.00    +0.168 A 
ATOM      2  N2  UNL     1       1.496  -2.355   1.355  0.00  0.00    -0.127 NA
ATOM      3  N3  UNL     1       0.293  -2.888   1.214  0.00  0.00    -0.113 NA
ATOM      4  C5  UNL     1      -0.404  -2.068   0.406  0.00  0.00    +0.220 A 
ATOM      5  N4  UNL     1      -1.753  -2.342  -0.004  0.00  0.00    -0.294 N 
ATOM      6  C6  UNL     1      -2.862  -1.428   0.218  0.00  0.00    +0.114 C 
ATOM      7  C7  UNL     1      -4.121  -2.283   0.150  0.00  0.00    +0.096 C 
ATOM      8  C8  UNL     1      -3.700  -3.579  -0.538  0.00  0.00    +0.266 C 
ATOM      9  F1  UNL     1      -4.372  -4.667  -0.005  0.00  0.00    -0.204 F 
ATOM     10  F2  UNL     1      -3.958  -3.496  -1.896  0.00  0.00    -0.204 F 
ATOM     11  C9  UNL     1      -2.199  -3.692  -0.300  0.00  0.00    +0.183 C 
ATOM     12  N5  UNL     1       0.337  -1.013  -0.002  0.00  0.00    -0.295 N 
ENDROOT
BRANCH   1  16
ATOM     13  C1  UNL     1       5.375   1.449  -1.122  0.00  0.00    +0.172 C 
ATOM     14  N1  UNL     1       4.427   0.797  -0.230  0.00  0.00    -0.274 N 
ATOM     15  C2  UNL     1       3.293   0.176  -0.606  0.00  0.00    +0.119 A 
ATOM     16  C3  UNL     1       2.724  -0.382   0.520  0.00  0.00    +0.057 A 
ATOM     17  C16 UNL     1       3.601  -0.095   1.549  0.00  0.00    +0.146 A 
ATOM     18  N6  UNL     1       4.632   0.627   1.067  0.00  0.00    -0.179 NA
ENDBRANCH   1  16
BRANCH  12  19
ATOM     19  C10 UNL     1      -0.083   0.118  -0.838  0.00  0.00    +0.130 C 
BRANCH  19  20
ATOM     20  C11 UNL     1      -0.622   1.278   0.023  0.00  0.00    +0.012 C 
ATOM     21  C12 UNL     1       0.466   2.057   0.750  0.00  0.00    +0.008 C 
ATOM     22  C13 UNL     1      -0.136   3.429   1.019  0.00  0.00    +0.037 C 
ATOM     23  C14 UNL     1      -1.248   3.626  -0.014  0.00  0.00    +0.166 C 
ATOM     24  F3  UNL     1      -2.451   3.884   0.624  0.00  0.00    -0.245 F 
ATOM     25  C15 UNL     1      -1.345   2.328  -0.811  0.00  0.00    +0.042 C 
ENDBRANCH  19  20
ENDBRANCH  12  19
TORSDOF 3
