REMARK  Name = /home/qwerty/github/datacon2025hack/step_04_hit_selection/docking/ligands/lig_59.pdb
REMARK  5 active torsions:
REMARK  status: ('A' for Active; 'I' for Inactive)
REMARK    1  A    between atoms: C1_1  and  C2_2
REMARK    2  A    between atoms: C2_2  and  C3_3
REMARK    3  A    between atoms: C2_2  and  C4_4
REMARK    4  A    between atoms: C5_7  and  C6_8
REMARK    5  A    between atoms: N3_10  and  C7_11
REMARK                            x       y       z     vdW  Elec       q    Type
REMARK                         _______ _______ _______ _____ _____    ______ ____
ROOT
ATOM      1  C6  UNL     1      -0.114  -0.836  -0.959  0.00  0.00    +0.269 C 
ATOM      2  O1  UNL     1       0.267  -1.887  -1.542  0.00  0.00    -0.268 OA
ATOM      3  N3  UNL     1       0.811   0.240  -0.744  0.00  0.00    -0.280 N 
ATOM      4  H9  UNL     1       0.436   1.215  -0.769  0.00  0.00    +0.155 HD
ENDROOT
BRANCH   3   5
ATOM      5  C7  UNL     1       2.236   0.065  -0.658  0.00  0.00    +0.034 A 
ATOM      6  C8  UNL     1       2.802  -1.140  -0.158  0.00  0.00    +0.025 A 
ATOM      7  C9  UNL     1       4.197  -1.290  -0.056  0.00  0.00    +0.028 A 
ATOM      8  C10 UNL     1       4.998  -0.221  -0.447  0.00  0.00    +0.047 A 
ATOM      9  N4  UNL     1       6.339  -0.154  -0.425  0.00  0.00    -0.361 N 
ATOM     10  C11 UNL     1       6.655   1.079  -0.886  0.00  0.00    +0.083 A 
ATOM     11  C12 UNL     1       5.506   1.798  -1.200  0.00  0.00    +0.027 A 
ATOM     12  C13 UNL     1       4.460   0.948  -0.912  0.00  0.00    +0.001 A 
ATOM     13  C14 UNL     1       3.084   1.132  -1.026  0.00  0.00    +0.033 A 
ATOM     14  H12 UNL     1       7.005  -0.896  -0.115  0.00  0.00    +0.165 HD
ENDBRANCH   3   5
BRANCH   1  18
ATOM     15  C4  UNL     1      -3.428  -0.161   0.369  0.00  0.00    +0.053 A 
ATOM     16  N1  UNL     1      -3.650  -1.122  -0.548  0.00  0.00    -0.280 N 
ATOM     17  N2  UNL     1      -2.507  -1.460  -1.122  0.00  0.00    -0.168 NA
ATOM     18  C5  UNL     1      -1.530  -0.706  -0.578  0.00  0.00    +0.161 A 
ATOM     19  C15 UNL     1      -2.076   0.131   0.388  0.00  0.00    +0.071 A 
ATOM     20 BR1  UNL     1      -1.170   1.301   1.607  0.00  0.00    -0.046 Br
ATOM     21  H8  UNL     1      -4.567  -1.566  -0.774  0.00  0.00    +0.189 HD
BRANCH  15  23
ATOM     22  C1  UNL     1      -5.640   1.005   0.444  0.00  0.00    +0.014 C 
ATOM     23  C2  UNL     1      -4.490   0.419   1.270  0.00  0.00    +0.032 C 
ATOM     24  C3  UNL     1      -5.000  -0.646   2.244  0.00  0.00    +0.014 C 
ENDBRANCH  15  23
ENDBRANCH   1  18
TORSDOF 3
