REMARK  Name = /home/qwerty/github/datacon2025hack/step_04_hit_selection/docking/ligands/lig_415.pdb
REMARK  2 active torsions:
REMARK  status: ('A' for Active; 'I' for Inactive)
REMARK    1  A    between atoms: N1_3  and  C2_4
REMARK    2  A    between atoms: N4_23  and  C16_24
REMARK                            x       y       z     vdW  Elec       q    Type
REMARK                         _______ _______ _______ _____ _____    ______ ____
ROOT
ATOM      1  O1  UNL     1      -1.772  -0.365   2.090  0.00  0.00    -0.252 OA
ATOM      2  C1  UNL     1      -1.656   0.303   1.026  0.00  0.00    +0.306 C 
ATOM      3  N1  UNL     1      -2.811   0.538   0.203  0.00  0.00    -0.269 N 
ATOM      4  N2  UNL     1      -0.376   0.861   0.669  0.00  0.00    -0.285 N 
ATOM      5  C9  UNL     1      -0.102   1.271  -0.715  0.00  0.00    +0.112 C 
ATOM      6  C10 UNL     1       1.341   0.931  -1.106  0.00  0.00    +0.054 C 
ATOM      7  C11 UNL     1       2.370   1.429  -0.067  0.00  0.00    +0.115 C 
ATOM      8  C12 UNL     1       1.996   0.953   1.355  0.00  0.00    +0.054 C 
ATOM      9  C13 UNL     1       0.549   1.299   1.724  0.00  0.00    +0.112 C 
ATOM     10  C14 UNL     1       2.550   2.915  -0.129  0.00  0.00    +0.238 C 
ATOM     11  O4  UNL     1       1.651   3.769   0.095  0.00  0.00    -0.273 OA
ATOM     12  N3  UNL     1       3.872   3.278  -0.478  0.00  0.00    -0.298 N 
ATOM     13  C15 UNL     1       4.650   2.071  -0.671  0.00  0.00    +0.214 C 
ATOM     14  N4  UNL     1       3.722   0.969  -0.423  0.00  0.00    -0.300 N 
ATOM     15  H1  UNL     1      -2.825   1.403  -0.383  0.00  0.00    +0.156 HD
ATOM     16  H15 UNL     1       4.228   4.254  -0.580  0.00  0.00    +0.150 HD
ENDROOT
BRANCH   3  17
ATOM     17  C2  UNL     1      -4.003  -0.265   0.246  0.00  0.00    +0.038 A 
ATOM     18  C3  UNL     1      -3.947  -1.654   0.544  0.00  0.00    +0.027 A 
ATOM     19  C4  UNL     1      -5.121  -2.430   0.558  0.00  0.00    +0.051 A 
ATOM     20  C5  UNL     1      -6.322  -1.797   0.259  0.00  0.00    +0.166 A 
ATOM     21  C6  UNL     1      -6.382  -0.476  -0.043  0.00  0.00    +0.168 A 
ATOM     22  C7  UNL     1      -5.246   0.327  -0.068  0.00  0.00    +0.073 A 
ATOM     23  O2  UNL     1      -7.692  -0.122  -0.302  0.00  0.00    -0.453 OA
ATOM     24  C8  UNL     1      -8.506  -1.294  -0.152  0.00  0.00    +0.466 C 
ATOM     25  O3  UNL     1      -7.592  -2.340   0.205  0.00  0.00    -0.453 OA
ENDBRANCH   3  17
BRANCH  14  26
ATOM     26  C16 UNL     1       4.136  -0.401  -0.496  0.00  0.00    +0.032 A 
ATOM     27  C17 UNL     1       4.025  -1.107  -1.702  0.00  0.00    +0.026 A 
ATOM     28  C18 UNL     1       4.446  -2.438  -1.777  0.00  0.00    +0.040 A 
ATOM     29  C19 UNL     1       4.989  -3.066  -0.652  0.00  0.00    +0.124 A 
ATOM     30  F1  UNL     1       5.398  -4.356  -0.726  0.00  0.00    -0.205 F 
ATOM     31  C20 UNL     1       5.117  -2.359   0.549  0.00  0.00    +0.040 A 
ATOM     32  C21 UNL     1       4.696  -1.028   0.626  0.00  0.00    +0.026 A 
ENDBRANCH  14  26
TORSDOF 2
