REMARK  Name = /home/qwerty/github/datacon2025hack/step_04_hit_selection/docking/ligands/lig_375.pdb
REMARK  6 active torsions:
REMARK  status: ('A' for Active; 'I' for Inactive)
REMARK    1  A    between atoms: C1_1  and  O1_2
REMARK    2  A    between atoms: O1_2  and  C2_3
REMARK    3  A    between atoms: C4_5  and  C5_6
REMARK    4  A    between atoms: C8_11  and  N3_12
REMARK    5  A    between atoms: C9_13  and  C10_15
REMARK    6  A    between atoms: C14_22  and  C15_23
REMARK                            x       y       z     vdW  Elec       q    Type
REMARK                         _______ _______ _______ _____ _____    ______ ____
ROOT
ATOM      1  C2  UNL     1      -3.445   1.153   0.244  0.00  0.00    +0.219 A 
ATOM      2  C3  UNL     1      -4.107   0.675  -0.886  0.00  0.00    +0.090 A 
ATOM      3  C4  UNL     1      -3.532  -0.377  -1.603  0.00  0.00    +0.047 A 
ATOM      4  C5  UNL     1      -4.196  -0.912  -2.831  0.00  0.00    +0.066 C 
ATOM      5  N1  UNL     1      -2.345  -0.898  -1.194  0.00  0.00    -0.219 NA
ATOM      6  C6  UNL     1      -1.701  -0.425  -0.091  0.00  0.00    +0.221 A 
ATOM      7  N2  UNL     1      -0.441  -1.000   0.324  0.00  0.00    -0.295 N 
ATOM      8  C7  UNL     1       0.144  -0.624   1.624  0.00  0.00    +0.130 C 
ATOM      9  C8  UNL     1       1.683  -0.636   1.562  0.00  0.00    +0.091 C 
ATOM     10  C12 UNL     1       2.243  -1.977   1.016  0.00  0.00    +0.025 C 
ATOM     11  C13 UNL     1       1.174  -2.895   0.401  0.00  0.00    +0.024 C 
ATOM     12  C14 UNL     1       0.145  -2.119  -0.444  0.00  0.00    +0.073 C 
ATOM     13  C15 UNL     1       0.771  -1.610  -1.752  0.00  0.00    +0.028 C 
ATOM     14  N6  UNL     1      -2.262   0.595   0.616  0.00  0.00    -0.179 NA
ENDROOT
BRANCH   9  15
ATOM     15  N3  UNL     1       2.164   0.492   0.753  0.00  0.00    -0.306 N 
ATOM     16  C9  UNL     1       3.529   0.934   0.794  0.00  0.00    +0.268 C 
ATOM     17  O2  UNL     1       4.356   0.368   1.561  0.00  0.00    -0.268 OA
ATOM     18  H11 UNL     1       1.487   1.020   0.156  0.00  0.00    +0.149 HD
BRANCH  16  19
ATOM     19  C10 UNL     1       3.977   2.047  -0.057  0.00  0.00    +0.188 A 
ATOM     20  C11 UNL     1       5.241   2.581  -0.125  0.00  0.00    +0.192 A 
ATOM     21  N4  UNL     1       5.202   3.573  -1.031  0.00  0.00    -0.057 NA
ATOM     22  O3  UNL     1       3.973   3.611  -1.466  0.00  0.00    -0.242 OA
ATOM     23  N5  UNL     1       3.196   2.720  -0.918  0.00  0.00    -0.044 NA
ENDBRANCH  16  19
ENDBRANCH   9  15
BRANCH   1  25
ATOM     24  C1  UNL     1      -3.386   2.742   2.140  0.00  0.00    +0.279 C 
ATOM     25  O1  UNL     1      -4.005   2.202   0.979  0.00  0.00    -0.480 OA
ENDBRANCH   1  25
TORSDOF 3
