REMARK  Name = /home/qwerty/github/datacon2025hack/step_04_hit_selection/docking/ligands/lig_104.pdb
REMARK  6 active torsions:
REMARK  status: ('A' for Active; 'I' for Inactive)
REMARK    1  A    between atoms: C2_2  and  C3_3
REMARK    2  A    between atoms: C3_3  and  N1_4
REMARK    3  A    between atoms: C6_7  and  N2_8
REMARK    4  A    between atoms: C7_9  and  C8_11
REMARK    5  A    between atoms: C9_12  and  C10_13
REMARK    6  A    between atoms: C14_18  and  C15_19
REMARK                            x       y       z     vdW  Elec       q    Type
REMARK                         _______ _______ _______ _____ _____    ______ ____
ROOT
ATOM      1  N2  UNL     1      -0.201   0.475  -0.171  0.00  0.00    -0.307 N 
ATOM      2  C7  UNL     1      -1.380   0.591   0.638  0.00  0.00    +0.245 C 
ATOM      3  O1  UNL     1      -1.302   1.043   1.812  0.00  0.00    -0.270 OA
ATOM      4  H11 UNL     1      -0.319   0.230  -1.180  0.00  0.00    +0.149 HD
ENDROOT
BRANCH   2   5
ATOM      5  C8  UNL     1      -2.698   0.191   0.095  0.00  0.00    +0.043 A 
ATOM      6  C9  UNL     1      -3.756   1.133   0.023  0.00  0.00    -0.035 A 
ATOM      7  C10 UNL     1      -3.579   2.554   0.495  0.00  0.00    +0.044 C 
ATOM      8  C11 UNL     1      -5.000   0.740  -0.492  0.00  0.00    +0.042 A 
ATOM      9  C12 UNL     1      -5.198  -0.559  -0.956  0.00  0.00    +0.124 A 
ATOM     10  F1  UNL     1      -6.402  -0.920  -1.465  0.00  0.00    -0.205 F 
ATOM     11  C13 UNL     1      -4.162  -1.489  -0.895  0.00  0.00    +0.042 A 
ATOM     12  C14 UNL     1      -2.915  -1.137  -0.356  0.00  0.00    -0.035 A 
ATOM     13  C15 UNL     1      -1.837  -2.189  -0.283  0.00  0.00    +0.044 C 
ENDBRANCH   2   5
BRANCH   1  17
ATOM     14  N1  UNL     1       2.733  -0.598  -0.886  0.00  0.00    -0.297 NA
ATOM     15  C4  UNL     1       2.245  -1.400   0.248  0.00  0.00    +0.086 C 
ATOM     16  C5  UNL     1       1.587  -0.448   1.229  0.00  0.00    +0.039 C 
ATOM     17  C6  UNL     1       1.142   0.721   0.371  0.00  0.00    +0.088 C 
ATOM     18  C16 UNL     1       2.187   0.763  -0.742  0.00  0.00    +0.107 C 
BRANCH  14  19
ATOM     19  C3  UNL     1       4.203  -0.632  -1.054  0.00  0.00    +0.111 C 
BRANCH  19  21
ATOM     20  C1  UNL     1       5.712   1.009   0.065  0.00  0.00    +0.005 C 
ATOM     21  C2  UNL     1       4.961  -0.093   0.143  0.00  0.00    -0.019 C 
ENDBRANCH  19  21
ENDBRANCH  14  19
ENDBRANCH   1  17
TORSDOF 4
