REMARK  Name = /home/qwerty/github/datacon2025hack/step_04_hit_selection/docking/ligands/lig_60.pdb
REMARK  8 active torsions:
REMARK  status: ('A' for Active; 'I' for Inactive)
REMARK    1  A    between atoms: C1_1  and  O1_2
REMARK    2  A    between atoms: O1_2  and  C2_3
REMARK    3  A    between atoms: C2_3  and  C3_5
REMARK    4  A    between atoms: C6_8  and  N1_9
REMARK    5  A    between atoms: C7_10  and  C8_12
REMARK    6  A    between atoms: C11_15  and  O4_16
REMARK    7  A    between atoms: O4_16  and  C12_17
REMARK    8  A    between atoms: C13_18  and  N2_19
REMARK                            x       y       z     vdW  Elec       q    Type
REMARK                         _______ _______ _______ _____ _____    ______ ____
ROOT
ATOM      1  N1  UNL     1       0.635  -0.292   0.927  0.00  0.00    -0.282 N 
ATOM      2  C7  UNL     1      -0.215   0.552   0.132  0.00  0.00    +0.248 C 
ATOM      3  O3  UNL     1       0.284   1.527  -0.496  0.00  0.00    -0.270 OA
ATOM      4  H6  UNL     1       0.219  -0.757   1.765  0.00  0.00    +0.155 HD
ENDROOT
BRANCH   1   8
ATOM      5  C3  UNL     1       4.841  -0.707   0.378  0.00  0.00    +0.059 A 
ATOM      6  C4  UNL     1       4.262  -0.847   1.651  0.00  0.00    +0.017 A 
ATOM      7  C5  UNL     1       2.881  -0.706   1.822  0.00  0.00    +0.024 A 
ATOM      8  C6  UNL     1       2.055  -0.410   0.729  0.00  0.00    +0.034 A 
ATOM      9  C16 UNL     1       2.629  -0.290  -0.549  0.00  0.00    +0.024 A 
ATOM     10  C17 UNL     1       4.009  -0.431  -0.721  0.00  0.00    +0.017 A 
BRANCH   5  11
ATOM     11  C2  UNL     1       6.301  -0.855   0.191  0.00  0.00    +0.339 C 
ATOM     12  O2  UNL     1       7.044  -1.107   1.180  0.00  0.00    -0.245 OA
BRANCH  11  14
ATOM     13  C1  UNL     1       8.254  -0.844  -1.331  0.00  0.00    +0.280 C 
ATOM     14  O1  UNL     1       6.859  -0.715  -1.084  0.00  0.00    -0.464 OA
ENDBRANCH  11  14
ENDBRANCH   5  11
ENDBRANCH   1   8
BRANCH   2  15
ATOM     15  C8  UNL     1      -1.680   0.324   0.081  0.00  0.00    +0.039 A 
ATOM     16  C9  UNL     1      -2.225  -0.924   0.417  0.00  0.00    +0.017 A 
ATOM     17  C10 UNL     1      -3.602  -1.134   0.364  0.00  0.00    +0.048 A 
ATOM     18  C11 UNL     1      -4.472  -0.102  -0.036  0.00  0.00    +0.146 A 
ATOM     19  C13 UNL     1      -3.936   1.159  -0.384  0.00  0.00    +0.111 A 
ATOM     20  C15 UNL     1      -2.543   1.355  -0.325  0.00  0.00    +0.044 A 
BRANCH  19  21
ATOM     21  N2  UNL     1      -4.800   2.241  -0.788  0.00  0.00    -0.197 N 
ATOM     22  C14 UNL     1      -4.493   3.322  -1.530  0.00  0.00    +0.251 A 
ATOM     23  N3  UNL     1      -5.581   4.101  -1.672  0.00  0.00    -0.116 NA
ATOM     24  N4  UNL     1      -6.545   3.481  -1.004  0.00  0.00    -0.023 NA
ATOM     25  N5  UNL     1      -6.078   2.363  -0.472  0.00  0.00    -0.039 NA
ENDBRANCH  19  21
BRANCH  18  26
ATOM     26  O4  UNL     1      -5.860  -0.302  -0.112  0.00  0.00    -0.493 OA
ATOM     27  C12 UNL     1      -6.523  -1.522   0.206  0.00  0.00    +0.277 C 
ENDBRANCH  18  26
ENDBRANCH   2  15
TORSDOF 6
