MODEL 1
REMARK VINA RESULT:    -6.219      0.000      0.000
REMARK INTER + INTRA:          -8.344
REMARK INTER:                  -7.673
REMARK INTRA:                  -0.672
REMARK UNBOUND:                -0.672
REMARK  Name = /home/qwerty/github/datacon2025hack/step_04_hit_selection/docking/ligands/lig_725.pdb
REMARK  5 active torsions:
REMARK  status: ('A' for Active; 'I' for Inactive)
REMARK    1  A    between atoms: C1_1  and  C2_2
REMARK    2  A    between atoms: C2_2  and  N1_3
REMARK    3  A    between atoms: C2_2  and  C15_18
REMARK    4  A    between atoms: C3_4  and  C4_6
REMARK    5  A    between atoms: C9_11  and  C10_12
REMARK                            x       y       z     vdW  Elec       q    Type
REMARK                         _______ _______ _______ _____ _____    ______ ____
ROOT
ATOM      1  N1  UNL     1      20.456   2.123  26.479  0.00  0.00    -0.305 N 
ATOM      2  C3  UNL     1      21.619   2.610  27.167  0.00  0.00    +0.245 C 
ATOM      3  O1  UNL     1      22.727   2.672  26.565  0.00  0.00    -0.270 OA
ATOM      4  H5  UNL     1      19.622   1.864  27.054  0.00  0.00    +0.150 HD
ENDROOT
BRANCH   2   5
ATOM      5  C4  UNL     1      21.549   2.989  28.597  0.00  0.00    +0.044 A 
ATOM      6  C5  UNL     1      20.827   4.143  28.949  0.00  0.00    +0.013 A 
ATOM      7  C6  UNL     1      20.792   4.585  30.273  0.00  0.00    +0.001 A 
ATOM      8  C7  UNL     1      21.472   3.881  31.264  0.00  0.00    +0.001 A 
ATOM      9  C8  UNL     1      22.176   2.720  30.940  0.00  0.00    +0.009 A 
ATOM     10  C9  UNL     1      22.211   2.251  29.615  0.00  0.00    -0.004 A 
BRANCH  10  11
ATOM     11  C10 UNL     1      22.889   0.961  29.344  0.00  0.00    +0.001 A 
ATOM     12  C11 UNL     1      22.143  -0.190  29.054  0.00  0.00    +0.011 A 
ATOM     13  C12 UNL     1      22.793  -1.400  28.801  0.00  0.00    +0.020 A 
ATOM     14  C13 UNL     1      24.188  -1.444  28.828  0.00  0.00    +0.111 A 
ATOM     15  N2  UNL     1      24.900  -0.317  29.097  0.00  0.00    -0.263 NA
ATOM     16  C14 UNL     1      24.290   0.870  29.352  0.00  0.00    +0.119 A 
ENDBRANCH  10  11
ENDBRANCH   2   5
BRANCH   1  18
ATOM     17  C1  UNL     1      20.339   3.189  24.256  0.00  0.00    +0.033 C 
ATOM     18  C2  UNL     1      20.443   1.871  25.032  0.00  0.00    +0.103 C 
BRANCH  18  19
ATOM     19  C15 UNL     1      19.297   0.950  24.661  0.00  0.00    +0.009 A 
ATOM     20  C16 UNL     1      19.180  -0.321  25.240  0.00  0.00    +0.119 A 
ATOM     21  N3  UNL     1      18.152  -1.138  24.890  0.00  0.00    -0.243 NA
ATOM     22  C17 UNL     1      17.226  -0.744  23.978  0.00  0.00    +0.221 A 
ATOM     23  N4  UNL     1      17.318   0.480  23.399  0.00  0.00    -0.243 NA
ATOM     24  C18 UNL     1      18.329   1.329  23.718  0.00  0.00    +0.119 A 
ENDBRANCH  18  19
ENDBRANCH   1  18
TORSDOF 4
ENDMDL
MODEL 2
REMARK VINA RESULT:    -6.174     14.469     16.670
REMARK INTER + INTRA:          -8.289
REMARK INTER:                  -7.392
REMARK INTRA:                  -0.897
REMARK UNBOUND:                -0.672
REMARK  Name = /home/qwerty/github/datacon2025hack/step_04_hit_selection/docking/ligands/lig_725.pdb
REMARK  5 active torsions:
REMARK  status: ('A' for Active; 'I' for Inactive)
REMARK    1  A    between atoms: C1_1  and  C2_2
REMARK    2  A    between atoms: C2_2  and  N1_3
REMARK    3  A    between atoms: C2_2  and  C15_18
REMARK    4  A    between atoms: C3_4  and  C4_6
REMARK    5  A    between atoms: C9_11  and  C10_12
REMARK                            x       y       z     vdW  Elec       q    Type
REMARK                         _______ _______ _______ _____ _____    ______ ____
ROOT
ATOM      1  N1  UNL     1       8.463  10.110  28.626  0.00  0.00    -0.305 N 
ATOM      2  C3  UNL     1       8.703  10.903  27.453  0.00  0.00    +0.245 C 
ATOM      3  O1  UNL     1       7.957  10.777  26.443  0.00  0.00    -0.270 OA
ATOM      4  H5  UNL     1       9.219  10.062  29.346  0.00  0.00    +0.150 HD
ENDROOT
BRANCH   2   5
ATOM      5  C4  UNL     1       9.856  11.832  27.392  0.00  0.00    +0.044 A 
ATOM      6  C5  UNL     1      11.082  11.346  26.903  0.00  0.00    +0.013 A 
ATOM      7  C6  UNL     1      12.217  12.158  26.893  0.00  0.00    +0.001 A 
ATOM      8  C7  UNL     1      12.145  13.466  27.368  0.00  0.00    +0.001 A 
ATOM      9  C8  UNL     1      10.933  13.975  27.837  0.00  0.00    +0.009 A 
ATOM     10  C9  UNL     1       9.775  13.177  27.841  0.00  0.00    -0.004 A 
BRANCH  10  11
ATOM     11  C10 UNL     1       8.496  13.799  28.256  0.00  0.00    +0.001 A 
ATOM     12  C11 UNL     1       7.662  14.415  27.311  0.00  0.00    +0.011 A 
ATOM     13  C12 UNL     1       6.459  14.998  27.715  0.00  0.00    +0.020 A 
ATOM     14  C13 UNL     1       6.094  14.947  29.061  0.00  0.00    +0.111 A 
ATOM     15  N2  UNL     1       6.904  14.335  29.964  0.00  0.00    -0.263 NA
ATOM     16  C14 UNL     1       8.082  13.765  29.597  0.00  0.00    +0.119 A 
ENDBRANCH  10  11
ENDBRANCH   2   5
BRANCH   1  18
ATOM     17  C1  UNL     1       6.768   9.325  30.239  0.00  0.00    +0.033 C 
ATOM     18  C2  UNL     1       7.258   9.285  28.787  0.00  0.00    +0.103 C 
BRANCH  18  19
ATOM     19  C15 UNL     1       7.528   7.855  28.362  0.00  0.00    +0.009 A 
ATOM     20  C16 UNL     1       7.179   7.408  27.081  0.00  0.00    +0.119 A 
ATOM     21  N3  UNL     1       7.420   6.121  26.717  0.00  0.00    -0.243 NA
ATOM     22  C17 UNL     1       7.998   5.248  27.582  0.00  0.00    +0.221 A 
ATOM     23  N4  UNL     1       8.343   5.654  28.831  0.00  0.00    -0.243 NA
ATOM     24  C18 UNL     1       8.120   6.930  29.236  0.00  0.00    +0.119 A 
ENDBRANCH  18  19
ENDBRANCH   1  18
TORSDOF 4
ENDMDL
MODEL 3
REMARK VINA RESULT:    -5.898     14.893     16.682
REMARK INTER + INTRA:          -7.949
REMARK INTER:                  -7.092
REMARK INTRA:                  -0.857
REMARK UNBOUND:                -0.672
REMARK  Name = /home/qwerty/github/datacon2025hack/step_04_hit_selection/docking/ligands/lig_725.pdb
REMARK  5 active torsions:
REMARK  status: ('A' for Active; 'I' for Inactive)
REMARK    1  A    between atoms: C1_1  and  C2_2
REMARK    2  A    between atoms: C2_2  and  N1_3
REMARK    3  A    between atoms: C2_2  and  C15_18
REMARK    4  A    between atoms: C3_4  and  C4_6
REMARK    5  A    between atoms: C9_11  and  C10_12
REMARK                            x       y       z     vdW  Elec       q    Type
REMARK                         _______ _______ _______ _____ _____    ______ ____
ROOT
ATOM      1  N1  UNL     1      10.050  12.111  28.414  0.00  0.00    -0.305 N 
ATOM      2  C3  UNL     1       8.708  11.881  27.958  0.00  0.00    +0.245 C 
ATOM      3  O1  UNL     1       8.060  12.814  27.409  0.00  0.00    -0.270 OA
ATOM      4  H5  UNL     1      10.472  11.408  29.063  0.00  0.00    +0.150 HD
ENDROOT
BRANCH   2   5
ATOM      5  C4  UNL     1       8.049  10.572  28.177  0.00  0.00    +0.044 A 
ATOM      6  C5  UNL     1       7.453  10.323  29.426  0.00  0.00    +0.013 A 
ATOM      7  C6  UNL     1       6.885   9.080  29.710  0.00  0.00    +0.001 A 
ATOM      8  C7  UNL     1       6.900   8.069  28.751  0.00  0.00    +0.001 A 
ATOM      9  C8  UNL     1       7.467   8.302  27.497  0.00  0.00    +0.009 A 
ATOM     10  C9  UNL     1       8.030   9.553  27.187  0.00  0.00    -0.004 A 
BRANCH  10  11
ATOM     11  C10 UNL     1       8.528   9.777  25.809  0.00  0.00    +0.001 A 
ATOM     12  C11 UNL     1       9.904   9.798  25.542  0.00  0.00    +0.011 A 
ATOM     13  C12 UNL     1      10.360  10.010  24.239  0.00  0.00    +0.020 A 
ATOM     14  C13 UNL     1       9.433  10.186  23.211  0.00  0.00    +0.111 A 
ATOM     15  N2  UNL     1       8.101  10.149  23.481  0.00  0.00    -0.263 NA
ATOM     16  C14 UNL     1       7.632   9.950  24.742  0.00  0.00    +0.119 A 
ENDBRANCH  10  11
ENDBRANCH   2   5
BRANCH   1  18
ATOM     17  C1  UNL     1      11.857  13.062  27.027  0.00  0.00    +0.033 C 
ATOM     18  C2  UNL     1      10.792  13.337  28.095  0.00  0.00    +0.103 C 
BRANCH  18  19
ATOM     19  C15 UNL     1      11.434  13.913  29.342  0.00  0.00    +0.009 A 
ATOM     20  C16 UNL     1      10.870  13.696  30.606  0.00  0.00    +0.119 A 
ATOM     21  N3  UNL     1      11.453  14.226  31.714  0.00  0.00    -0.243 NA
ATOM     22  C17 UNL     1      12.583  14.972  31.619  0.00  0.00    +0.221 A 
ATOM     23  N4  UNL     1      13.148  15.202  30.406  0.00  0.00    -0.243 NA
ATOM     24  C18 UNL     1      12.599  14.692  29.273  0.00  0.00    +0.119 A 
ENDBRANCH  18  19
ENDBRANCH   1  18
TORSDOF 4
ENDMDL
MODEL 4
REMARK VINA RESULT:    -5.867      5.207      8.021
REMARK INTER + INTRA:          -7.910
REMARK INTER:                  -6.960
REMARK INTRA:                  -0.950
REMARK UNBOUND:                -0.672
REMARK  Name = /home/qwerty/github/datacon2025hack/step_04_hit_selection/docking/ligands/lig_725.pdb
REMARK  5 active torsions:
REMARK  status: ('A' for Active; 'I' for Inactive)
REMARK    1  A    between atoms: C1_1  and  C2_2
REMARK    2  A    between atoms: C2_2  and  N1_3
REMARK    3  A    between atoms: C2_2  and  C15_18
REMARK    4  A    between atoms: C3_4  and  C4_6
REMARK    5  A    between atoms: C9_11  and  C10_12
REMARK                            x       y       z     vdW  Elec       q    Type
REMARK                         _______ _______ _______ _____ _____    ______ ____
ROOT
ATOM      1  N1  UNL     1      22.202   5.118  32.045  0.00  0.00    -0.305 N 
ATOM      2  C3  UNL     1      21.745   6.472  32.184  0.00  0.00    +0.245 C 
ATOM      3  O1  UNL     1      20.517   6.709  32.349  0.00  0.00    -0.270 OA
ATOM      4  H5  UNL     1      23.170   4.964  31.681  0.00  0.00    +0.150 HD
ENDROOT
BRANCH   2   5
ATOM      5  C4  UNL     1      22.695   7.605  32.077  0.00  0.00    +0.044 A 
ATOM      6  C5  UNL     1      22.965   8.134  30.802  0.00  0.00    +0.013 A 
ATOM      7  C6  UNL     1      23.907   9.151  30.638  0.00  0.00    +0.001 A 
ATOM      8  C7  UNL     1      24.589   9.657  31.742  0.00  0.00    +0.001 A 
ATOM      9  C8  UNL     1      24.320   9.161  33.019  0.00  0.00    +0.009 A 
ATOM     10  C9  UNL     1      23.364   8.147  33.206  0.00  0.00    -0.004 A 
BRANCH  10  11
ATOM     11  C10 UNL     1      23.047   7.729  34.592  0.00  0.00    +0.001 A 
ATOM     12  C11 UNL     1      23.726   6.655  35.187  0.00  0.00    +0.011 A 
ATOM     13  C12 UNL     1      23.418   6.271  36.493  0.00  0.00    +0.020 A 
ATOM     14  C13 UNL     1      22.441   6.974  37.200  0.00  0.00    +0.111 A 
ATOM     15  N2  UNL     1      21.800   8.021  36.617  0.00  0.00    -0.263 NA
ATOM     16  C14 UNL     1      22.078   8.411  35.345  0.00  0.00    +0.119 A 
ENDBRANCH  10  11
ENDBRANCH   2   5
BRANCH   1  18
ATOM     17  C1  UNL     1      21.724   3.243  33.579  0.00  0.00    +0.033 C 
ATOM     18  C2  UNL     1      21.328   3.962  32.284  0.00  0.00    +0.103 C 
BRANCH  18  19
ATOM     19  C15 UNL     1      21.379   3.002  31.112  0.00  0.00    +0.009 A 
ATOM     20  C16 UNL     1      21.467   3.477  29.796  0.00  0.00    +0.119 A 
ATOM     21  N3  UNL     1      21.503   2.604  28.756  0.00  0.00    -0.243 NA
ATOM     22  C17 UNL     1      21.455   1.263  28.968  0.00  0.00    +0.221 A 
ATOM     23  N4  UNL     1      21.366   0.776  30.232  0.00  0.00    -0.243 NA
ATOM     24  C18 UNL     1      21.326   1.612  31.301  0.00  0.00    +0.119 A 
ENDBRANCH  18  19
ENDBRANCH   1  18
TORSDOF 4
ENDMDL
MODEL 5
REMARK VINA RESULT:    -5.828      2.656      6.758
REMARK INTER + INTRA:          -7.863
REMARK INTER:                  -6.943
REMARK INTRA:                  -0.919
REMARK UNBOUND:                -0.672
REMARK  Name = /home/qwerty/github/datacon2025hack/step_04_hit_selection/docking/ligands/lig_725.pdb
REMARK  5 active torsions:
REMARK  status: ('A' for Active; 'I' for Inactive)
REMARK    1  A    between atoms: C1_1  and  C2_2
REMARK    2  A    between atoms: C2_2  and  N1_3
REMARK    3  A    between atoms: C2_2  and  C15_18
REMARK    4  A    between atoms: C3_4  and  C4_6
REMARK    5  A    between atoms: C9_11  and  C10_12
REMARK                            x       y       z     vdW  Elec       q    Type
REMARK                         _______ _______ _______ _____ _____    ______ ____
ROOT
ATOM      1  N1  UNL     1      20.753   1.868  29.165  0.00  0.00    -0.305 N 
ATOM      2  C3  UNL     1      21.338   1.298  27.985  0.00  0.00    +0.245 C 
ATOM      3  O1  UNL     1      21.840   0.140  28.027  0.00  0.00    -0.270 OA
ATOM      4  H5  UNL     1      20.560   2.896  29.166  0.00  0.00    +0.150 HD
ENDROOT
BRANCH   2   5
ATOM      5  C4  UNL     1      21.414   2.076  26.726  0.00  0.00    +0.044 A 
ATOM      6  C5  UNL     1      22.527   2.911  26.521  0.00  0.00    +0.013 A 
ATOM      7  C6  UNL     1      22.611   3.721  25.387  0.00  0.00    +0.001 A 
ATOM      8  C7  UNL     1      21.589   3.707  24.441  0.00  0.00    +0.001 A 
ATOM      9  C8  UNL     1      20.485   2.869  24.614  0.00  0.00    +0.009 A 
ATOM     10  C9  UNL     1      20.390   2.035  25.742  0.00  0.00    -0.004 A 
BRANCH  10  11
ATOM     11  C10 UNL     1      19.248   1.095  25.825  0.00  0.00    +0.001 A 
ATOM     12  C11 UNL     1      18.145   1.382  26.642  0.00  0.00    +0.011 A 
ATOM     13  C12 UNL     1      17.075   0.488  26.712  0.00  0.00    +0.020 A 
ATOM     14  C13 UNL     1      17.112  -0.683  25.952  0.00  0.00    +0.111 A 
ATOM     15  N2  UNL     1      18.181  -0.942  25.153  0.00  0.00    -0.263 NA
ATOM     16  C14 UNL     1      19.237  -0.091  25.072  0.00  0.00    +0.119 A 
ENDBRANCH  10  11
ENDBRANCH   2   5
BRANCH   1  18
ATOM     17  C1  UNL     1      19.043   0.735  30.538  0.00  0.00    +0.033 C 
ATOM     18  C2  UNL     1      20.527   1.089  30.389  0.00  0.00    +0.103 C 
BRANCH  18  19
ATOM     19  C15 UNL     1      21.009   1.855  31.606  0.00  0.00    +0.009 A 
ATOM     20  C16 UNL     1      20.382   1.699  32.849  0.00  0.00    +0.119 A 
ATOM     21  N3  UNL     1      20.820   2.398  33.928  0.00  0.00    -0.243 NA
ATOM     22  C17 UNL     1      21.867   3.258  33.825  0.00  0.00    +0.221 A 
ATOM     23  N4  UNL     1      22.491   3.431  32.632  0.00  0.00    -0.243 NA
ATOM     24  C18 UNL     1      22.085   2.753  31.527  0.00  0.00    +0.119 A 
ENDBRANCH  18  19
ENDBRANCH   1  18
TORSDOF 4
ENDMDL
MODEL 6
REMARK VINA RESULT:    -5.774      7.664      9.719
REMARK INTER + INTRA:          -7.796
REMARK INTER:                  -6.682
REMARK INTRA:                  -1.114
REMARK UNBOUND:                -0.672
REMARK  Name = /home/qwerty/github/datacon2025hack/step_04_hit_selection/docking/ligands/lig_725.pdb
REMARK  5 active torsions:
REMARK  status: ('A' for Active; 'I' for Inactive)
REMARK    1  A    between atoms: C1_1  and  C2_2
REMARK    2  A    between atoms: C2_2  and  N1_3
REMARK    3  A    between atoms: C2_2  and  C15_18
REMARK    4  A    between atoms: C3_4  and  C4_6
REMARK    5  A    between atoms: C9_11  and  C10_12
REMARK                            x       y       z     vdW  Elec       q    Type
REMARK                         _______ _______ _______ _____ _____    ______ ____
ROOT
ATOM      1  N1  UNL     1      12.601   0.299  22.918  0.00  0.00    -0.305 N 
ATOM      2  C3  UNL     1      13.556   0.268  23.990  0.00  0.00    +0.245 C 
ATOM      3  O1  UNL     1      13.560   1.185  24.857  0.00  0.00    -0.270 OA
ATOM      4  H5  UNL     1      12.767  -0.330  22.099  0.00  0.00    +0.150 HD
ENDROOT
BRANCH   2   5
ATOM      5  C4  UNL     1      14.580  -0.801  24.061  0.00  0.00    +0.044 A 
ATOM      6  C5  UNL     1      14.354  -1.889  24.922  0.00  0.00    +0.013 A 
ATOM      7  C6  UNL     1      15.320  -2.884  25.081  0.00  0.00    +0.001 A 
ATOM      8  C7  UNL     1      16.523  -2.810  24.382  0.00  0.00    +0.001 A 
ATOM      9  C8  UNL     1      16.758  -1.749  23.505  0.00  0.00    +0.009 A 
ATOM     10  C9  UNL     1      15.791  -0.745  23.320  0.00  0.00    -0.004 A 
BRANCH  10  11
ATOM     11  C10 UNL     1      16.052   0.301  22.303  0.00  0.00    +0.001 A 
ATOM     12  C11 UNL     1      16.514   1.569  22.686  0.00  0.00    +0.011 A 
ATOM     13  C12 UNL     1      16.756   2.546  21.719  0.00  0.00    +0.020 A 
ATOM     14  C13 UNL     1      16.545   2.243  20.373  0.00  0.00    +0.111 A 
ATOM     15  N2  UNL     1      16.110   1.006  20.014  0.00  0.00    -0.263 NA
ATOM     16  C14 UNL     1      15.862   0.039  20.937  0.00  0.00    +0.119 A 
ENDBRANCH  10  11
ENDBRANCH   2   5
BRANCH   1  18
ATOM     17  C1  UNL     1      10.165   0.526  22.591  0.00  0.00    +0.033 C 
ATOM     18  C2  UNL     1      11.484   1.251  22.885  0.00  0.00    +0.103 C 
BRANCH  18  19
ATOM     19  C15 UNL     1      11.732   2.330  21.849  0.00  0.00    +0.009 A 
ATOM     20  C16 UNL     1      10.816   3.375  21.665  0.00  0.00    +0.119 A 
ATOM     21  N3  UNL     1      11.049   4.329  20.726  0.00  0.00    -0.243 NA
ATOM     22  C17 UNL     1      12.164   4.291  19.952  0.00  0.00    +0.221 A 
ATOM     23  N4  UNL     1      13.067   3.288  20.107  0.00  0.00    -0.243 NA
ATOM     24  C18 UNL     1      12.874   2.313  21.032  0.00  0.00    +0.119 A 
ENDBRANCH  18  19
ENDBRANCH   1  18
TORSDOF 4
ENDMDL
MODEL 7
REMARK VINA RESULT:    -5.761     10.261     12.121
REMARK INTER + INTRA:          -7.780
REMARK INTER:                  -6.790
REMARK INTRA:                  -0.990
REMARK UNBOUND:                -0.672
REMARK  Name = /home/qwerty/github/datacon2025hack/step_04_hit_selection/docking/ligands/lig_725.pdb
REMARK  5 active torsions:
REMARK  status: ('A' for Active; 'I' for Inactive)
REMARK    1  A    between atoms: C1_1  and  C2_2
REMARK    2  A    between atoms: C2_2  and  N1_3
REMARK    3  A    between atoms: C2_2  and  C15_18
REMARK    4  A    between atoms: C3_4  and  C4_6
REMARK    5  A    between atoms: C9_11  and  C10_12
REMARK                            x       y       z     vdW  Elec       q    Type
REMARK                         _______ _______ _______ _____ _____    ______ ____
ROOT
ATOM      1  N1  UNL     1      21.095  10.312  35.269  0.00  0.00    -0.305 N 
ATOM      2  C3  UNL     1      21.354   9.588  34.057  0.00  0.00    +0.245 C 
ATOM      3  O1  UNL     1      20.560   9.689  33.081  0.00  0.00    -0.270 OA
ATOM      4  H5  UNL     1      21.626  10.035  36.127  0.00  0.00    +0.150 HD
ENDROOT
BRANCH   2   5
ATOM      5  C4  UNL     1      22.515   8.672  33.956  0.00  0.00    +0.044 A 
ATOM      6  C5  UNL     1      23.581   9.034  33.114  0.00  0.00    +0.013 A 
ATOM      7  C6  UNL     1      24.664   8.173  32.926  0.00  0.00    +0.001 A 
ATOM      8  C7  UNL     1      24.700   6.942  33.577  0.00  0.00    +0.001 A 
ATOM      9  C8  UNL     1      23.662   6.573  34.435  0.00  0.00    +0.009 A 
ATOM     10  C9  UNL     1      22.570   7.433  34.649  0.00  0.00    -0.004 A 
BRANCH  10  11
ATOM     11  C10 UNL     1      21.548   7.035  35.645  0.00  0.00    +0.001 A 
ATOM     12  C11 UNL     1      20.338   6.459  35.234  0.00  0.00    +0.011 A 
ATOM     13  C12 UNL     1      19.382   6.088  36.183  0.00  0.00    +0.020 A 
ATOM     14  C13 UNL     1      19.652   6.285  37.538  0.00  0.00    +0.111 A 
ATOM     15  N2  UNL     1      20.836   6.832  37.924  0.00  0.00    -0.263 NA
ATOM     16  C14 UNL     1      21.779   7.206  37.020  0.00  0.00    +0.119 A 
ENDBRANCH  10  11
ENDBRANCH   2   5
BRANCH   1  18
ATOM     17  C1  UNL     1      20.637  12.675  35.818  0.00  0.00    +0.033 C 
ATOM     18  C2  UNL     1      20.045  11.334  35.369  0.00  0.00    +0.103 C 
BRANCH  18  19
ATOM     19  C15 UNL     1      18.958  10.892  36.328  0.00  0.00    +0.009 A 
ATOM     20  C16 UNL     1      17.672  11.445  36.262  0.00  0.00    +0.119 A 
ATOM     21  N3  UNL     1      16.711  11.043  37.135  0.00  0.00    -0.243 NA
ATOM     22  C17 UNL     1      16.975  10.108  38.083  0.00  0.00    +0.221 A 
ATOM     23  N4  UNL     1      18.213   9.559  38.172  0.00  0.00    -0.243 NA
ATOM     24  C18 UNL     1      19.204   9.930  37.321  0.00  0.00    +0.119 A 
ENDBRANCH  18  19
ENDBRANCH   1  18
TORSDOF 4
ENDMDL
MODEL 8
REMARK VINA RESULT:    -5.651     10.900     13.708
REMARK INTER + INTRA:          -7.645
REMARK INTER:                  -6.546
REMARK INTRA:                  -1.098
REMARK UNBOUND:                -0.672
REMARK  Name = /home/qwerty/github/datacon2025hack/step_04_hit_selection/docking/ligands/lig_725.pdb
REMARK  5 active torsions:
REMARK  status: ('A' for Active; 'I' for Inactive)
REMARK    1  A    between atoms: C1_1  and  C2_2
REMARK    2  A    between atoms: C2_2  and  N1_3
REMARK    3  A    between atoms: C2_2  and  C15_18
REMARK    4  A    between atoms: C3_4  and  C4_6
REMARK    5  A    between atoms: C9_11  and  C10_12
REMARK                            x       y       z     vdW  Elec       q    Type
REMARK                         _______ _______ _______ _____ _____    ______ ____
ROOT
ATOM      1  N1  UNL     1      11.680   5.849  20.387  0.00  0.00    -0.305 N 
ATOM      2  C3  UNL     1      11.709   7.009  21.234  0.00  0.00    +0.245 C 
ATOM      3  O1  UNL     1      12.506   7.056  22.210  0.00  0.00    -0.270 OA
ATOM      4  H5  UNL     1      10.865   5.736  19.742  0.00  0.00    +0.150 HD
ENDROOT
BRANCH   2   5
ATOM      5  C4  UNL     1      10.769   8.132  21.010  0.00  0.00    +0.044 A 
ATOM      6  C5  UNL     1      11.213   9.239  20.266  0.00  0.00    +0.013 A 
ATOM      7  C6  UNL     1      10.393  10.355  20.089  0.00  0.00    +0.001 A 
ATOM      8  C7  UNL     1       9.119  10.381  20.649  0.00  0.00    +0.001 A 
ATOM      9  C8  UNL     1       8.649   9.284  21.374  0.00  0.00    +0.009 A 
ATOM     10  C9  UNL     1       9.454   8.145  21.550  0.00  0.00    -0.004 A 
BRANCH  10  11
ATOM     11  C10 UNL     1       8.870   6.972  22.241  0.00  0.00    +0.001 A 
ATOM     12  C11 UNL     1       8.024   6.087  21.555  0.00  0.00    +0.011 A 
ATOM     13  C12 UNL     1       7.480   4.985  22.217  0.00  0.00    +0.020 A 
ATOM     14  C13 UNL     1       7.796   4.770  23.559  0.00  0.00    +0.111 A 
ATOM     15  N2  UNL     1       8.628   5.627  24.209  0.00  0.00    -0.263 NA
ATOM     16  C14 UNL     1       9.166   6.710  23.588  0.00  0.00    +0.119 A 
ENDBRANCH  10  11
ENDBRANCH   2   5
BRANCH   1  18
ATOM     17  C1  UNL     1      13.249   4.448  19.096  0.00  0.00    +0.033 C 
ATOM     18  C2  UNL     1      12.681   4.779  20.481  0.00  0.00    +0.103 C 
BRANCH  18  19
ATOM     19  C15 UNL     1      12.081   3.539  21.113  0.00  0.00    +0.009 A 
ATOM     20  C16 UNL     1      12.875   2.420  21.397  0.00  0.00    +0.119 A 
ATOM     21  N3  UNL     1      12.320   1.312  21.956  0.00  0.00    -0.243 NA
ATOM     22  C17 UNL     1      10.994   1.267  22.247  0.00  0.00    +0.221 A 
ATOM     23  N4  UNL     1      10.201   2.335  21.979  0.00  0.00    -0.243 NA
ATOM     24  C18 UNL     1      10.713   3.462  21.420  0.00  0.00    +0.119 A 
ENDBRANCH  18  19
ENDBRANCH   1  18
TORSDOF 4
ENDMDL
MODEL 9
REMARK VINA RESULT:    -5.572     11.987     13.824
REMARK INTER + INTRA:          -7.546
REMARK INTER:                  -6.547
REMARK INTRA:                  -0.999
REMARK UNBOUND:                -0.672
REMARK  Name = /home/qwerty/github/datacon2025hack/step_04_hit_selection/docking/ligands/lig_725.pdb
REMARK  5 active torsions:
REMARK  status: ('A' for Active; 'I' for Inactive)
REMARK    1  A    between atoms: C1_1  and  C2_2
REMARK    2  A    between atoms: C2_2  and  N1_3
REMARK    3  A    between atoms: C2_2  and  C15_18
REMARK    4  A    between atoms: C3_4  and  C4_6
REMARK    5  A    between atoms: C9_11  and  C10_12
REMARK                            x       y       z     vdW  Elec       q    Type
REMARK                         _______ _______ _______ _____ _____    ______ ____
ROOT
ATOM      1  N1  UNL     1      22.017  13.140  22.245  0.00  0.00    -0.305 N 
ATOM      2  C3  UNL     1      21.576  13.372  20.898  0.00  0.00    +0.245 C 
ATOM      3  O1  UNL     1      21.952  14.407  20.281  0.00  0.00    -0.270 OA
ATOM      4  H5  UNL     1      21.515  12.414  22.805  0.00  0.00    +0.150 HD
ENDROOT
BRANCH   2   5
ATOM      5  C4  UNL     1      20.633  12.438  20.240  0.00  0.00    +0.044 A 
ATOM      6  C5  UNL     1      19.270  12.782  20.196  0.00  0.00    +0.013 A 
ATOM      7  C6  UNL     1      18.330  11.903  19.654  0.00  0.00    +0.001 A 
ATOM      8  C7  UNL     1      18.737  10.672  19.146  0.00  0.00    +0.001 A 
ATOM      9  C8  UNL     1      20.087  10.319  19.159  0.00  0.00    +0.009 A 
ATOM     10  C9  UNL     1      21.051  11.198  19.687  0.00  0.00    -0.004 A 
BRANCH  10  11
ATOM     11  C10 UNL     1      22.479  10.816  19.585  0.00  0.00    +0.001 A 
ATOM     12  C11 UNL     1      23.074  10.011  20.566  0.00  0.00    +0.011 A 
ATOM     13  C12 UNL     1      24.421   9.658  20.459  0.00  0.00    +0.020 A 
ATOM     14  C13 UNL     1      25.159  10.104  19.361  0.00  0.00    +0.111 A 
ATOM     15  N2  UNL     1      24.566  10.873  18.409  0.00  0.00    -0.263 NA
ATOM     16  C14 UNL     1      23.258  11.234  18.494  0.00  0.00    +0.119 A 
ENDBRANCH  10  11
ENDBRANCH   2   5
BRANCH   1  18
ATOM     17  C1  UNL     1      24.452  13.426  22.537  0.00  0.00    +0.033 C 
ATOM     18  C2  UNL     1      23.057  13.956  22.886  0.00  0.00    +0.103 C 
BRANCH  18  19
ATOM     19  C15 UNL     1      22.864  13.981  24.389  0.00  0.00    +0.009 A 
ATOM     20  C16 UNL     1      21.743  13.384  24.981  0.00  0.00    +0.119 A 
ATOM     21  N3  UNL     1      21.580  13.423  26.329  0.00  0.00    -0.243 NA
ATOM     22  C17 UNL     1      22.493  14.037  27.126  0.00  0.00    +0.221 A 
ATOM     23  N4  UNL     1      23.587  14.627  26.579  0.00  0.00    -0.243 NA
ATOM     24  C18 UNL     1      23.789  14.613  25.236  0.00  0.00    +0.119 A 
ENDBRANCH  18  19
ENDBRANCH   1  18
TORSDOF 4
ENDMDL
