MODEL 1
REMARK VINA RESULT:    -7.180      0.000      0.000
REMARK INTER + INTRA:          -8.320
REMARK INTER:                  -8.020
REMARK INTRA:                  -0.301
REMARK UNBOUND:                -0.301
REMARK  Name = /home/qwerty/github/datacon2025hack/step_04_hit_selection/docking/ligands/lig_252.pdb
REMARK  2 active torsions:
REMARK  status: ('A' for Active; 'I' for Inactive)
REMARK    1  A    between atoms: C1_2  and  C10_13
REMARK    2  A    between atoms: N1_3  and  C2_4
REMARK                            x       y       z     vdW  Elec       q    Type
REMARK                         _______ _______ _______ _____ _____    ______ ____
ROOT
ATOM      1  O1  UNL     1      20.739   3.129  34.277  0.00  0.00    -0.270 OA
ATOM      2  C1  UNL     1      21.421   3.545  33.301  0.00  0.00    +0.248 C 
ATOM      3  N1  UNL     1      22.314   4.658  33.479  0.00  0.00    -0.281 N 
ATOM      4  H1  UNL     1      23.172   4.701  32.884  0.00  0.00    +0.155 HD
ENDROOT
BRANCH   2   5
ATOM      5  C10 UNL     1      21.330   2.846  31.997  0.00  0.00    +0.038 A 
ATOM      6  C11 UNL     1      21.045   1.454  31.954  0.00  0.00    +0.015 A 
ATOM      7  C12 UNL     1      20.949   0.772  30.727  0.00  0.00    +0.027 A 
ATOM      8  C13 UNL     1      21.135   1.502  29.558  0.00  0.00    +0.047 A 
ATOM      9  N3  UNL     1      21.093   1.040  28.293  0.00  0.00    -0.358 N 
ATOM     10  C14 UNL     1      21.347   2.116  27.513  0.00  0.00    +0.020 A 
ATOM     11  C15 UNL     1      21.512   3.258  28.278  0.00  0.00    -0.019 A 
ATOM     12  C16 UNL     1      21.398   2.849  29.588  0.00  0.00    +0.004 A 
ATOM     13  C17 UNL     1      21.504   3.556  30.784  0.00  0.00    +0.023 A 
ATOM     14  C18 UNL     1      21.876   4.602  27.723  0.00  0.00    +0.037 C 
ATOM     15  C19 UNL     1      21.563   4.659  26.215  0.00  0.00    +0.005 C 
ATOM     16  C20 UNL     1      22.047   3.391  25.480  0.00  0.00    +0.006 C 
ATOM     17  C21 UNL     1      21.352   2.122  26.013  0.00  0.00    +0.053 C 
ATOM     18  H10 UNL     1      20.906   0.061  27.979  0.00  0.00    +0.166 HD
ENDBRANCH   2   5
BRANCH   3  19
ATOM     19  C2  UNL     1      22.176   5.632  34.530  0.00  0.00    +0.034 A 
ATOM     20  C3  UNL     1      23.226   5.866  35.460  0.00  0.00    +0.025 A 
ATOM     21  C4  UNL     1      23.071   6.804  36.496  0.00  0.00    +0.028 A 
ATOM     22  C5  UNL     1      21.858   7.482  36.586  0.00  0.00    +0.047 A 
ATOM     23  N2  UNL     1      21.503   8.405  37.496  0.00  0.00    -0.361 N 
ATOM     24  C6  UNL     1      20.236   8.762  37.183  0.00  0.00    +0.083 A 
ATOM     25  C7  UNL     1      19.785   8.059  36.070  0.00  0.00    +0.027 A 
ATOM     26  C8  UNL     1      20.837   7.248  35.706  0.00  0.00    +0.001 A 
ATOM     27  C9  UNL     1      20.956   6.326  34.669  0.00  0.00    +0.033 A 
ATOM     28  H4  UNL     1      22.081   8.771  38.283  0.00  0.00    +0.165 HD
ENDBRANCH   3  19
TORSDOF 2
ENDMDL
MODEL 2
REMARK VINA RESULT:    -7.134      1.594      8.962
REMARK INTER + INTRA:          -8.269
REMARK INTER:                  -7.865
REMARK INTRA:                  -0.404
REMARK UNBOUND:                -0.301
REMARK  Name = /home/qwerty/github/datacon2025hack/step_04_hit_selection/docking/ligands/lig_252.pdb
REMARK  2 active torsions:
REMARK  status: ('A' for Active; 'I' for Inactive)
REMARK    1  A    between atoms: C1_2  and  C10_13
REMARK    2  A    between atoms: N1_3  and  C2_4
REMARK                            x       y       z     vdW  Elec       q    Type
REMARK                         _______ _______ _______ _____ _____    ______ ____
ROOT
ATOM      1  O1  UNL     1      23.610   5.093  32.867  0.00  0.00    -0.270 OA
ATOM      2  C1  UNL     1      22.439   5.106  33.337  0.00  0.00    +0.248 C 
ATOM      3  N1  UNL     1      21.448   4.211  32.804  0.00  0.00    -0.281 N 
ATOM      4  H1  UNL     1      20.690   3.881  33.443  0.00  0.00    +0.155 HD
ENDROOT
BRANCH   2   5
ATOM      5  C10 UNL     1      22.118   6.009  34.468  0.00  0.00    +0.038 A 
ATOM      6  C11 UNL     1      23.111   6.315  35.439  0.00  0.00    +0.015 A 
ATOM      7  C12 UNL     1      22.828   7.173  36.517  0.00  0.00    +0.027 A 
ATOM      8  C13 UNL     1      21.552   7.719  36.601  0.00  0.00    +0.047 A 
ATOM      9  N3  UNL     1      21.080   8.549  37.552  0.00  0.00    -0.358 N 
ATOM     10  C14 UNL     1      19.794   8.788  37.210  0.00  0.00    +0.020 A 
ATOM     11  C15 UNL     1      19.464   8.141  36.031  0.00  0.00    -0.019 A 
ATOM     12  C16 UNL     1      20.590   7.440  35.662  0.00  0.00    +0.004 A 
ATOM     13  C17 UNL     1      20.833   6.592  34.584  0.00  0.00    +0.023 A 
ATOM     14  C18 UNL     1      18.095   8.144  35.420  0.00  0.00    +0.037 C 
ATOM     15  C19 UNL     1      17.264   9.317  35.976  0.00  0.00    +0.005 C 
ATOM     16  C20 UNL     1      17.399   9.439  37.509  0.00  0.00    +0.006 C 
ATOM     17  C21 UNL     1      18.857   9.707  37.934  0.00  0.00    +0.053 C 
ATOM     18  H10 UNL     1      21.597   8.928  38.378  0.00  0.00    +0.166 HD
ENDBRANCH   2   5
BRANCH   3  19
ATOM     19  C2  UNL     1      21.524   3.624  31.493  0.00  0.00    +0.034 A 
ATOM     20  C3  UNL     1      21.337   4.408  30.322  0.00  0.00    +0.025 A 
ATOM     21  C4  UNL     1      21.392   3.818  29.046  0.00  0.00    +0.028 A 
ATOM     22  C5  UNL     1      21.621   2.447  28.972  0.00  0.00    +0.047 A 
ATOM     23  N2  UNL     1      21.703   1.691  27.864  0.00  0.00    -0.361 N 
ATOM     24  C6  UNL     1      21.923   0.428  28.295  0.00  0.00    +0.083 A 
ATOM     25  C7  UNL     1      21.979   0.382  29.685  0.00  0.00    +0.027 A 
ATOM     26  C8  UNL     1      21.784   1.683  30.095  0.00  0.00    +0.001 A 
ATOM     27  C9  UNL     1      21.735   2.233  31.373  0.00  0.00    +0.033 A 
ATOM     28  H4  UNL     1      21.614   2.009  26.874  0.00  0.00    +0.165 HD
ENDBRANCH   3  19
TORSDOF 2
ENDMDL
MODEL 3
REMARK VINA RESULT:    -7.042     12.378     14.926
REMARK INTER + INTRA:          -8.166
REMARK INTER:                  -7.797
REMARK INTRA:                  -0.369
REMARK UNBOUND:                -0.301
REMARK  Name = /home/qwerty/github/datacon2025hack/step_04_hit_selection/docking/ligands/lig_252.pdb
REMARK  2 active torsions:
REMARK  status: ('A' for Active; 'I' for Inactive)
REMARK    1  A    between atoms: C1_2  and  C10_13
REMARK    2  A    between atoms: N1_3  and  C2_4
REMARK                            x       y       z     vdW  Elec       q    Type
REMARK                         _______ _______ _______ _____ _____    ______ ____
ROOT
ATOM      1  O1  UNL     1      14.048   3.342  23.221  0.00  0.00    -0.270 OA
ATOM      2  C1  UNL     1      13.315   3.006  22.251  0.00  0.00    +0.248 C 
ATOM      3  N1  UNL     1      13.322   1.643  21.793  0.00  0.00    -0.281 N 
ATOM      4  H1  UNL     1      12.447   1.263  21.365  0.00  0.00    +0.155 HD
ENDROOT
BRANCH   2   5
ATOM      5  C10 UNL     1      12.418   4.011  21.631  0.00  0.00    +0.038 A 
ATOM      6  C11 UNL     1      11.230   3.593  20.971  0.00  0.00    +0.015 A 
ATOM      7  C12 UNL     1      10.362   4.530  20.381  0.00  0.00    +0.027 A 
ATOM      8  C13 UNL     1      10.699   5.877  20.468  0.00  0.00    +0.047 A 
ATOM      9  N3  UNL     1      10.013   6.923  19.966  0.00  0.00    -0.358 N 
ATOM     10  C14 UNL     1      10.741   8.015  20.292  0.00  0.00    +0.020 A 
ATOM     11  C15 UNL     1      11.861   7.666  21.027  0.00  0.00    -0.019 A 
ATOM     12  C16 UNL     1      11.837   6.291  21.114  0.00  0.00    +0.004 A 
ATOM     13  C17 UNL     1      12.721   5.392  21.706  0.00  0.00    +0.023 A 
ATOM     14  C18 UNL     1      12.911   8.635  21.482  0.00  0.00    +0.037 C 
ATOM     15  C19 UNL     1      12.355  10.072  21.461  0.00  0.00    +0.005 C 
ATOM     16  C20 UNL     1      11.576  10.367  20.162  0.00  0.00    +0.006 C 
ATOM     17  C21 UNL     1      10.358   9.435  20.001  0.00  0.00    +0.053 C 
ATOM     18  H10 UNL     1       9.113   6.897  19.437  0.00  0.00    +0.166 HD
ENDBRANCH   2   5
BRANCH   3  19
ATOM     19  C2  UNL     1      14.406   0.727  22.027  0.00  0.00    +0.034 A 
ATOM     20  C3  UNL     1      15.503   0.637  21.127  0.00  0.00    +0.025 A 
ATOM     21  C4  UNL     1      16.547  -0.278  21.355  0.00  0.00    +0.028 A 
ATOM     22  C5  UNL     1      16.462  -1.096  22.479  0.00  0.00    +0.047 A 
ATOM     23  N2  UNL     1      17.339  -2.034  22.874  0.00  0.00    -0.361 N 
ATOM     24  C6  UNL     1      16.823  -2.566  24.006  0.00  0.00    +0.083 A 
ATOM     25  C7  UNL     1      15.611  -1.963  24.329  0.00  0.00    +0.027 A 
ATOM     26  C8  UNL     1      15.401  -1.028  23.339  0.00  0.00    +0.001 A 
ATOM     27  C9  UNL     1      14.350  -0.134  23.144  0.00  0.00    +0.033 A 
ATOM     28  H4  UNL     1      18.232  -2.301  22.407  0.00  0.00    +0.165 HD
ENDBRANCH   3  19
TORSDOF 2
ENDMDL
MODEL 4
REMARK VINA RESULT:    -7.037      7.102     11.418
REMARK INTER + INTRA:          -8.161
REMARK INTER:                  -7.786
REMARK INTRA:                  -0.374
REMARK UNBOUND:                -0.301
REMARK  Name = /home/qwerty/github/datacon2025hack/step_04_hit_selection/docking/ligands/lig_252.pdb
REMARK  2 active torsions:
REMARK  status: ('A' for Active; 'I' for Inactive)
REMARK    1  A    between atoms: C1_2  and  C10_13
REMARK    2  A    between atoms: N1_3  and  C2_4
REMARK                            x       y       z     vdW  Elec       q    Type
REMARK                         _______ _______ _______ _____ _____    ______ ____
ROOT
ATOM      1  O1  UNL     1      19.335  12.194  37.013  0.00  0.00    -0.270 OA
ATOM      2  C1  UNL     1      18.407  11.550  36.453  0.00  0.00    +0.248 C 
ATOM      3  N1  UNL     1      18.561  10.139  36.218  0.00  0.00    -0.281 N 
ATOM      4  H1  UNL     1      17.702   9.545  36.212  0.00  0.00    +0.155 HD
ENDROOT
BRANCH   2   5
ATOM      5  C10 UNL     1      17.149  12.247  36.092  0.00  0.00    +0.038 A 
ATOM      6  C11 UNL     1      17.192  13.427  35.300  0.00  0.00    +0.015 A 
ATOM      7  C12 UNL     1      16.010  14.100  34.942  0.00  0.00    +0.027 A 
ATOM      8  C13 UNL     1      14.799  13.574  35.380  0.00  0.00    +0.047 A 
ATOM      9  N3  UNL     1      13.566  14.068  35.156  0.00  0.00    -0.358 N 
ATOM     10  C14 UNL     1      12.722  13.223  35.791  0.00  0.00    +0.020 A 
ATOM     11  C15 UNL     1      13.415  12.181  36.384  0.00  0.00    -0.019 A 
ATOM     12  C16 UNL     1      14.747  12.428  36.135  0.00  0.00    +0.004 A 
ATOM     13  C17 UNL     1      15.896  11.737  36.511  0.00  0.00    +0.023 A 
ATOM     14  C18 UNL     1      12.781  11.115  37.226  0.00  0.00    +0.037 C 
ATOM     15  C19 UNL     1      11.267  11.043  36.945  0.00  0.00    +0.005 C 
ATOM     16  C20 UNL     1      10.624  12.446  36.904  0.00  0.00    +0.006 C 
ATOM     17  C21 UNL     1      11.226  13.319  35.785  0.00  0.00    +0.053 C 
ATOM     18  H10 UNL     1      13.313  14.922  34.609  0.00  0.00    +0.166 HD
ENDBRANCH   2   5
BRANCH   3  19
ATOM     19  C2  UNL     1      19.836   9.477  36.142  0.00  0.00    +0.034 A 
ATOM     20  C3  UNL     1      20.701   9.668  35.029  0.00  0.00    +0.025 A 
ATOM     21  C4  UNL     1      21.935   8.998  34.956  0.00  0.00    +0.028 A 
ATOM     22  C5  UNL     1      22.272   8.136  35.997  0.00  0.00    +0.047 A 
ATOM     23  N2  UNL     1      23.389   7.400  36.119  0.00  0.00    -0.361 N 
ATOM     24  C6  UNL     1      23.257   6.721  37.282  0.00  0.00    +0.083 A 
ATOM     25  C7  UNL     1      22.048   7.028  37.900  0.00  0.00    +0.027 A 
ATOM     26  C8  UNL     1      21.436   7.933  37.061  0.00  0.00    +0.001 A 
ATOM     27  C9  UNL     1      20.207   8.580  37.165  0.00  0.00    +0.033 A 
ATOM     28  H4  UNL     1      24.193   7.356  35.456  0.00  0.00    +0.165 HD
ENDBRANCH   3  19
TORSDOF 2
ENDMDL
MODEL 5
REMARK VINA RESULT:    -7.001      5.993     10.685
REMARK INTER + INTRA:          -8.120
REMARK INTER:                  -7.822
REMARK INTRA:                  -0.298
REMARK UNBOUND:                -0.301
REMARK  Name = /home/qwerty/github/datacon2025hack/step_04_hit_selection/docking/ligands/lig_252.pdb
REMARK  2 active torsions:
REMARK  status: ('A' for Active; 'I' for Inactive)
REMARK    1  A    between atoms: C1_2  and  C10_13
REMARK    2  A    between atoms: N1_3  and  C2_4
REMARK                            x       y       z     vdW  Elec       q    Type
REMARK                         _______ _______ _______ _____ _____    ______ ____
ROOT
ATOM      1  O1  UNL     1      18.372   9.007  34.572  0.00  0.00    -0.270 OA
ATOM      2  C1  UNL     1      18.510   9.755  35.579  0.00  0.00    +0.248 C 
ATOM      3  N1  UNL     1      19.797   9.871  36.209  0.00  0.00    -0.281 N 
ATOM      4  H1  UNL     1      20.033  10.771  36.684  0.00  0.00    +0.155 HD
ENDROOT
BRANCH   2   5
ATOM      5  C10 UNL     1      17.352  10.543  36.065  0.00  0.00    +0.038 A 
ATOM      6  C11 UNL     1      17.556  11.834  36.626  0.00  0.00    +0.015 A 
ATOM      7  C12 UNL     1      16.472  12.602  37.088  0.00  0.00    +0.027 A 
ATOM      8  C13 UNL     1      15.195  12.063  36.975  0.00  0.00    +0.047 A 
ATOM      9  N3  UNL     1      14.034  12.627  37.363  0.00  0.00    -0.358 N 
ATOM     10  C14 UNL     1      13.078  11.719  37.059  0.00  0.00    +0.020 A 
ATOM     11  C15 UNL     1      13.627  10.603  36.451  0.00  0.00    -0.019 A 
ATOM     12  C16 UNL     1      14.986  10.823  36.423  0.00  0.00    +0.004 A 
ATOM     13  C17 UNL     1      16.036  10.034  35.959  0.00  0.00    +0.023 A 
ATOM     14  C18 UNL     1      12.846   9.385  36.057  0.00  0.00    +0.037 C 
ATOM     15  C19 UNL     1      11.346   9.721  35.961  0.00  0.00    +0.005 C 
ATOM     16  C20 UNL     1      10.867  10.559  37.166  0.00  0.00    +0.006 C 
ATOM     17  C21 UNL     1      11.603  11.911  37.250  0.00  0.00    +0.053 C 
ATOM     18  H10 UNL     1      13.899  13.565  37.803  0.00  0.00    +0.166 HD
ENDBRANCH   2   5
BRANCH   3  19
ATOM     19  C2  UNL     1      20.835   8.881  36.093  0.00  0.00    +0.034 A 
ATOM     20  C3  UNL     1      21.063   7.927  37.123  0.00  0.00    +0.025 A 
ATOM     21  C4  UNL     1      22.095   6.979  37.008  0.00  0.00    +0.028 A 
ATOM     22  C5  UNL     1      22.889   7.015  35.864  0.00  0.00    +0.047 A 
ATOM     23  N2  UNL     1      23.923   6.212  35.562  0.00  0.00    -0.361 N 
ATOM     24  C6  UNL     1      24.382   6.638  34.363  0.00  0.00    +0.083 A 
ATOM     25  C7  UNL     1      23.635   7.719  33.903  0.00  0.00    +0.027 A 
ATOM     26  C8  UNL     1      22.688   7.942  34.878  0.00  0.00    +0.001 A 
ATOM     27  C9  UNL     1      21.676   8.896  34.960  0.00  0.00    +0.033 A 
ATOM     28  H4  UNL     1      24.299   5.424  36.132  0.00  0.00    +0.165 HD
ENDBRANCH   3  19
TORSDOF 2
ENDMDL
MODEL 6
REMARK VINA RESULT:    -6.989      6.959     11.160
REMARK INTER + INTRA:          -8.107
REMARK INTER:                  -7.720
REMARK INTRA:                  -0.387
REMARK UNBOUND:                -0.301
REMARK  Name = /home/qwerty/github/datacon2025hack/step_04_hit_selection/docking/ligands/lig_252.pdb
REMARK  2 active torsions:
REMARK  status: ('A' for Active; 'I' for Inactive)
REMARK    1  A    between atoms: C1_2  and  C10_13
REMARK    2  A    between atoms: N1_3  and  C2_4
REMARK                            x       y       z     vdW  Elec       q    Type
REMARK                         _______ _______ _______ _____ _____    ______ ____
ROOT
ATOM      1  O1  UNL     1      16.263  13.286  36.257  0.00  0.00    -0.270 OA
ATOM      2  C1  UNL     1      16.072  12.063  36.011  0.00  0.00    +0.248 C 
ATOM      3  N1  UNL     1      15.017  11.673  35.116  0.00  0.00    -0.281 N 
ATOM      4  H1  UNL     1      15.141  10.797  34.560  0.00  0.00    +0.155 HD
ENDROOT
BRANCH   2   5
ATOM      5  C10 UNL     1      16.974  11.049  36.609  0.00  0.00    +0.038 A 
ATOM      6  C11 UNL     1      16.668  10.485  37.878  0.00  0.00    +0.015 A 
ATOM      7  C12 UNL     1      17.507   9.518  38.461  0.00  0.00    +0.027 A 
ATOM      8  C13 UNL     1      18.640   9.125  37.755  0.00  0.00    +0.047 A 
ATOM      9  N3  UNL     1      19.569   8.227  38.139  0.00  0.00    -0.358 N 
ATOM     10  C14 UNL     1      20.474   8.200  37.134  0.00  0.00    +0.020 A 
ATOM     11  C15 UNL     1      20.101   9.048  36.105  0.00  0.00    -0.019 A 
ATOM     12  C16 UNL     1      18.937   9.654  36.524  0.00  0.00    +0.004 A 
ATOM     13  C17 UNL     1      18.132  10.616  35.918  0.00  0.00    +0.023 A 
ATOM     14  C18 UNL     1      20.924   9.302  34.878  0.00  0.00    +0.037 C 
ATOM     15  C19 UNL     1      21.950   8.170  34.680  0.00  0.00    +0.005 C 
ATOM     16  C20 UNL     1      22.666   7.807  35.999  0.00  0.00    +0.006 C 
ATOM     17  C21 UNL     1      21.674   7.304  37.067  0.00  0.00    +0.053 C 
ATOM     18  H10 UNL     1      19.588   7.671  39.023  0.00  0.00    +0.166 HD
ENDBRANCH   2   5
BRANCH   3  19
ATOM     19  C2  UNL     1      13.871  12.494  34.827  0.00  0.00    +0.034 A 
ATOM     20  C3  UNL     1      13.834  13.329  33.676  0.00  0.00    +0.025 A 
ATOM     21  C4  UNL     1      12.718  14.144  33.416  0.00  0.00    +0.028 A 
ATOM     22  C5  UNL     1      11.663  14.115  34.325  0.00  0.00    +0.047 A 
ATOM     23  N2  UNL     1      10.517  14.814  34.270  0.00  0.00    -0.361 N 
ATOM     24  C6  UNL     1       9.817  14.461  35.373  0.00  0.00    +0.083 A 
ATOM     25  C7  UNL     1      10.525  13.534  36.132  0.00  0.00    +0.027 A 
ATOM     26  C8  UNL     1      11.700  13.329  35.444  0.00  0.00    +0.001 A 
ATOM     27  C9  UNL     1      12.790  12.510  35.733  0.00  0.00    +0.033 A 
ATOM     28  H4  UNL     1      10.225  15.491  33.532  0.00  0.00    +0.165 HD
ENDBRANCH   3  19
TORSDOF 2
ENDMDL
MODEL 7
REMARK VINA RESULT:    -6.923     13.639     14.688
REMARK INTER + INTRA:          -8.034
REMARK INTER:                  -7.701
REMARK INTRA:                  -0.333
REMARK UNBOUND:                -0.301
REMARK  Name = /home/qwerty/github/datacon2025hack/step_04_hit_selection/docking/ligands/lig_252.pdb
REMARK  2 active torsions:
REMARK  status: ('A' for Active; 'I' for Inactive)
REMARK    1  A    between atoms: C1_2  and  C10_13
REMARK    2  A    between atoms: N1_3  and  C2_4
REMARK                            x       y       z     vdW  Elec       q    Type
REMARK                         _______ _______ _______ _____ _____    ______ ____
ROOT
ATOM      1  O1  UNL     1      17.545   7.238  21.286  0.00  0.00    -0.270 OA
ATOM      2  C1  UNL     1      16.810   7.012  20.286  0.00  0.00    +0.248 C 
ATOM      3  N1  UNL     1      16.893   7.869  19.134  0.00  0.00    -0.281 N 
ATOM      4  H1  UNL     1      16.683   7.456  18.197  0.00  0.00    +0.155 HD
ENDROOT
BRANCH   2   5
ATOM      5  C10 UNL     1      15.908   5.836  20.294  0.00  0.00    +0.038 A 
ATOM      6  C11 UNL     1      16.360   4.589  19.779  0.00  0.00    +0.015 A 
ATOM      7  C12 UNL     1      15.523   3.459  19.782  0.00  0.00    +0.027 A 
ATOM      8  C13 UNL     1      14.243   3.595  20.310  0.00  0.00    +0.047 A 
ATOM      9  N3  UNL     1      13.291   2.645  20.397  0.00  0.00    -0.358 N 
ATOM     10  C14 UNL     1      12.227   3.258  20.964  0.00  0.00    +0.020 A 
ATOM     11  C15 UNL     1      12.516   4.578  21.266  0.00  0.00    -0.019 A 
ATOM     12  C16 UNL     1      13.802   4.791  20.821  0.00  0.00    +0.004 A 
ATOM     13  C17 UNL     1      14.602   5.931  20.831  0.00  0.00    +0.023 A 
ATOM     14  C18 UNL     1      11.528   5.551  21.836  0.00  0.00    +0.037 C 
ATOM     15  C19 UNL     1      10.349   4.797  22.482  0.00  0.00    +0.005 C 
ATOM     16  C20 UNL     1       9.838   3.652  21.581  0.00  0.00    +0.006 C 
ATOM     17  C21 UNL     1      10.931   2.596  21.324  0.00  0.00    +0.053 C 
ATOM     18  H10 UNL     1      13.359   1.648  20.092  0.00  0.00    +0.166 HD
ENDBRANCH   2   5
BRANCH   3  19
ATOM     19  C2  UNL     1      17.394   9.217  19.176  0.00  0.00    +0.034 A 
ATOM     20  C3  UNL     1      16.514  10.328  19.295  0.00  0.00    +0.025 A 
ATOM     21  C4  UNL     1      17.015  11.642  19.312  0.00  0.00    +0.028 A 
ATOM     22  C5  UNL     1      18.392  11.816  19.195  0.00  0.00    +0.047 A 
ATOM     23  N2  UNL     1      19.070  12.976  19.182  0.00  0.00    -0.361 N 
ATOM     24  C6  UNL     1      20.372  12.640  19.039  0.00  0.00    +0.083 A 
ATOM     25  C7  UNL     1      20.520  11.258  18.959  0.00  0.00    +0.027 A 
ATOM     26  C8  UNL     1      19.242  10.753  19.061  0.00  0.00    +0.001 A 
ATOM     27  C9  UNL     1      18.781   9.440  19.040  0.00  0.00    +0.033 A 
ATOM     28  H4  UNL     1      18.677  13.939  19.263  0.00  0.00    +0.165 HD
ENDBRANCH   3  19
TORSDOF 2
ENDMDL
MODEL 8
REMARK VINA RESULT:    -6.885      8.321     10.045
REMARK INTER + INTRA:          -7.991
REMARK INTER:                  -7.693
REMARK INTRA:                  -0.298
REMARK UNBOUND:                -0.301
REMARK  Name = /home/qwerty/github/datacon2025hack/step_04_hit_selection/docking/ligands/lig_252.pdb
REMARK  2 active torsions:
REMARK  status: ('A' for Active; 'I' for Inactive)
REMARK    1  A    between atoms: C1_2  and  C10_13
REMARK    2  A    between atoms: N1_3  and  C2_4
REMARK                            x       y       z     vdW  Elec       q    Type
REMARK                         _______ _______ _______ _____ _____    ______ ____
ROOT
ATOM      1  O1  UNL     1      20.928  11.011  31.227  0.00  0.00    -0.270 OA
ATOM      2  C1  UNL     1      21.802  11.455  30.434  0.00  0.00    +0.248 C 
ATOM      3  N1  UNL     1      22.969  10.667  30.146  0.00  0.00    -0.281 N 
ATOM      4  H1  UNL     1      23.417  10.775  29.208  0.00  0.00    +0.155 HD
ENDROOT
BRANCH   2   5
ATOM      5  C10 UNL     1      21.586  12.763  29.769  0.00  0.00    +0.038 A 
ATOM      6  C11 UNL     1      20.683  13.707  30.332  0.00  0.00    +0.015 A 
ATOM      7  C12 UNL     1      20.467  14.955  29.720  0.00  0.00    +0.027 A 
ATOM      8  C13 UNL     1      21.169  15.241  28.554  0.00  0.00    +0.047 A 
ATOM      9  N3  UNL     1      21.099  16.366  27.815  0.00  0.00    -0.358 N 
ATOM     10  C14 UNL     1      21.947  16.166  26.781  0.00  0.00    +0.020 A 
ATOM     11  C15 UNL     1      22.576  14.937  26.883  0.00  0.00    -0.019 A 
ATOM     12  C16 UNL     1      22.052  14.342  28.009  0.00  0.00    +0.004 A 
ATOM     13  C17 UNL     1      22.288  13.095  28.585  0.00  0.00    +0.023 A 
ATOM     14  C18 UNL     1      23.520  14.381  25.859  0.00  0.00    +0.037 C 
ATOM     15  C19 UNL     1      24.065  15.514  24.967  0.00  0.00    +0.005 C 
ATOM     16  C20 UNL     1      22.947  16.474  24.511  0.00  0.00    +0.006 C 
ATOM     17  C21 UNL     1      22.263  17.165  25.708  0.00  0.00    +0.053 C 
ATOM     18  H10 UNL     1      20.516  17.213  28.001  0.00  0.00    +0.166 HD
ENDBRANCH   2   5
BRANCH   3  19
ATOM     19  C2  UNL     1      23.466   9.630  31.011  0.00  0.00    +0.034 A 
ATOM     20  C3  UNL     1      24.601   9.843  31.841  0.00  0.00    +0.025 A 
ATOM     21  C4  UNL     1      25.090   8.814  32.665  0.00  0.00    +0.028 A 
ATOM     22  C5  UNL     1      24.437   7.585  32.631  0.00  0.00    +0.047 A 
ATOM     23  N2  UNL     1      24.742   6.477  33.328  0.00  0.00    -0.361 N 
ATOM     24  C6  UNL     1      23.837   5.545  32.953  0.00  0.00    +0.083 A 
ATOM     25  C7  UNL     1      22.953   6.064  32.012  0.00  0.00    +0.027 A 
ATOM     26  C8  UNL     1      23.356   7.367  31.822  0.00  0.00    +0.001 A 
ATOM     27  C9  UNL     1      22.845   8.363  30.992  0.00  0.00    +0.033 A 
ATOM     28  H4  UNL     1      25.518   6.357  34.015  0.00  0.00    +0.165 HD
ENDBRANCH   3  19
TORSDOF 2
ENDMDL
MODEL 9
REMARK VINA RESULT:    -6.836      6.064      8.344
REMARK INTER + INTRA:          -7.936
REMARK INTER:                  -7.728
REMARK INTRA:                  -0.208
REMARK UNBOUND:                -0.301
REMARK  Name = /home/qwerty/github/datacon2025hack/step_04_hit_selection/docking/ligands/lig_252.pdb
REMARK  2 active torsions:
REMARK  status: ('A' for Active; 'I' for Inactive)
REMARK    1  A    between atoms: C1_2  and  C10_13
REMARK    2  A    between atoms: N1_3  and  C2_4
REMARK                            x       y       z     vdW  Elec       q    Type
REMARK                         _______ _______ _______ _____ _____    ______ ____
ROOT
ATOM      1  O1  UNL     1      17.478   8.911  35.320  0.00  0.00    -0.270 OA
ATOM      2  C1  UNL     1      18.435   9.457  35.935  0.00  0.00    +0.248 C 
ATOM      3  N1  UNL     1      18.167  10.508  36.879  0.00  0.00    -0.281 N 
ATOM      4  H1  UNL     1      18.821  10.622  37.686  0.00  0.00    +0.155 HD
ENDROOT
BRANCH   2   5
ATOM      5  C10 UNL     1      19.817   8.971  35.711  0.00  0.00    +0.038 A 
ATOM      6  C11 UNL     1      20.434   8.116  36.665  0.00  0.00    +0.015 A 
ATOM      7  C12 UNL     1      21.743   7.640  36.470  0.00  0.00    +0.027 A 
ATOM      8  C13 UNL     1      22.412   8.023  35.312  0.00  0.00    +0.047 A 
ATOM      9  N3  UNL     1      23.664   7.686  34.944  0.00  0.00    -0.358 N 
ATOM     10  C14 UNL     1      23.867   8.310  33.761  0.00  0.00    +0.020 A 
ATOM     11  C15 UNL     1      22.739   9.008  33.366  0.00  0.00    -0.019 A 
ATOM     12  C16 UNL     1      21.821   8.837  34.378  0.00  0.00    +0.004 A 
ATOM     13  C17 UNL     1      20.528   9.331  34.541  0.00  0.00    +0.023 A 
ATOM     14  C18 UNL     1      22.661   9.864  32.138  0.00  0.00    +0.037 C 
ATOM     15  C19 UNL     1      23.781   9.484  31.151  0.00  0.00    +0.005 C 
ATOM     16  C20 UNL     1      25.141   9.318  31.862  0.00  0.00    +0.006 C 
ATOM     17  C21 UNL     1      25.101   8.194  32.917  0.00  0.00    +0.053 C 
ATOM     18  H10 UNL     1      24.336   7.074  35.461  0.00  0.00    +0.166 HD
ENDBRANCH   2   5
BRANCH   3  19
ATOM     19  C2  UNL     1      16.973  11.309  36.865  0.00  0.00    +0.034 A 
ATOM     20  C3  UNL     1      15.710  10.759  37.219  0.00  0.00    +0.025 A 
ATOM     21  C4  UNL     1      14.546  11.547  37.179  0.00  0.00    +0.028 A 
ATOM     22  C5  UNL     1      14.670  12.872  36.771  0.00  0.00    +0.047 A 
ATOM     23  N2  UNL     1      13.693  13.787  36.657  0.00  0.00    -0.361 N 
ATOM     24  C6  UNL     1      14.294  14.917  36.220  0.00  0.00    +0.083 A 
ATOM     25  C7  UNL     1      15.662  14.716  36.054  0.00  0.00    +0.027 A 
ATOM     26  C8  UNL     1      15.878  13.404  36.412  0.00  0.00    +0.001 A 
ATOM     27  C9  UNL     1      17.051  12.652  36.439  0.00  0.00    +0.033 A 
ATOM     28  H4  UNL     1      12.678  13.656  36.861  0.00  0.00    +0.165 HD
ENDBRANCH   3  19
TORSDOF 2
ENDMDL
