REMARK  Name = /home/qwerty/github/datacon2025hack/step_04_hit_selection/docking/ligands/lig_656.pdb
REMARK  6 active torsions:
REMARK  status: ('A' for Active; 'I' for Inactive)
REMARK    1  A    between atoms: C1_1  and  O1_2
REMARK    2  A    between atoms: O1_2  and  C2_3
REMARK    3  A    between atoms: C2_3  and  C3_5
REMARK    4  A    between atoms: C11_15  and  C12_17
REMARK    5  A    between atoms: C15_20  and  N2_21
REMARK    6  A    between atoms: C18_24  and  O5_25
REMARK                            x       y       z     vdW  Elec       q    Type
REMARK                         _______ _______ _______ _____ _____    ______ ____
ROOT
ATOM      1  C3  UNL     1       4.676   0.042   0.328  0.00  0.00    +0.062 A 
ATOM      2  C4  UNL     1       4.749   1.324  -0.234  0.00  0.00    +0.015 A 
ATOM      3  C5  UNL     1       4.097   1.609  -1.433  0.00  0.00    +0.009 A 
ATOM      4  C6  UNL     1       3.356   0.622  -2.102  0.00  0.00    +0.012 A 
ATOM      5  C7  UNL     1       3.311  -0.692  -1.562  0.00  0.00    +0.126 A 
ATOM      6  C8  UNL     1       3.957  -0.956  -0.348  0.00  0.00    +0.061 A 
ATOM      7  O3  UNL     1       2.628  -1.767  -2.162  0.00  0.00    -0.490 OA
ATOM      8  C9  UNL     1       2.198  -1.837  -3.519  0.00  0.00    +0.248 C 
ATOM      9  C10 UNL     1       1.003  -0.914  -3.777  0.00  0.00    +0.149 C 
ATOM     10  N1  UNL     1       1.263   0.461  -3.336  0.00  0.00    -0.290 N 
ATOM     11  C11 UNL     1       0.161   1.325  -3.005  0.00  0.00    +0.247 C 
ATOM     12  O4  UNL     1       0.018   2.409  -3.637  0.00  0.00    -0.270 OA
ATOM     13  C23 UNL     1       2.623   1.007  -3.362  0.00  0.00    +0.147 C 
ENDROOT
BRANCH  11  14
ATOM     14  C12 UNL     1      -0.784   0.988  -1.912  0.00  0.00    +0.037 A 
ATOM     15  C13 UNL     1      -2.032   1.627  -1.834  0.00  0.00    +0.015 A 
ATOM     16  C14 UNL     1      -2.915   1.340  -0.789  0.00  0.00    +0.024 A 
ATOM     17  C15 UNL     1      -2.569   0.406   0.201  0.00  0.00    +0.030 A 
ATOM     18  C21 UNL     1      -1.317  -0.227   0.129  0.00  0.00    +0.024 A 
ATOM     19  C22 UNL     1      -0.432   0.065  -0.912  0.00  0.00    +0.015 A 
BRANCH  17  20
ATOM     20  N2  UNL     1      -3.480   0.110   1.279  0.00  0.00    -0.330 N 
ATOM     21  C16 UNL     1      -3.612  -1.265   1.784  0.00  0.00    +0.107 C 
ATOM     22  C17 UNL     1      -5.076  -1.570   2.128  0.00  0.00    +0.050 C 
ATOM     23  C18 UNL     1      -5.744  -0.490   3.023  0.00  0.00    +0.118 C 
ATOM     24  C19 UNL     1      -4.848   0.740   3.254  0.00  0.00    +0.050 C 
ATOM     25  C20 UNL     1      -4.189   1.209   1.953  0.00  0.00    +0.107 C 
BRANCH  23  26
ATOM     26  O5  UNL     1      -6.956  -0.071   2.447  0.00  0.00    -0.392 OA
ATOM     27  H18 UNL     1      -7.609  -0.808   2.580  0.00  0.00    +0.210 HD
ENDBRANCH  23  26
ENDBRANCH  17  20
ENDBRANCH  11  14
BRANCH   1  28
ATOM     28  C2  UNL     1       5.342  -0.258   1.616  0.00  0.00    +0.339 C 
ATOM     29  O2  UNL     1       6.015   0.634   2.203  0.00  0.00    -0.245 OA
BRANCH  28  31
ATOM     30  C1  UNL     1       5.790  -1.871   3.442  0.00  0.00    +0.280 C 
ATOM     31  O1  UNL     1       5.216  -1.530   2.186  0.00  0.00    -0.464 OA
ENDBRANCH  28  31
ENDBRANCH   1  28
TORSDOF 5
