MODEL 1
REMARK VINA RESULT:    -7.327      0.000      0.000
REMARK INTER + INTRA:         -10.560
REMARK INTER:                  -9.468
REMARK INTRA:                  -1.092
REMARK UNBOUND:                -1.092
REMARK  Name = /home/qwerty/github/datacon2025hack/step_04_hit_selection/docking/ligands/lig_81.pdb
REMARK  8 active torsions:
REMARK  status: ('A' for Active; 'I' for Inactive)
REMARK    1  A    between atoms: C1_1  and  C2_2
REMARK    2  A    between atoms: C2_2  and  N1_3
REMARK    3  A    between atoms: N1_3  and  C3_4
REMARK    4  A    between atoms: C4_5  and  C5_7
REMARK    5  A    between atoms: C9_11  and  C10_12
REMARK    6  A    between atoms: C12_14  and  C13_15
REMARK    7  A    between atoms: C16_18  and  C17_19
REMARK    8  A    between atoms: N3_22  and  C19_23
REMARK                            x       y       z     vdW  Elec       q    Type
REMARK                         _______ _______ _______ _____ _____    ______ ____
ROOT
ATOM      1  C10 UNL     1      20.902  14.982  29.927  0.00  0.00    +0.072 A 
ATOM      2  C11 UNL     1      20.567  14.232  31.069  0.00  0.00    +0.038 A 
ATOM      3  C12 UNL     1      19.504  14.643  31.893  0.00  0.00    +0.002 A 
ATOM      4  C24 UNL     1      18.801  15.811  31.555  0.00  0.00    +0.029 A 
ATOM      5  C25 UNL     1      19.169  16.536  30.423  0.00  0.00    +0.112 A 
ATOM      6  N6  UNL     1      20.197  16.112  29.646  0.00  0.00    -0.255 NA
ENDROOT
BRANCH   3   7
ATOM      7  C13 UNL     1      19.143  13.863  33.104  0.00  0.00    +0.048 A 
ATOM      8  C14 UNL     1      17.934  13.954  33.797  0.00  0.00    +0.037 A 
ATOM      9  C15 UNL     1      18.036  13.053  34.842  0.00  0.00    +0.011 A 
ATOM     10  C16 UNL     1      17.131  12.679  35.849  0.00  0.00    +0.012 A 
ATOM     11  C21 UNL     1      17.547  11.643  36.715  0.00  0.00    +0.120 A 
ATOM     12  N4  UNL     1      18.778  11.062  36.573  0.00  0.00    -0.261 NA
ATOM     13  C22 UNL     1      19.652  11.445  35.598  0.00  0.00    +0.137 A 
ATOM     14  C23 UNL     1      19.262  12.455  34.725  0.00  0.00    +0.066 A 
ATOM     15  N5  UNL     1      19.951  12.940  33.682  0.00  0.00    -0.353 N 
ATOM     16  H21 UNL     1      20.897  12.630  33.367  0.00  0.00    +0.166 HD
BRANCH  10  17
ATOM     17  C17 UNL     1      15.808  13.316  36.020  0.00  0.00    +0.022 A 
ATOM     18  C18 UNL     1      15.531  14.603  36.454  0.00  0.00    +0.143 A 
ATOM     19  N2  UNL     1      14.196  14.774  36.514  0.00  0.00    -0.179 NA
ATOM     20  N3  UNL     1      13.630  13.636  36.145  0.00  0.00    -0.274 N 
ATOM     21  C19 UNL     1      12.191  13.432  36.054  0.00  0.00    +0.172 C 
ATOM     22  C20 UNL     1      14.573  12.727  35.841  0.00  0.00    +0.116 A 
ENDBRANCH  10  17
ENDBRANCH   3   7
BRANCH   1  27
ATOM     23  C5  UNL     1      23.111  14.690  26.850  0.00  0.00    +0.038 A 
ATOM     24  C6  UNL     1      24.103  13.809  27.309  0.00  0.00    +0.013 A 
ATOM     25  C7  UNL     1      24.064  13.327  28.617  0.00  0.00    +0.001 A 
ATOM     26  C8  UNL     1      23.034  13.711  29.479  0.00  0.00    +0.010 A 
ATOM     27  C9  UNL     1      22.022  14.584  29.036  0.00  0.00    +0.001 A 
ATOM     28  C26 UNL     1      22.064  15.055  27.710  0.00  0.00    +0.023 A 
BRANCH  23  31
ATOM     29  N1  UNL     1      22.853  14.319  24.342  0.00  0.00    -0.301 N 
ATOM     30  C3  UNL     1      21.805  13.301  24.463  0.00  0.00    +0.132 C 
ATOM     31  C4  UNL     1      23.149  15.185  25.458  0.00  0.00    +0.246 C 
ATOM     32  O1  UNL     1      23.444  16.393  25.249  0.00  0.00    -0.270 OA
BRANCH  29  34
ATOM     33  C1  UNL     1      24.856  14.088  22.924  0.00  0.00    +0.024 C 
ATOM     34  C2  UNL     1      23.425  14.609  23.021  0.00  0.00    +0.104 C 
ENDBRANCH  29  34
ENDBRANCH  23  31
ENDBRANCH   1  27
TORSDOF 5
ENDMDL
MODEL 2
REMARK VINA RESULT:    -7.267      8.008     12.272
REMARK INTER + INTRA:         -10.484
REMARK INTER:                  -9.541
REMARK INTRA:                  -0.942
REMARK UNBOUND:                -1.092
REMARK  Name = /home/qwerty/github/datacon2025hack/step_04_hit_selection/docking/ligands/lig_81.pdb
REMARK  8 active torsions:
REMARK  status: ('A' for Active; 'I' for Inactive)
REMARK    1  A    between atoms: C1_1  and  C2_2
REMARK    2  A    between atoms: C2_2  and  N1_3
REMARK    3  A    between atoms: N1_3  and  C3_4
REMARK    4  A    between atoms: C4_5  and  C5_7
REMARK    5  A    between atoms: C9_11  and  C10_12
REMARK    6  A    between atoms: C12_14  and  C13_15
REMARK    7  A    between atoms: C16_18  and  C17_19
REMARK    8  A    between atoms: N3_22  and  C19_23
REMARK                            x       y       z     vdW  Elec       q    Type
REMARK                         _______ _______ _______ _____ _____    ______ ____
ROOT
ATOM      1  C10 UNL     1      21.520   7.069  35.377  0.00  0.00    +0.072 A 
ATOM      2  C11 UNL     1      21.119   5.945  34.634  0.00  0.00    +0.038 A 
ATOM      3  C12 UNL     1      22.073   5.192  33.926  0.00  0.00    +0.002 A 
ATOM      4  C24 UNL     1      23.418   5.592  33.974  0.00  0.00    +0.029 A 
ATOM      5  C25 UNL     1      23.778   6.719  34.712  0.00  0.00    +0.112 A 
ATOM      6  N6  UNL     1      22.834   7.423  35.387  0.00  0.00    -0.255 NA
ENDROOT
BRANCH   3   7
ATOM      7  C13 UNL     1      21.661   4.006  33.133  0.00  0.00    +0.048 A 
ATOM      8  C14 UNL     1      21.842   3.847  31.757  0.00  0.00    +0.037 A 
ATOM      9  C15 UNL     1      21.318   2.603  31.455  0.00  0.00    +0.011 A 
ATOM     10  C16 UNL     1      21.243   1.884  30.251  0.00  0.00    +0.012 A 
ATOM     11  C21 UNL     1      20.707   0.579  30.329  0.00  0.00    +0.120 A 
ATOM     12  N4  UNL     1      20.273   0.070  31.523  0.00  0.00    -0.261 NA
ATOM     13  C22 UNL     1      20.339   0.785  32.683  0.00  0.00    +0.137 A 
ATOM     14  C23 UNL     1      20.873   2.068  32.634  0.00  0.00    +0.066 A 
ATOM     15  N5  UNL     1      21.065   2.909  33.661  0.00  0.00    -0.353 N 
ATOM     16  H21 UNL     1      20.837   2.724  34.664  0.00  0.00    +0.166 HD
BRANCH  10  17
ATOM     17  C17 UNL     1      21.692   2.437  28.955  0.00  0.00    +0.022 A 
ATOM     18  C18 UNL     1      22.709   1.972  28.136  0.00  0.00    +0.143 A 
ATOM     19  N2  UNL     1      22.828   2.786  27.069  0.00  0.00    -0.179 NA
ATOM     20  N3  UNL     1      21.929   3.749  27.199  0.00  0.00    -0.274 N 
ATOM     21  C19 UNL     1      21.727   4.813  26.226  0.00  0.00    +0.172 C 
ATOM     22  C20 UNL     1      21.223   3.575  28.330  0.00  0.00    +0.116 A 
ENDBRANCH  10  17
ENDBRANCH   3   7
BRANCH   1  27
ATOM     23  C5  UNL     1      19.407  10.032  36.467  0.00  0.00    +0.038 A 
ATOM     24  C6  UNL     1      18.729   9.493  37.571  0.00  0.00    +0.013 A 
ATOM     25  C7  UNL     1      18.943   8.166  37.948  0.00  0.00    +0.001 A 
ATOM     26  C8  UNL     1      19.841   7.368  37.235  0.00  0.00    +0.010 A 
ATOM     27  C9  UNL     1      20.541   7.892  36.132  0.00  0.00    +0.001 A 
ATOM     28  C26 UNL     1      20.326   9.235  35.767  0.00  0.00    +0.023 A 
BRANCH  23  31
ATOM     29  N1  UNL     1      18.360  11.795  34.954  0.00  0.00    -0.301 N 
ATOM     30  C3  UNL     1      17.148  11.022  34.665  0.00  0.00    +0.132 C 
ATOM     31  C4  UNL     1      19.187  11.442  36.082  0.00  0.00    +0.246 C 
ATOM     32  O1  UNL     1      19.736  12.351  36.762  0.00  0.00    -0.270 OA
BRANCH  29  34
ATOM     33  C1  UNL     1      17.472  14.055  34.526  0.00  0.00    +0.024 C 
ATOM     34  C2  UNL     1      18.594  13.059  34.244  0.00  0.00    +0.104 C 
ENDBRANCH  29  34
ENDBRANCH  23  31
ENDBRANCH   1  27
TORSDOF 5
ENDMDL
MODEL 3
REMARK VINA RESULT:    -7.249     15.337     17.383
REMARK INTER + INTRA:         -10.459
REMARK INTER:                  -9.327
REMARK INTRA:                  -1.132
REMARK UNBOUND:                -1.092
REMARK  Name = /home/qwerty/github/datacon2025hack/step_04_hit_selection/docking/ligands/lig_81.pdb
REMARK  8 active torsions:
REMARK  status: ('A' for Active; 'I' for Inactive)
REMARK    1  A    between atoms: C1_1  and  C2_2
REMARK    2  A    between atoms: C2_2  and  N1_3
REMARK    3  A    between atoms: N1_3  and  C3_4
REMARK    4  A    between atoms: C4_5  and  C5_7
REMARK    5  A    between atoms: C9_11  and  C10_12
REMARK    6  A    between atoms: C12_14  and  C13_15
REMARK    7  A    between atoms: C16_18  and  C17_19
REMARK    8  A    between atoms: N3_22  and  C19_23
REMARK                            x       y       z     vdW  Elec       q    Type
REMARK                         _______ _______ _______ _____ _____    ______ ____
ROOT
ATOM      1  C10 UNL     1      14.910   2.248  20.578  0.00  0.00    +0.072 A 
ATOM      2  C11 UNL     1      13.576   2.416  20.989  0.00  0.00    +0.038 A 
ATOM      3  C12 UNL     1      12.874   3.583  20.640  0.00  0.00    +0.002 A 
ATOM      4  C24 UNL     1      13.534   4.567  19.885  0.00  0.00    +0.029 A 
ATOM      5  C25 UNL     1      14.861   4.371  19.505  0.00  0.00    +0.112 A 
ATOM      6  N6  UNL     1      15.510   3.232  19.855  0.00  0.00    -0.255 NA
ENDROOT
BRANCH   3   7
ATOM      7  C13 UNL     1      11.467   3.776  21.072  0.00  0.00    +0.048 A 
ATOM      8  C14 UNL     1      10.912   3.307  22.265  0.00  0.00    +0.037 A 
ATOM      9  C15 UNL     1       9.591   3.718  22.248  0.00  0.00    +0.011 A 
ATOM     10  C16 UNL     1       8.553   3.574  23.182  0.00  0.00    +0.012 A 
ATOM     11  C21 UNL     1       7.330   4.207  22.866  0.00  0.00    +0.120 A 
ATOM     12  N4  UNL     1       7.182   4.903  21.696  0.00  0.00    -0.261 NA
ATOM     13  C22 UNL     1       8.197   5.023  20.792  0.00  0.00    +0.137 A 
ATOM     14  C23 UNL     1       9.414   4.419  21.086  0.00  0.00    +0.066 A 
ATOM     15  N5  UNL     1      10.538   4.456  20.355  0.00  0.00    -0.353 N 
ATOM     16  H21 UNL     1      10.668   4.950  19.444  0.00  0.00    +0.166 HD
BRANCH  10  17
ATOM     17  C17 UNL     1       8.699   2.806  24.437  0.00  0.00    +0.022 A 
ATOM     18  C18 UNL     1       9.026   1.468  24.586  0.00  0.00    +0.143 A 
ATOM     19  N2  UNL     1       9.010   1.148  25.894  0.00  0.00    -0.179 NA
ATOM     20  N3  UNL     1       8.674   2.237  26.567  0.00  0.00    -0.274 N 
ATOM     21  C19 UNL     1       8.576   2.301  28.019  0.00  0.00    +0.172 C 
ATOM     22  C20 UNL     1       8.473   3.262  25.721  0.00  0.00    +0.116 A 
ENDBRANCH  10  17
ENDBRANCH   3   7
BRANCH   1  27
ATOM     23  C5  UNL     1      16.761  -0.355  22.636  0.00  0.00    +0.038 A 
ATOM     24  C6  UNL     1      17.195  -1.236  21.634  0.00  0.00    +0.013 A 
ATOM     25  C7  UNL     1      16.872  -0.997  20.298  0.00  0.00    +0.001 A 
ATOM     26  C8  UNL     1      16.121   0.127  19.946  0.00  0.00    +0.010 A 
ATOM     27  C9  UNL     1      15.686   1.032  20.933  0.00  0.00    +0.001 A 
ATOM     28  C26 UNL     1      16.027   0.787  22.277  0.00  0.00    +0.023 A 
BRANCH  23  31
ATOM     29  N1  UNL     1      16.143  -1.069  25.003  0.00  0.00    -0.301 N 
ATOM     30  C3  UNL     1      15.112  -2.027  24.590  0.00  0.00    +0.132 C 
ATOM     31  C4  UNL     1      17.120  -0.606  24.048  0.00  0.00    +0.246 C 
ATOM     32  O1  UNL     1      18.310  -0.411  24.417  0.00  0.00    -0.270 OA
BRANCH  29  34
ATOM     33  C1  UNL     1      15.896   0.660  26.742  0.00  0.00    +0.024 C 
ATOM     34  C2  UNL     1      16.319  -0.773  26.430  0.00  0.00    +0.104 C 
ENDBRANCH  29  34
ENDBRANCH  23  31
ENDBRANCH   1  27
TORSDOF 5
ENDMDL
MODEL 4
REMARK VINA RESULT:    -7.184     11.354     12.916
REMARK INTER + INTRA:         -10.377
REMARK INTER:                  -9.306
REMARK INTRA:                  -1.070
REMARK UNBOUND:                -1.092
REMARK  Name = /home/qwerty/github/datacon2025hack/step_04_hit_selection/docking/ligands/lig_81.pdb
REMARK  8 active torsions:
REMARK  status: ('A' for Active; 'I' for Inactive)
REMARK    1  A    between atoms: C1_1  and  C2_2
REMARK    2  A    between atoms: C2_2  and  N1_3
REMARK    3  A    between atoms: N1_3  and  C3_4
REMARK    4  A    between atoms: C4_5  and  C5_7
REMARK    5  A    between atoms: C9_11  and  C10_12
REMARK    6  A    between atoms: C12_14  and  C13_15
REMARK    7  A    between atoms: C16_18  and  C17_19
REMARK    8  A    between atoms: N3_22  and  C19_23
REMARK                            x       y       z     vdW  Elec       q    Type
REMARK                         _______ _______ _______ _____ _____    ______ ____
ROOT
ATOM      1  C10 UNL     1      22.110   6.778  21.331  0.00  0.00    +0.072 A 
ATOM      2  C11 UNL     1      22.187   5.945  22.461  0.00  0.00    +0.038 A 
ATOM      3  C12 UNL     1      21.194   4.976  22.689  0.00  0.00    +0.002 A 
ATOM      4  C24 UNL     1      20.133   4.869  21.775  0.00  0.00    +0.029 A 
ATOM      5  C25 UNL     1      20.083   5.720  20.672  0.00  0.00    +0.112 A 
ATOM      6  N6  UNL     1      21.058   6.644  20.478  0.00  0.00    -0.255 NA
ENDROOT
BRANCH   3   7
ATOM      7  C13 UNL     1      21.261   4.092  23.880  0.00  0.00    +0.048 A 
ATOM      8  C14 UNL     1      20.382   3.044  24.164  0.00  0.00    +0.037 A 
ATOM      9  C15 UNL     1      20.824   2.503  25.358  0.00  0.00    +0.011 A 
ATOM     10  C16 UNL     1      20.367   1.414  26.119  0.00  0.00    +0.012 A 
ATOM     11  C21 UNL     1      21.126   1.084  27.264  0.00  0.00    +0.120 A 
ATOM     12  N4  UNL     1      22.233   1.813  27.605  0.00  0.00    -0.261 NA
ATOM     13  C22 UNL     1      22.658   2.876  26.863  0.00  0.00    +0.137 A 
ATOM     14  C23 UNL     1      21.934   3.214  25.725  0.00  0.00    +0.066 A 
ATOM     15  N5  UNL     1      22.209   4.188  24.845  0.00  0.00    -0.353 N 
ATOM     16  H21 UNL     1      23.017   4.849  24.885  0.00  0.00    +0.166 HD
BRANCH  10  17
ATOM     17  C17 UNL     1      19.159   0.636  25.768  0.00  0.00    +0.022 A 
ATOM     18  C18 UNL     1      17.932   0.628  26.411  0.00  0.00    +0.143 A 
ATOM     19  N2  UNL     1      17.116  -0.253  25.802  0.00  0.00    -0.179 NA
ATOM     20  N3  UNL     1      17.793  -0.805  24.808  0.00  0.00    -0.274 N 
ATOM     21  C19 UNL     1      17.240  -1.792  23.893  0.00  0.00    +0.172 C 
ATOM     22  C20 UNL     1      19.037  -0.296  24.756  0.00  0.00    +0.116 A 
ENDBRANCH  10  17
ENDBRANCH   3   7
BRANCH   1  27
ATOM     23  C5  UNL     1      23.703  10.055  20.253  0.00  0.00    +0.038 A 
ATOM     24  C6  UNL     1      25.060   9.789  20.490  0.00  0.00    +0.013 A 
ATOM     25  C7  UNL     1      25.455   8.558  21.015  0.00  0.00    +0.001 A 
ATOM     26  C8  UNL     1      24.502   7.577  21.301  0.00  0.00    +0.010 A 
ATOM     27  C9  UNL     1      23.136   7.817  21.060  0.00  0.00    +0.001 A 
ATOM     28  C26 UNL     1      22.750   9.058  20.518  0.00  0.00    +0.023 A 
BRANCH  23  31
ATOM     29  N1  UNL     1      22.812  12.428  20.518  0.00  0.00    -0.301 N 
ATOM     30  C3  UNL     1      23.406  12.648  21.841  0.00  0.00    +0.132 C 
ATOM     31  C4  UNL     1      23.293  11.355  19.681  0.00  0.00    +0.246 C 
ATOM     32  O1  UNL     1      23.373  11.524  18.434  0.00  0.00    -0.270 OA
BRANCH  29  34
ATOM     33  C1  UNL     1      20.447  13.050  20.203  0.00  0.00    +0.024 C 
ATOM     34  C2  UNL     1      21.903  13.437  19.960  0.00  0.00    +0.104 C 
ENDBRANCH  29  34
ENDBRANCH  23  31
ENDBRANCH   1  27
TORSDOF 5
ENDMDL
MODEL 5
REMARK VINA RESULT:    -7.158     13.541     16.173
REMARK INTER + INTRA:         -10.342
REMARK INTER:                  -9.190
REMARK INTRA:                  -1.152
REMARK UNBOUND:                -1.092
REMARK  Name = /home/qwerty/github/datacon2025hack/step_04_hit_selection/docking/ligands/lig_81.pdb
REMARK  8 active torsions:
REMARK  status: ('A' for Active; 'I' for Inactive)
REMARK    1  A    between atoms: C1_1  and  C2_2
REMARK    2  A    between atoms: C2_2  and  N1_3
REMARK    3  A    between atoms: N1_3  and  C3_4
REMARK    4  A    between atoms: C4_5  and  C5_7
REMARK    5  A    between atoms: C9_11  and  C10_12
REMARK    6  A    between atoms: C12_14  and  C13_15
REMARK    7  A    between atoms: C16_18  and  C17_19
REMARK    8  A    between atoms: N3_22  and  C19_23
REMARK                            x       y       z     vdW  Elec       q    Type
REMARK                         _______ _______ _______ _____ _____    ______ ____
ROOT
ATOM      1  C10 UNL     1      20.858   1.824  28.042  0.00  0.00    +0.072 A 
ATOM      2  C11 UNL     1      19.833   1.170  27.336  0.00  0.00    +0.038 A 
ATOM      3  C12 UNL     1      19.806   1.217  25.931  0.00  0.00    +0.002 A 
ATOM      4  C24 UNL     1      20.812   1.932  25.261  0.00  0.00    +0.029 A 
ATOM      5  C25 UNL     1      21.806   2.579  25.994  0.00  0.00    +0.112 A 
ATOM      6  N6  UNL     1      21.806   2.513  27.350  0.00  0.00    -0.255 NA
ENDROOT
BRANCH   3   7
ATOM      7  C13 UNL     1      18.728   0.534  25.173  0.00  0.00    +0.048 A 
ATOM      8  C14 UNL     1      17.443   0.267  25.652  0.00  0.00    +0.037 A 
ATOM      9  C15 UNL     1      16.786  -0.372  24.615  0.00  0.00    +0.011 A 
ATOM     10  C16 UNL     1      15.470  -0.847  24.492  0.00  0.00    +0.012 A 
ATOM     11  C21 UNL     1      15.108  -1.380  23.234  0.00  0.00    +0.120 A 
ATOM     12  N4  UNL     1      16.016  -1.436  22.210  0.00  0.00    -0.261 NA
ATOM     13  C22 UNL     1      17.294  -0.982  22.349  0.00  0.00    +0.137 A 
ATOM     14  C23 UNL     1      17.671  -0.443  23.574  0.00  0.00    +0.066 A 
ATOM     15  N5  UNL     1      18.857   0.093  23.897  0.00  0.00    -0.353 N 
ATOM     16  H21 UNL     1      19.687   0.185  23.269  0.00  0.00    +0.166 HD
BRANCH  10  17
ATOM     17  C17 UNL     1      14.492  -0.808  25.600  0.00  0.00    +0.022 A 
ATOM     18  C18 UNL     1      14.106  -1.846  26.434  0.00  0.00    +0.143 A 
ATOM     19  N2  UNL     1      13.157  -1.405  27.283  0.00  0.00    -0.179 NA
ATOM     20  N3  UNL     1      12.928  -0.132  27.000  0.00  0.00    -0.274 N 
ATOM     21  C19 UNL     1      11.982   0.707  27.722  0.00  0.00    +0.172 C 
ATOM     22  C20 UNL     1      13.714   0.266  25.985  0.00  0.00    +0.116 A 
ENDBRANCH  10  17
ENDBRANCH   3   7
BRANCH   1  27
ATOM     23  C5  UNL     1      19.928   1.133  31.661  0.00  0.00    +0.038 A 
ATOM     24  C6  UNL     1      20.969   1.785  32.339  0.00  0.00    +0.013 A 
ATOM     25  C7  UNL     1      21.979   2.431  31.624  0.00  0.00    +0.001 A 
ATOM     26  C8  UNL     1      21.957   2.440  30.227  0.00  0.00    +0.010 A 
ATOM     27  C9  UNL     1      20.916   1.803  29.527  0.00  0.00    +0.001 A 
ATOM     28  C26 UNL     1      19.896   1.165  30.258  0.00  0.00    +0.023 A 
BRANCH  23  31
ATOM     29  N1  UNL     1      17.937   1.214  33.250  0.00  0.00    -0.301 N 
ATOM     30  C3  UNL     1      17.469   2.534  32.813  0.00  0.00    +0.132 C 
ATOM     31  C4  UNL     1      18.853   0.465  32.424  0.00  0.00    +0.246 C 
ATOM     32  O1  UNL     1      18.739  -0.788  32.344  0.00  0.00    -0.270 OA
BRANCH  29  34
ATOM     33  C1  UNL     1      17.611   1.311  35.691  0.00  0.00    +0.024 C 
ATOM     34  C2  UNL     1      17.291   0.566  34.398  0.00  0.00    +0.104 C 
ENDBRANCH  29  34
ENDBRANCH  23  31
ENDBRANCH   1  27
TORSDOF 5
ENDMDL
MODEL 6
REMARK VINA RESULT:    -7.113     12.307     14.250
REMARK INTER + INTRA:         -10.284
REMARK INTER:                  -9.497
REMARK INTRA:                  -0.788
REMARK UNBOUND:                -1.092
REMARK  Name = /home/qwerty/github/datacon2025hack/step_04_hit_selection/docking/ligands/lig_81.pdb
REMARK  8 active torsions:
REMARK  status: ('A' for Active; 'I' for Inactive)
REMARK    1  A    between atoms: C1_1  and  C2_2
REMARK    2  A    between atoms: C2_2  and  N1_3
REMARK    3  A    between atoms: N1_3  and  C3_4
REMARK    4  A    between atoms: C4_5  and  C5_7
REMARK    5  A    between atoms: C9_11  and  C10_12
REMARK    6  A    between atoms: C12_14  and  C13_15
REMARK    7  A    between atoms: C16_18  and  C17_19
REMARK    8  A    between atoms: N3_22  and  C19_23
REMARK                            x       y       z     vdW  Elec       q    Type
REMARK                         _______ _______ _______ _____ _____    ______ ____
ROOT
ATOM      1  C10 UNL     1      19.456   0.888  25.399  0.00  0.00    +0.072 A 
ATOM      2  C11 UNL     1      19.594   0.977  26.796  0.00  0.00    +0.038 A 
ATOM      3  C12 UNL     1      20.535   1.860  27.354  0.00  0.00    +0.002 A 
ATOM      4  C24 UNL     1      21.330   2.633  26.491  0.00  0.00    +0.029 A 
ATOM      5  C25 UNL     1      21.174   2.509  25.111  0.00  0.00    +0.112 A 
ATOM      6  N6  UNL     1      20.254   1.650  24.603  0.00  0.00    -0.255 NA
ENDROOT
BRANCH   3   7
ATOM      7  C13 UNL     1      20.694   1.961  28.827  0.00  0.00    +0.048 A 
ATOM      8  C14 UNL     1      21.264   3.039  29.510  0.00  0.00    +0.037 A 
ATOM      9  C15 UNL     1      21.198   2.704  30.851  0.00  0.00    +0.011 A 
ATOM     10  C16 UNL     1      21.580   3.400  32.009  0.00  0.00    +0.012 A 
ATOM     11  C21 UNL     1      21.282   2.780  33.243  0.00  0.00    +0.120 A 
ATOM     12  N4  UNL     1      20.670   1.556  33.282  0.00  0.00    -0.261 NA
ATOM     13  C22 UNL     1      20.316   0.886  32.148  0.00  0.00    +0.137 A 
ATOM     14  C23 UNL     1      20.589   1.481  30.921  0.00  0.00    +0.066 A 
ATOM     15  N5  UNL     1      20.285   1.011  29.702  0.00  0.00    -0.353 N 
ATOM     16  H21 UNL     1      19.793   0.114  29.490  0.00  0.00    +0.166 HD
BRANCH  10  17
ATOM     17  C17 UNL     1      22.260   4.713  31.973  0.00  0.00    +0.022 A 
ATOM     18  C18 UNL     1      21.996   5.788  31.140  0.00  0.00    +0.143 A 
ATOM     19  N2  UNL     1      22.873   6.777  31.398  0.00  0.00    -0.179 NA
ATOM     20  N3  UNL     1      23.683   6.353  32.354  0.00  0.00    -0.274 N 
ATOM     21  C19 UNL     1      24.755   7.153  32.930  0.00  0.00    +0.172 C 
ATOM     22  C20 UNL     1      23.347   5.106  32.728  0.00  0.00    +0.116 A 
ENDBRANCH  10  17
ENDBRANCH   3   7
BRANCH   1  27
ATOM     23  C5  UNL     1      16.626  -0.404  23.218  0.00  0.00    +0.038 A 
ATOM     24  C6  UNL     1      16.579  -1.753  23.602  0.00  0.00    +0.013 A 
ATOM     25  C7  UNL     1      17.475  -2.245  24.552  0.00  0.00    +0.001 A 
ATOM     26  C8  UNL     1      18.420  -1.397  25.134  0.00  0.00    +0.010 A 
ATOM     27  C9  UNL     1      18.477  -0.038  24.772  0.00  0.00    +0.001 A 
ATOM     28  C26 UNL     1      17.561   0.451  23.822  0.00  0.00    +0.023 A 
BRANCH  23  31
ATOM     29  N1  UNL     1      15.990   0.174  20.818  0.00  0.00    -0.301 N 
ATOM     30  C3  UNL     1      16.788  -0.894  20.207  0.00  0.00    +0.132 C 
ATOM     31  C4  UNL     1      15.664   0.115  22.223  0.00  0.00    +0.246 C 
ATOM     32  O1  UNL     1      14.533   0.509  22.618  0.00  0.00    -0.270 OA
BRANCH  29  34
ATOM     33  C1  UNL     1      16.097   2.485  19.969  0.00  0.00    +0.024 C 
ATOM     34  C2  UNL     1      15.333   1.164  19.957  0.00  0.00    +0.104 C 
ENDBRANCH  29  34
ENDBRANCH  23  31
ENDBRANCH   1  27
TORSDOF 5
ENDMDL
MODEL 7
REMARK VINA RESULT:    -7.099     11.448     14.892
REMARK INTER + INTRA:         -10.266
REMARK INTER:                  -9.164
REMARK INTRA:                  -1.102
REMARK UNBOUND:                -1.092
REMARK  Name = /home/qwerty/github/datacon2025hack/step_04_hit_selection/docking/ligands/lig_81.pdb
REMARK  8 active torsions:
REMARK  status: ('A' for Active; 'I' for Inactive)
REMARK    1  A    between atoms: C1_1  and  C2_2
REMARK    2  A    between atoms: C2_2  and  N1_3
REMARK    3  A    between atoms: N1_3  and  C3_4
REMARK    4  A    between atoms: C4_5  and  C5_7
REMARK    5  A    between atoms: C9_11  and  C10_12
REMARK    6  A    between atoms: C12_14  and  C13_15
REMARK    7  A    between atoms: C16_18  and  C17_19
REMARK    8  A    between atoms: N3_22  and  C19_23
REMARK                            x       y       z     vdW  Elec       q    Type
REMARK                         _______ _______ _______ _____ _____    ______ ____
ROOT
ATOM      1  C10 UNL     1      19.119   8.369  19.885  0.00  0.00    +0.072 A 
ATOM      2  C11 UNL     1      17.952   7.586  19.873  0.00  0.00    +0.038 A 
ATOM      3  C12 UNL     1      18.031   6.201  20.104  0.00  0.00    +0.002 A 
ATOM      4  C24 UNL     1      19.293   5.628  20.335  0.00  0.00    +0.029 A 
ATOM      5  C25 UNL     1      20.430   6.433  20.327  0.00  0.00    +0.112 A 
ATOM      6  N6  UNL     1      20.320   7.767  20.104  0.00  0.00    -0.255 NA
ENDROOT
BRANCH   3   7
ATOM      7  C13 UNL     1      16.807   5.361  20.091  0.00  0.00    +0.048 A 
ATOM      8  C14 UNL     1      16.763   3.985  20.327  0.00  0.00    +0.037 A 
ATOM      9  C15 UNL     1      15.430   3.632  20.218  0.00  0.00    +0.011 A 
ATOM     10  C16 UNL     1      14.770   2.404  20.383  0.00  0.00    +0.012 A 
ATOM     11  C21 UNL     1      13.361   2.427  20.279  0.00  0.00    +0.120 A 
ATOM     12  N4  UNL     1      12.698   3.594  20.011  0.00  0.00    -0.261 NA
ATOM     13  C22 UNL     1      13.354   4.778  19.840  0.00  0.00    +0.137 A 
ATOM     14  C23 UNL     1      14.740   4.783  19.949  0.00  0.00    +0.066 A 
ATOM     15  N5  UNL     1      15.560   5.840  19.859  0.00  0.00    -0.353 N 
ATOM     16  H21 UNL     1      15.276   6.831  19.689  0.00  0.00    +0.166 HD
BRANCH  10  17
ATOM     17  C17 UNL     1      15.483   1.136  20.652  0.00  0.00    +0.022 A 
ATOM     18  C18 UNL     1      16.098   0.293  19.741  0.00  0.00    +0.143 A 
ATOM     19  N2  UNL     1      16.591  -0.780  20.389  0.00  0.00    -0.179 NA
ATOM     20  N3  UNL     1      16.294  -0.643  21.671  0.00  0.00    -0.274 N 
ATOM     21  C19 UNL     1      16.683  -1.592  22.705  0.00  0.00    +0.172 C 
ATOM     22  C20 UNL     1      15.620   0.503  21.872  0.00  0.00    +0.116 A 
ENDBRANCH  10  17
ENDBRANCH   3   7
BRANCH   1  27
ATOM     23  C5  UNL     1      20.252  11.965  19.406  0.00  0.00    +0.038 A 
ATOM     24  C6  UNL     1      19.023  12.616  19.224  0.00  0.00    +0.013 A 
ATOM     25  C7  UNL     1      17.832  11.888  19.238  0.00  0.00    +0.001 A 
ATOM     26  C8  UNL     1      17.854  10.506  19.442  0.00  0.00    +0.010 A 
ATOM     27  C9  UNL     1      19.075   9.834  19.639  0.00  0.00    +0.001 A 
ATOM     28  C26 UNL     1      20.269  10.579  19.635  0.00  0.00    +0.023 A 
BRANCH  23  31
ATOM     29  N1  UNL     1      21.864  13.600  20.511  0.00  0.00    -0.301 N 
ATOM     30  C3  UNL     1      21.550  13.193  21.884  0.00  0.00    +0.132 C 
ATOM     31  C4  UNL     1      21.508  12.743  19.406  0.00  0.00    +0.246 C 
ATOM     32  O1  UNL     1      22.282  12.648  18.415  0.00  0.00    -0.270 OA
BRANCH  29  34
ATOM     33  C1  UNL     1      21.999  15.869  19.557  0.00  0.00    +0.024 C 
ATOM     34  C2  UNL     1      22.744  14.754  20.286  0.00  0.00    +0.104 C 
ENDBRANCH  29  34
ENDBRANCH  23  31
ENDBRANCH   1  27
TORSDOF 5
ENDMDL
MODEL 8
REMARK VINA RESULT:    -7.064     10.150     12.440
REMARK INTER + INTRA:         -10.221
REMARK INTER:                  -9.135
REMARK INTRA:                  -1.086
REMARK UNBOUND:                -1.092
REMARK  Name = /home/qwerty/github/datacon2025hack/step_04_hit_selection/docking/ligands/lig_81.pdb
REMARK  8 active torsions:
REMARK  status: ('A' for Active; 'I' for Inactive)
REMARK    1  A    between atoms: C1_1  and  C2_2
REMARK    2  A    between atoms: C2_2  and  N1_3
REMARK    3  A    between atoms: N1_3  and  C3_4
REMARK    4  A    between atoms: C4_5  and  C5_7
REMARK    5  A    between atoms: C9_11  and  C10_12
REMARK    6  A    between atoms: C12_14  and  C13_15
REMARK    7  A    between atoms: C16_18  and  C17_19
REMARK    8  A    between atoms: N3_22  and  C19_23
REMARK                            x       y       z     vdW  Elec       q    Type
REMARK                         _______ _______ _______ _____ _____    ______ ____
ROOT
ATOM      1  C10 UNL     1       8.139   8.789  27.157  0.00  0.00    +0.072 A 
ATOM      2  C11 UNL     1       9.036   9.836  27.436  0.00  0.00    +0.038 A 
ATOM      3  C12 UNL     1       8.827  10.661  28.555  0.00  0.00    +0.002 A 
ATOM      4  C24 UNL     1       7.710  10.420  29.372  0.00  0.00    +0.029 A 
ATOM      5  C25 UNL     1       6.836   9.381  29.059  0.00  0.00    +0.112 A 
ATOM      6  N6  UNL     1       7.066   8.600  27.973  0.00  0.00    -0.255 NA
ENDROOT
BRANCH   3   7
ATOM      7  C13 UNL     1       9.764  11.773  28.859  0.00  0.00    +0.048 A 
ATOM      8  C14 UNL     1      10.231  12.117  30.130  0.00  0.00    +0.037 A 
ATOM      9  C15 UNL     1      11.073  13.197  29.935  0.00  0.00    +0.011 A 
ATOM     10  C16 UNL     1      11.855  13.948  30.828  0.00  0.00    +0.012 A 
ATOM     11  C21 UNL     1      12.677  14.947  30.259  0.00  0.00    +0.120 A 
ATOM     12  N4  UNL     1      12.679  15.166  28.908  0.00  0.00    -0.261 NA
ATOM     13  C22 UNL     1      11.904  14.437  28.054  0.00  0.00    +0.137 A 
ATOM     14  C23 UNL     1      11.095  13.440  28.589  0.00  0.00    +0.066 A 
ATOM     15  N5  UNL     1      10.300  12.592  27.921  0.00  0.00    -0.353 N 
ATOM     16  H21 UNL     1      10.165  12.554  26.886  0.00  0.00    +0.166 HD
BRANCH  10  17
ATOM     17  C17 UNL     1      11.841  13.730  32.291  0.00  0.00    +0.022 A 
ATOM     18  C18 UNL     1      12.647  12.883  33.035  0.00  0.00    +0.143 A 
ATOM     19  N2  UNL     1      12.281  12.945  34.330  0.00  0.00    -0.179 NA
ATOM     20  N3  UNL     1      11.267  13.790  34.419  0.00  0.00    -0.274 N 
ATOM     21  C19 UNL     1      10.609  14.147  35.668  0.00  0.00    +0.172 C 
ATOM     22  C20 UNL     1      10.968  14.285  33.205  0.00  0.00    +0.116 A 
ENDBRANCH  10  17
ENDBRANCH   3   7
BRANCH   1  27
ATOM     23  C5  UNL     1       8.578   7.637  23.563  0.00  0.00    +0.038 A 
ATOM     24  C6  UNL     1       8.622   6.244  23.727  0.00  0.00    +0.013 A 
ATOM     25  C7  UNL     1       8.528   5.682  25.001  0.00  0.00    +0.001 A 
ATOM     26  C8  UNL     1       8.381   6.502  26.123  0.00  0.00    +0.010 A 
ATOM     27  C9  UNL     1       8.323   7.901  25.981  0.00  0.00    +0.001 A 
ATOM     28  C26 UNL     1       8.407   8.457  24.690  0.00  0.00    +0.023 A 
BRANCH  23  31
ATOM     29  N1  UNL     1       9.813   8.990  21.791  0.00  0.00    -0.301 N 
ATOM     30  C3  UNL     1      11.155   8.593  22.229  0.00  0.00    +0.132 C 
ATOM     31  C4  UNL     1       8.663   8.225  22.210  0.00  0.00    +0.246 C 
ATOM     32  O1  UNL     1       7.706   8.047  21.409  0.00  0.00    -0.270 OA
BRANCH  29  34
ATOM     33  C1  UNL     1      10.839   9.952  19.767  0.00  0.00    +0.024 C 
ATOM     34  C2  UNL     1       9.669  10.010  20.745  0.00  0.00    +0.104 C 
ENDBRANCH  29  34
ENDBRANCH  23  31
ENDBRANCH   1  27
TORSDOF 5
ENDMDL
MODEL 9
REMARK VINA RESULT:    -7.056     12.182     15.433
REMARK INTER + INTRA:         -10.210
REMARK INTER:                  -9.080
REMARK INTRA:                  -1.130
REMARK UNBOUND:                -1.092
REMARK  Name = /home/qwerty/github/datacon2025hack/step_04_hit_selection/docking/ligands/lig_81.pdb
REMARK  8 active torsions:
REMARK  status: ('A' for Active; 'I' for Inactive)
REMARK    1  A    between atoms: C1_1  and  C2_2
REMARK    2  A    between atoms: C2_2  and  N1_3
REMARK    3  A    between atoms: N1_3  and  C3_4
REMARK    4  A    between atoms: C4_5  and  C5_7
REMARK    5  A    between atoms: C9_11  and  C10_12
REMARK    6  A    between atoms: C12_14  and  C13_15
REMARK    7  A    between atoms: C16_18  and  C17_19
REMARK    8  A    between atoms: N3_22  and  C19_23
REMARK                            x       y       z     vdW  Elec       q    Type
REMARK                         _______ _______ _______ _____ _____    ______ ____
ROOT
ATOM      1  C10 UNL     1      21.073   2.064  27.543  0.00  0.00    +0.072 A 
ATOM      2  C11 UNL     1      20.044   1.487  26.778  0.00  0.00    +0.038 A 
ATOM      3  C12 UNL     1      20.046   1.625  25.378  0.00  0.00    +0.002 A 
ATOM      4  C24 UNL     1      21.085   2.351  24.774  0.00  0.00    +0.029 A 
ATOM      5  C25 UNL     1      22.082   2.920  25.565  0.00  0.00    +0.112 A 
ATOM      6  N6  UNL     1      22.053   2.767  26.913  0.00  0.00    -0.255 NA
ENDROOT
BRANCH   3   7
ATOM      7  C13 UNL     1      18.963   1.024  24.559  0.00  0.00    +0.048 A 
ATOM      8  C14 UNL     1      18.042   1.733  23.784  0.00  0.00    +0.037 A 
ATOM      9  C15 UNL     1      17.234   0.776  23.199  0.00  0.00    +0.011 A 
ATOM     10  C16 UNL     1      16.161   0.878  22.298  0.00  0.00    +0.012 A 
ATOM     11  C21 UNL     1      15.611  -0.337  21.833  0.00  0.00    +0.120 A 
ATOM     12  N4  UNL     1      16.101  -1.539  22.267  0.00  0.00    -0.261 NA
ATOM     13  C22 UNL     1      17.135  -1.623  23.152  0.00  0.00    +0.137 A 
ATOM     14  C23 UNL     1      17.701  -0.441  23.616  0.00  0.00    +0.066 A 
ATOM     15  N5  UNL     1      18.744  -0.309  24.449  0.00  0.00    -0.353 N 
ATOM     16  H21 UNL     1      19.293  -1.086  24.881  0.00  0.00    +0.166 HD
BRANCH  10  17
ATOM     17  C17 UNL     1      15.614   2.174  21.841  0.00  0.00    +0.022 A 
ATOM     18  C18 UNL     1      14.538   2.877  22.361  0.00  0.00    +0.143 A 
ATOM     19  N2  UNL     1      14.337   3.989  21.628  0.00  0.00    -0.179 NA
ATOM     20  N3  UNL     1      15.241   4.000  20.662  0.00  0.00    -0.274 N 
ATOM     21  C19 UNL     1      15.367   5.062  19.674  0.00  0.00    +0.172 C 
ATOM     22  C20 UNL     1      16.032   2.916  20.754  0.00  0.00    +0.116 A 
ENDBRANCH  10  17
ENDBRANCH   3   7
BRANCH   1  27
ATOM     23  C5  UNL     1      21.638   2.917  31.202  0.00  0.00    +0.038 A 
ATOM     24  C6  UNL     1      21.212   1.735  31.826  0.00  0.00    +0.013 A 
ATOM     25  C7  UNL     1      20.726   0.672  31.064  0.00  0.00    +0.001 A 
ATOM     26  C8  UNL     1      20.667   0.774  29.672  0.00  0.00    +0.010 A 
ATOM     27  C9  UNL     1      21.100   1.946  29.023  0.00  0.00    +0.001 A 
ATOM     28  C26 UNL     1      21.601   3.007  29.801  0.00  0.00    +0.023 A 
BRANCH  23  31
ATOM     29  N1  UNL     1      21.462   5.288  32.121  0.00  0.00    -0.301 N 
ATOM     30  C3  UNL     1      19.997   5.301  32.179  0.00  0.00    +0.132 C 
ATOM     31  C4  UNL     1      22.167   4.033  32.014  0.00  0.00    +0.246 C 
ATOM     32  O1  UNL     1      23.258   3.876  32.627  0.00  0.00    -0.270 OA
BRANCH  29  34
ATOM     33  C1  UNL     1      22.882   7.053  31.151  0.00  0.00    +0.024 C 
ATOM     34  C2  UNL     1      22.205   6.520  32.411  0.00  0.00    +0.104 C 
ENDBRANCH  29  34
ENDBRANCH  23  31
ENDBRANCH   1  27
TORSDOF 5
ENDMDL
