REMARK  Name = /home/qwerty/github/datacon2025hack/step_04_hit_selection/docking/ligands/lig_578.pdb
REMARK  8 active torsions:
REMARK  status: ('A' for Active; 'I' for Inactive)
REMARK    1  A    between atoms: C1_1  and  C2_2
REMARK    2  A    between atoms: C5_5  and  N1_6
REMARK    3  A    between atoms: C6_7  and  C7_9
REMARK    4  A    between atoms: C11_16  and  C12_17
REMARK    5  A    between atoms: C13_18  and  C14_19
REMARK    6  A    between atoms: N5_20  and  C15_21
REMARK    7  A    between atoms: C15_21  and  C16_22
REMARK    8  A    between atoms: C16_22  and  O2_23
REMARK                            x       y       z     vdW  Elec       q    Type
REMARK                         _______ _______ _______ _____ _____    ______ ____
ROOT
ATOM      1  C7  UNL     1       1.200   0.507  -0.598  0.00  0.00    +0.221 A 
ATOM      2  N2  UNL     1       1.438   1.552  -1.416  0.00  0.00    -0.123 NA
ATOM      3  N3  UNL     1       0.313   2.238  -1.521  0.00  0.00    -0.113 NA
ATOM      4  C8  UNL     1      -0.602   1.598  -0.771  0.00  0.00    +0.220 A 
ATOM      5  N4  UNL     1      -1.926   2.110  -0.565  0.00  0.00    -0.297 N 
ATOM      6  C9  UNL     1      -2.848   2.206  -1.691  0.00  0.00    +0.108 C 
ATOM      7  C10 UNL     1      -3.676   3.463  -1.461  0.00  0.00    +0.024 C 
ATOM      8  C11 UNL     1      -3.521   3.778   0.025  0.00  0.00    +0.008 C 
ATOM      9  C12 UNL     1      -3.605   5.281   0.316  0.00  0.00    +0.009 C 
ATOM     10  C13 UNL     1      -2.166   3.170   0.411  0.00  0.00    +0.076 C 
ATOM     11  C14 UNL     1      -2.172   2.629   1.844  0.00  0.00    +0.028 C 
ATOM     12  N5  UNL     1      -0.090   0.498  -0.174  0.00  0.00    -0.289 N 
ENDROOT
BRANCH   1  14
ATOM     13  N1  UNL     1       3.518  -0.435  -0.918  0.00  0.00    -0.279 N 
ATOM     14  C6  UNL     1       2.261  -0.456  -0.223  0.00  0.00    +0.286 C 
ATOM     15  O1  UNL     1       2.060  -1.306   0.686  0.00  0.00    -0.266 OA
ATOM     16  H6  UNL     1       3.558   0.038  -1.850  0.00  0.00    +0.155 HD
BRANCH  13  21
ATOM     17  C1  UNL     1       8.286  -3.170   0.782  0.00  0.00    +0.044 C 
ATOM     18  C2  UNL     1       7.023  -2.486   0.350  0.00  0.00    -0.050 A 
ATOM     19  C3  UNL     1       6.161  -1.919   1.301  0.00  0.00    +0.005 A 
ATOM     20  C4  UNL     1       5.002  -1.252   0.893  0.00  0.00    +0.023 A 
ATOM     21  C5  UNL     1       4.690  -1.140  -0.474  0.00  0.00    +0.034 A 
ATOM     22  C21 UNL     1       5.576  -1.671  -1.422  0.00  0.00    +0.023 A 
ATOM     23  C22 UNL     1       6.733  -2.342  -1.014  0.00  0.00    +0.005 A 
ENDBRANCH  13  21
ENDBRANCH   1  14
BRANCH  12  24
ATOM     24  C15 UNL     1      -0.779  -0.463   0.702  0.00  0.00    +0.161 C 
BRANCH  24  25
ATOM     25  C16 UNL     1      -1.244  -1.754  -0.045  0.00  0.00    +0.087 C 
ATOM     26  C17 UNL     1      -1.550  -2.883   0.978  0.00  0.00    +0.059 C 
ATOM     27  C18 UNL     1      -2.695  -2.579   1.950  0.00  0.00    +0.169 C 
ATOM     28  S1  UNL     1      -4.185  -2.245   1.047  0.00  0.00    -0.031 S 
ATOM     29  O3  UNL     1      -4.707  -3.511   0.428  0.00  0.00    -0.174 OA
ATOM     30  O4  UNL     1      -5.225  -1.664   1.963  0.00  0.00    -0.174 OA
ATOM     31  C19 UNL     1      -3.770  -1.075  -0.223  0.00  0.00    +0.169 C 
ATOM     32  C20 UNL     1      -2.488  -1.497  -0.957  0.00  0.00    +0.059 C 
BRANCH  25  33
ATOM     33  O2  UNL     1      -0.187  -2.239  -0.843  0.00  0.00    -0.387 OA
ATOM     34  H21 UNL     1      -0.111  -1.674  -1.656  0.00  0.00    +0.210 HD
ENDBRANCH  25  33
ENDBRANCH  24  25
ENDBRANCH  12  24
TORSDOF 5
