REMARK  Name = /home/qwerty/github/datacon2025hack/step_04_hit_selection/docking/ligands/lig_577.pdb
REMARK  6 active torsions:
REMARK  status: ('A' for Active; 'I' for Inactive)
REMARK    1  A    between atoms: C1_1  and  N1_2
REMARK    2  A    between atoms: C5_6  and  N2_7
REMARK    3  A    between atoms: N3_10  and  C7_11
REMARK    4  A    between atoms: N4_17  and  C13_18
REMARK    5  A    between atoms: C15_21  and  C16_22
REMARK    6  A    between atoms: C15_21  and  C17_23
REMARK                            x       y       z     vdW  Elec       q    Type
REMARK                         _______ _______ _______ _____ _____    ______ ____
ROOT
ATOM      1  C7  UNL     1      -0.370  -0.826  -0.310  0.00  0.00    +0.037 A 
ATOM      2  C8  UNL     1      -0.741  -1.813   0.613  0.00  0.00    +0.027 A 
ATOM      3  C9  UNL     1      -2.088  -2.086   0.846  0.00  0.00    +0.049 A 
ATOM      4  C10 UNL     1      -3.093  -1.401   0.153  0.00  0.00    +0.142 A 
ATOM      5  C11 UNL     1      -2.734  -0.401  -0.788  0.00  0.00    +0.080 A 
ATOM      6  C12 UNL     1      -1.368  -0.140  -1.014  0.00  0.00    +0.050 A 
ATOM      7  N4  UNL     1      -3.729   0.382  -1.479  0.00  0.00    -0.271 N 
ATOM      8  C13 UNL     1      -3.504   0.838  -2.852  0.00  0.00    +0.138 C 
ATOM      9  C14 UNL     1      -4.797   0.984  -0.735  0.00  0.00    +0.229 C 
ATOM     10  O2  UNL     1      -4.869   2.242  -0.671  0.00  0.00    -0.275 OA
ATOM     11  C15 UNL     1      -5.877   0.139  -0.098  0.00  0.00    +0.076 C 
ATOM     12  C16 UNL     1      -5.974   0.467   1.406  0.00  0.00    +0.024 C 
ATOM     13  C17 UNL     1      -7.221   0.463  -0.779  0.00  0.00    +0.024 C 
ATOM     14  C18 UNL     1      -5.573  -1.362  -0.297  0.00  0.00    +0.244 C 
ATOM     15  O3  UNL     1      -4.418  -1.769   0.432  0.00  0.00    -0.489 OA
ENDROOT
BRANCH   1  19
ATOM     16  N2  UNL     1       3.425  -0.480  -0.018  0.00  0.00    -0.288 N 
ATOM     17  C6  UNL     1       2.056  -0.580   0.398  0.00  0.00    +0.304 C 
ATOM     18  O1  UNL     1       1.774  -0.666   1.625  0.00  0.00    -0.252 OA
ATOM     19  N3  UNL     1       1.012  -0.539  -0.586  0.00  0.00    -0.269 N 
ATOM     20  H11 UNL     1       3.626  -0.394  -1.040  0.00  0.00    +0.151 HD
ATOM     21  H12 UNL     1       1.260  -0.192  -1.540  0.00  0.00    +0.156 HD
BRANCH  16  27
ATOM     22  C1  UNL     1       7.824  -0.373  -1.149  0.00  0.00    +0.132 C 
ATOM     23  N1  UNL     1       6.717   0.095  -0.312  0.00  0.00    -0.303 N 
ATOM     24  C2  UNL     1       6.674   1.507   0.093  0.00  0.00    +0.107 C 
ATOM     25  C3  UNL     1       5.264   1.945   0.495  0.00  0.00    +0.021 C 
ATOM     26  C4  UNL     1       4.678   0.979   1.525  0.00  0.00    +0.033 C 
ATOM     27  C5  UNL     1       4.536  -0.433   0.938  0.00  0.00    +0.161 C 
ATOM     28  C19 UNL     1       5.809  -0.871   0.260  0.00  0.00    +0.236 C 
ATOM     29  O4  UNL     1       6.035  -2.105   0.131  0.00  0.00    -0.274 OA
ENDBRANCH  16  27
ENDBRANCH   1  19
TORSDOF 2
