REMARK  Name = /home/qwerty/github/datacon2025hack/step_04_hit_selection/docking/ligands/lig_166.pdb
REMARK  8 active torsions:
REMARK  status: ('A' for Active; 'I' for Inactive)
REMARK    1  A    between atoms: C1_1  and  C2_2
REMARK    2  A    between atoms: C2_2  and  C3_3
REMARK    3  A    between atoms: C3_3  and  N1_4
REMARK    4  A    between atoms: C3_3  and  C15_19
REMARK    5  A    between atoms: N2_7  and  C5_8
REMARK    6  A    between atoms: C7_10  and  O2_11
REMARK    7  A    between atoms: O2_11  and  C8_12
REMARK    8  A    between atoms: C11_15  and  C12_16
REMARK                            x       y       z     vdW  Elec       q    Type
REMARK                         _______ _______ _______ _____ _____    ______ ____
ROOT
ATOM      1  N1  UNL     1       2.267   0.572  -0.359  0.00  0.00    -0.288 N 
ATOM      2  C4  UNL     1       0.974  -0.045  -0.397  0.00  0.00    +0.304 C 
ATOM      3  O1  UNL     1       0.854  -1.280  -0.168  0.00  0.00    -0.252 OA
ATOM      4  N2  UNL     1      -0.181   0.745  -0.710  0.00  0.00    -0.269 N 
ATOM      5  H7  UNL     1       2.330   1.598  -0.552  0.00  0.00    +0.151 HD
ATOM      6  H8  UNL     1      -0.039   1.659  -1.195  0.00  0.00    +0.156 HD
ENDROOT
BRANCH   4   7
ATOM      7  C5  UNL     1      -1.522   0.255  -0.558  0.00  0.00    +0.042 A 
ATOM      8  C6  UNL     1      -2.383   0.300  -1.663  0.00  0.00    +0.069 A 
ATOM      9  C7  UNL     1      -3.691  -0.187  -1.577  0.00  0.00    +0.122 A 
ATOM     10  C9  UNL     1      -4.145  -0.722  -0.359  0.00  0.00    +0.046 A 
ATOM     11  C10 UNL     1      -3.306  -0.745   0.756  0.00  0.00    +0.009 A 
ATOM     12  C11 UNL     1      -2.002  -0.229   0.683  0.00  0.00    -0.023 A 
BRANCH  12  13
ATOM     13  C12 UNL     1      -1.140  -0.240   1.923  0.00  0.00    +0.021 C 
ATOM     14  C13 UNL     1      -1.741   0.473   3.130  0.00  0.00    +0.009 C 
ATOM     15  C14 UNL     1      -0.603   1.117   2.363  0.00  0.00    +0.009 C 
ENDBRANCH  12  13
BRANCH   9  16
ATOM     16  O2  UNL     1      -4.501  -0.127  -2.721  0.00  0.00    -0.495 OA
ATOM     17  C8  UNL     1      -5.848  -0.586  -2.778  0.00  0.00    +0.277 C 
ENDBRANCH   9  16
ENDBRANCH   4   7
BRANCH   1  18
ATOM     18  C3  UNL     1       3.459  -0.150   0.096  0.00  0.00    +0.160 C 
BRANCH  18  19
ATOM     19  C15 UNL     1       3.431  -0.267   1.597  0.00  0.00    +0.231 C 
ATOM     20  N3  UNL     1       3.582  -1.538   2.230  0.00  0.00    -0.328 N 
ATOM     21  O3  UNL     1       3.286   0.766   2.305  0.00  0.00    -0.274 OA
ATOM     22  H20 UNL     1       3.562  -1.612   3.271  0.00  0.00    +0.145 HD
ATOM     23  H21 UNL     1       3.713  -2.406   1.665  0.00  0.00    +0.145 HD
ENDBRANCH  18  19
BRANCH  18  25
ATOM     24  C1  UNL     1       4.900   0.569  -1.872  0.00  0.00    +0.006 C 
ATOM     25  C2  UNL     1       4.745   0.569  -0.351  0.00  0.00    +0.028 C 
ENDBRANCH  18  25
ENDBRANCH   1  18
TORSDOF 6
