MODEL 1
REMARK VINA RESULT:    -6.833      0.000      0.000
REMARK INTER + INTRA:         -10.384
REMARK INTER:                  -8.431
REMARK INTRA:                  -1.953
REMARK UNBOUND:                -1.953
REMARK  Name = /home/qwerty/github/datacon2025hack/step_04_hit_selection/docking/ligands/lig_565.pdb
REMARK  6 active torsions:
REMARK  status: ('A' for Active; 'I' for Inactive)
REMARK    1  A    between atoms: C2_2  and  C3_3
REMARK    2  A    between atoms: C2_2  and  C4_4
REMARK    3  A    between atoms: C4_4  and  N1_5
REMARK    4  A    between atoms: C5_6  and  C6_7
REMARK    5  A    between atoms: C9_10  and  C10_11
REMARK    6  A    between atoms: C13_14  and  C14_15
REMARK                            x       y       z     vdW  Elec       q    Type
REMARK                         _______ _______ _______ _____ _____    ______ ____
ROOT
ATOM      1  N1  UNL     1      11.712  12.907  28.031  0.00  0.00    -0.335 N 
ATOM      2  C5  UNL     1      11.152  12.695  29.255  0.00  0.00    +0.061 A 
ATOM      3  C13 UNL     1      11.876  13.369  30.246  0.00  0.00    +0.050 A 
ATOM      4  C21 UNL     1      12.916  13.997  29.582  0.00  0.00    +0.012 A 
ATOM      5  C22 UNL     1      13.954  14.804  30.057  0.00  0.00    +0.030 A 
ATOM      6  C23 UNL     1      14.893  15.287  29.129  0.00  0.00    +0.042 A 
ATOM      7 CL1  UNL     1      16.215  16.302  29.675  0.00  0.00    -0.084 Cl
ATOM      8  C24 UNL     1      14.783  14.953  27.763  0.00  0.00    +0.022 A 
ATOM      9  C25 UNL     1      13.726  14.145  27.310  0.00  0.00    +0.028 A 
ATOM     10  C26 UNL     1      12.792  13.691  28.248  0.00  0.00    +0.051 A 
ENDROOT
BRANCH   3  11
ATOM     11  C14 UNL     1      11.613  13.382  31.700  0.00  0.00    +0.142 A 
ATOM     12  N2  UNL     1      12.086  12.428  32.545  0.00  0.00    -0.228 NA
ATOM     13  C15 UNL     1      11.613  12.823  33.740  0.00  0.00    +0.089 A 
ATOM     14  C16 UNL     1      11.798  12.209  34.976  0.00  0.00    +0.030 A 
ATOM     15  C17 UNL     1      11.206  12.815  36.102  0.00  0.00    +0.002 A 
ATOM     16  C18 UNL     1      10.456  14.006  35.962  0.00  0.00    +0.002 A 
ATOM     17  C19 UNL     1      10.291  14.600  34.696  0.00  0.00    +0.028 A 
ATOM     18  C20 UNL     1      10.889  13.970  33.608  0.00  0.00    +0.066 A 
ATOM     19  N3  UNL     1      10.879  14.340  32.323  0.00  0.00    -0.338 N 
ATOM     20  H19 UNL     1      10.432  15.190  31.913  0.00  0.00    +0.167 HD
ENDBRANCH   3  11
BRANCH   2  21
ATOM     21  C6  UNL     1      10.051  11.744  29.515  0.00  0.00    -0.001 A 
ATOM     22  C7  UNL     1       8.732  12.099  29.196  0.00  0.00    +0.010 A 
ATOM     23  C8  UNL     1       7.686  11.197  29.415  0.00  0.00    +0.004 A 
ATOM     24  C9  UNL     1       7.949   9.924  29.943  0.00  0.00    -0.050 A 
ATOM     25  C10 UNL     1       6.824   8.971  30.215  0.00  0.00    +0.044 C 
ATOM     26  C11 UNL     1       9.268   9.576  30.276  0.00  0.00    +0.004 A 
ATOM     27  C12 UNL     1      10.313  10.477  30.054  0.00  0.00    +0.010 A 
ENDBRANCH   2  21
BRANCH   1  28
ATOM     28  C4  UNL     1      11.314  12.307  26.749  0.00  0.00    +0.152 C 
BRANCH  28  30
ATOM     29  C1  UNL     1      10.758   9.921  26.339  0.00  0.00    +0.009 C 
ATOM     30  C2  UNL     1      11.674  10.837  26.690  0.00  0.00    -0.060 C 
ATOM     31  C3  UNL     1      13.060  10.379  27.057  0.00  0.00    +0.040 C 
ENDBRANCH  28  30
ENDBRANCH   1  28
TORSDOF 4
ENDMDL
MODEL 2
REMARK VINA RESULT:    -6.706     12.062     15.200
REMARK INTER + INTRA:         -10.227
REMARK INTER:                  -8.300
REMARK INTRA:                  -1.928
REMARK UNBOUND:                -1.953
REMARK  Name = /home/qwerty/github/datacon2025hack/step_04_hit_selection/docking/ligands/lig_565.pdb
REMARK  6 active torsions:
REMARK  status: ('A' for Active; 'I' for Inactive)
REMARK    1  A    between atoms: C2_2  and  C3_3
REMARK    2  A    between atoms: C2_2  and  C4_4
REMARK    3  A    between atoms: C4_4  and  N1_5
REMARK    4  A    between atoms: C5_6  and  C6_7
REMARK    5  A    between atoms: C9_10  and  C10_11
REMARK    6  A    between atoms: C13_14  and  C14_15
REMARK                            x       y       z     vdW  Elec       q    Type
REMARK                         _______ _______ _______ _____ _____    ______ ____
ROOT
ATOM      1  N1  UNL     1      21.190   3.514  27.146  0.00  0.00    -0.335 N 
ATOM      2  C5  UNL     1      20.471   2.364  27.282  0.00  0.00    +0.061 A 
ATOM      3  C13 UNL     1      19.943   1.970  26.047  0.00  0.00    +0.050 A 
ATOM      4  C21 UNL     1      20.358   2.933  25.143  0.00  0.00    +0.012 A 
ATOM      5  C22 UNL     1      20.130   3.062  23.770  0.00  0.00    +0.030 A 
ATOM      6  C23 UNL     1      20.669   4.182  23.113  0.00  0.00    +0.042 A 
ATOM      7 CL1  UNL     1      20.410   4.391  21.391  0.00  0.00    -0.084 Cl
ATOM      8  C24 UNL     1      21.411   5.142  23.832  0.00  0.00    +0.022 A 
ATOM      9  C25 UNL     1      21.631   4.986  25.211  0.00  0.00    +0.028 A 
ATOM     10  C26 UNL     1      21.101   3.854  25.841  0.00  0.00    +0.051 A 
ENDROOT
BRANCH   3  11
ATOM     11  C14 UNL     1      19.094   0.794  25.766  0.00  0.00    +0.142 A 
ATOM     12  N2  UNL     1      17.753   0.780  25.994  0.00  0.00    -0.228 NA
ATOM     13  C15 UNL     1      17.395  -0.458  25.611  0.00  0.00    +0.089 A 
ATOM     14  C16 UNL     1      16.122  -1.021  25.626  0.00  0.00    +0.030 A 
ATOM     15  C17 UNL     1      15.988  -2.345  25.165  0.00  0.00    +0.002 A 
ATOM     16  C18 UNL     1      17.117  -3.062  24.706  0.00  0.00    +0.002 A 
ATOM     17  C19 UNL     1      18.390  -2.460  24.703  0.00  0.00    +0.028 A 
ATOM     18  C20 UNL     1      18.482  -1.150  25.169  0.00  0.00    +0.066 A 
ATOM     19  N3  UNL     1      19.567  -0.373  25.258  0.00  0.00    -0.338 N 
ATOM     20  H19 UNL     1      20.542  -0.612  24.969  0.00  0.00    +0.167 HD
ENDBRANCH   3  11
BRANCH   2  21
ATOM     21  C6  UNL     1      20.146   1.732  28.578  0.00  0.00    -0.001 A 
ATOM     22  C7  UNL     1      18.885   1.934  29.157  0.00  0.00    +0.010 A 
ATOM     23  C8  UNL     1      18.559   1.321  30.370  0.00  0.00    +0.004 A 
ATOM     24  C9  UNL     1      19.486   0.486  31.012  0.00  0.00    -0.050 A 
ATOM     25  C10 UNL     1      19.151  -0.141  32.332  0.00  0.00    +0.044 C 
ATOM     26  C11 UNL     1      20.753   0.296  30.439  0.00  0.00    +0.004 A 
ATOM     27  C12 UNL     1      21.077   0.908  29.225  0.00  0.00    +0.010 A 
ENDBRANCH   2  21
BRANCH   1  28
ATOM     28  C4  UNL     1      21.824   4.303  28.212  0.00  0.00    +0.152 C 
BRANCH  28  30
ATOM     29  C1  UNL     1      20.795   4.969  30.372  0.00  0.00    +0.009 C 
ATOM     30  C2  UNL     1      20.797   5.054  29.033  0.00  0.00    -0.060 C 
ATOM     31  C3  UNL     1      19.739   5.881  28.352  0.00  0.00    +0.040 C 
ENDBRANCH  28  30
ENDBRANCH   1  28
TORSDOF 4
ENDMDL
MODEL 3
REMARK VINA RESULT:    -6.666     12.122     14.287
REMARK INTER + INTRA:         -10.178
REMARK INTER:                  -8.253
REMARK INTRA:                  -1.925
REMARK UNBOUND:                -1.953
REMARK  Name = /home/qwerty/github/datacon2025hack/step_04_hit_selection/docking/ligands/lig_565.pdb
REMARK  6 active torsions:
REMARK  status: ('A' for Active; 'I' for Inactive)
REMARK    1  A    between atoms: C2_2  and  C3_3
REMARK    2  A    between atoms: C2_2  and  C4_4
REMARK    3  A    between atoms: C4_4  and  N1_5
REMARK    4  A    between atoms: C5_6  and  C6_7
REMARK    5  A    between atoms: C9_10  and  C10_11
REMARK    6  A    between atoms: C13_14  and  C14_15
REMARK                            x       y       z     vdW  Elec       q    Type
REMARK                         _______ _______ _______ _____ _____    ______ ____
ROOT
ATOM      1  N1  UNL     1      19.464   1.839  30.766  0.00  0.00    -0.335 N 
ATOM      2  C5  UNL     1      20.508   2.703  30.627  0.00  0.00    +0.061 A 
ATOM      3  C13 UNL     1      20.777   3.343  31.843  0.00  0.00    +0.050 A 
ATOM      4  C21 UNL     1      19.845   2.845  32.737  0.00  0.00    +0.012 A 
ATOM      5  C22 UNL     1      19.631   3.123  34.090  0.00  0.00    +0.030 A 
ATOM      6  C23 UNL     1      18.570   2.467  34.740  0.00  0.00    +0.042 A 
ATOM      7 CL1  UNL     1      18.260   2.783  36.437  0.00  0.00    -0.084 Cl
ATOM      8  C24 UNL     1      17.751   1.563  34.033  0.00  0.00    +0.022 A 
ATOM      9  C25 UNL     1      17.991   1.296  32.675  0.00  0.00    +0.028 A 
ATOM     10  C26 UNL     1      19.063   1.946  32.052  0.00  0.00    +0.051 A 
ENDROOT
BRANCH   3  11
ATOM     11  C14 UNL     1      21.812   4.362  32.113  0.00  0.00    +0.142 A 
ATOM     12  N2  UNL     1      21.640   5.682  31.836  0.00  0.00    -0.228 NA
ATOM     13  C15 UNL     1      22.805   6.227  32.229  0.00  0.00    +0.089 A 
ATOM     14  C16 UNL     1      23.180   7.567  32.177  0.00  0.00    +0.030 A 
ATOM     15  C17 UNL     1      24.461   7.905  32.656  0.00  0.00    +0.002 A 
ATOM     16  C18 UNL     1      25.321   6.906  33.168  0.00  0.00    +0.002 A 
ATOM     17  C19 UNL     1      24.908   5.561  33.206  0.00  0.00    +0.028 A 
ATOM     18  C20 UNL     1      23.635   5.266  32.722  0.00  0.00    +0.066 A 
ATOM     19  N3  UNL     1      23.024   4.078  32.658  0.00  0.00    -0.338 N 
ATOM     20  H19 UNL     1      23.392   3.158  32.987  0.00  0.00    +0.167 HD
ENDBRANCH   3  11
BRANCH   2  21
ATOM     21  C6  UNL     1      21.141   3.046  29.336  0.00  0.00    -0.001 A 
ATOM     22  C7  UNL     1      22.051   2.156  28.746  0.00  0.00    +0.010 A 
ATOM     23  C8  UNL     1      22.636   2.459  27.513  0.00  0.00    +0.004 A 
ATOM     24  C9  UNL     1      22.308   3.651  26.849  0.00  0.00    -0.050 A 
ATOM     25  C10 UNL     1      22.965   3.995  25.546  0.00  0.00    +0.044 C 
ATOM     26  C11 UNL     1      21.410   4.548  27.448  0.00  0.00    +0.004 A 
ATOM     27  C12 UNL     1      20.823   4.243  28.679  0.00  0.00    +0.010 A 
ENDBRANCH   2  21
BRANCH   1  28
ATOM     28  C4  UNL     1      18.813   1.046  29.712  0.00  0.00    +0.152 C 
BRANCH  28  30
ATOM     29  C1  UNL     1      17.091   2.764  29.210  0.00  0.00    +0.009 C 
ATOM     30  C2  UNL     1      18.036   1.927  28.756  0.00  0.00    -0.060 C 
ATOM     31  C3  UNL     1      18.292   1.849  27.274  0.00  0.00    +0.040 C 
ENDBRANCH  28  30
ENDBRANCH   1  28
TORSDOF 4
ENDMDL
MODEL 4
REMARK VINA RESULT:    -6.536      4.078      8.821
REMARK INTER + INTRA:         -10.017
REMARK INTER:                  -8.091
REMARK INTRA:                  -1.927
REMARK UNBOUND:                -1.953
REMARK  Name = /home/qwerty/github/datacon2025hack/step_04_hit_selection/docking/ligands/lig_565.pdb
REMARK  6 active torsions:
REMARK  status: ('A' for Active; 'I' for Inactive)
REMARK    1  A    between atoms: C2_2  and  C3_3
REMARK    2  A    between atoms: C2_2  and  C4_4
REMARK    3  A    between atoms: C4_4  and  N1_5
REMARK    4  A    between atoms: C5_6  and  C6_7
REMARK    5  A    between atoms: C9_10  and  C10_11
REMARK    6  A    between atoms: C13_14  and  C14_15
REMARK                            x       y       z     vdW  Elec       q    Type
REMARK                         _______ _______ _______ _____ _____    ______ ____
ROOT
ATOM      1  N1  UNL     1       9.077  10.017  29.496  0.00  0.00    -0.335 N 
ATOM      2  C5  UNL     1       9.281  10.511  28.243  0.00  0.00    +0.061 A 
ATOM      3  C13 UNL     1       8.710   9.665  27.285  0.00  0.00    +0.050 A 
ATOM      4  C21 UNL     1       8.153   8.619  28.001  0.00  0.00    +0.012 A 
ATOM      5  C22 UNL     1       7.458   7.483  27.576  0.00  0.00    +0.030 A 
ATOM      6  C23 UNL     1       7.029   6.567  28.552  0.00  0.00    +0.042 A 
ATOM      7 CL1  UNL     1       6.154   5.125  28.070  0.00  0.00    -0.084 Cl
ATOM      8  C24 UNL     1       7.302   6.798  29.916  0.00  0.00    +0.022 A 
ATOM      9  C25 UNL     1       7.997   7.951  30.318  0.00  0.00    +0.028 A 
ATOM     10  C26 UNL     1       8.400   8.858  29.332  0.00  0.00    +0.051 A 
ENDROOT
BRANCH   3  11
ATOM     11  C14 UNL     1       8.724   9.829  25.817  0.00  0.00    +0.142 A 
ATOM     12  N2  UNL     1       9.812   9.543  25.053  0.00  0.00    -0.228 NA
ATOM     13  C15 UNL     1       9.392   9.837  23.810  0.00  0.00    +0.089 A 
ATOM     14  C16 UNL     1      10.106   9.727  22.619  0.00  0.00    +0.030 A 
ATOM     15  C17 UNL     1       9.449  10.089  21.427  0.00  0.00    +0.002 A 
ATOM     16  C18 UNL     1       8.111  10.546  21.457  0.00  0.00    +0.002 A 
ATOM     17  C19 UNL     1       7.418  10.643  22.680  0.00  0.00    +0.028 A 
ATOM     18  C20 UNL     1       8.103  10.277  23.837  0.00  0.00    +0.066 A 
ATOM     19  N3  UNL     1       7.662  10.278  25.099  0.00  0.00    -0.338 N 
ATOM     20  H19 UNL     1       6.708  10.536  25.436  0.00  0.00    +0.167 HD
ENDBRANCH   3  11
BRANCH   2  21
ATOM     21  C6  UNL     1      10.140  11.675  27.935  0.00  0.00    -0.001 A 
ATOM     22  C7  UNL     1      11.469  11.475  27.535  0.00  0.00    +0.010 A 
ATOM     23  C8  UNL     1      12.282  12.567  27.218  0.00  0.00    +0.004 A 
ATOM     24  C9  UNL     1      11.771  13.872  27.284  0.00  0.00    -0.050 A 
ATOM     25  C10 UNL     1      12.654  15.045  26.982  0.00  0.00    +0.044 C 
ATOM     26  C11 UNL     1      10.445  14.071  27.699  0.00  0.00    +0.004 A 
ATOM     27  C12 UNL     1       9.633  12.979  28.014  0.00  0.00    +0.010 A 
ENDBRANCH   2  21
BRANCH   1  28
ATOM     28  C4  UNL     1       9.594  10.552  30.764  0.00  0.00    +0.152 C 
BRANCH  28  30
ATOM     29  C1  UNL     1      11.918  11.282  31.248  0.00  0.00    +0.009 C 
ATOM     30  C2  UNL     1      11.078  10.291  30.912  0.00  0.00    -0.060 C 
ATOM     31  C3  UNL     1      11.637   8.917  30.652  0.00  0.00    +0.040 C 
ENDBRANCH  28  30
ENDBRANCH   1  28
TORSDOF 4
ENDMDL
MODEL 5
REMARK VINA RESULT:    -6.451     11.526     13.821
REMARK INTER + INTRA:          -9.912
REMARK INTER:                  -8.028
REMARK INTRA:                  -1.885
REMARK UNBOUND:                -1.953
REMARK  Name = /home/qwerty/github/datacon2025hack/step_04_hit_selection/docking/ligands/lig_565.pdb
REMARK  6 active torsions:
REMARK  status: ('A' for Active; 'I' for Inactive)
REMARK    1  A    between atoms: C2_2  and  C3_3
REMARK    2  A    between atoms: C2_2  and  C4_4
REMARK    3  A    between atoms: C4_4  and  N1_5
REMARK    4  A    between atoms: C5_6  and  C6_7
REMARK    5  A    between atoms: C9_10  and  C10_11
REMARK    6  A    between atoms: C13_14  and  C14_15
REMARK                            x       y       z     vdW  Elec       q    Type
REMARK                         _______ _______ _______ _____ _____    ______ ____
ROOT
ATOM      1  N1  UNL     1      19.603   3.046  33.561  0.00  0.00    -0.335 N 
ATOM      2  C5  UNL     1      20.563   3.743  32.891  0.00  0.00    +0.061 A 
ATOM      3  C13 UNL     1      20.828   4.955  33.540  0.00  0.00    +0.050 A 
ATOM      4  C21 UNL     1      19.981   4.982  34.635  0.00  0.00    +0.012 A 
ATOM      5  C22 UNL     1      19.803   5.941  35.635  0.00  0.00    +0.030 A 
ATOM      6  C23 UNL     1      18.831   5.696  36.621  0.00  0.00    +0.042 A 
ATOM      7 CL1  UNL     1      18.569   6.872  37.897  0.00  0.00    -0.084 Cl
ATOM      8  C24 UNL     1      18.063   4.515  36.586  0.00  0.00    +0.022 A 
ATOM      9  C25 UNL     1      18.266   3.562  35.574  0.00  0.00    +0.028 A 
ATOM     10  C26 UNL     1      19.250   3.818  34.613  0.00  0.00    +0.051 A 
ENDROOT
BRANCH   3  11
ATOM     11  C14 UNL     1      21.783   6.005  33.130  0.00  0.00    +0.142 A 
ATOM     12  N2  UNL     1      21.454   7.009  32.274  0.00  0.00    -0.228 NA
ATOM     13  C15 UNL     1      22.598   7.711  32.180  0.00  0.00    +0.089 A 
ATOM     14  C16 UNL     1      22.834   8.861  31.431  0.00  0.00    +0.030 A 
ATOM     15  C17 UNL     1      24.121   9.430  31.496  0.00  0.00    +0.002 A 
ATOM     16  C18 UNL     1      25.124   8.842  32.300  0.00  0.00    +0.002 A 
ATOM     17  C19 UNL     1      24.849   7.679  33.046  0.00  0.00    +0.028 A 
ATOM     18  C20 UNL     1      23.566   7.145  32.954  0.00  0.00    +0.066 A 
ATOM     19  N3  UNL     1      23.069   6.064  33.564  0.00  0.00    -0.338 N 
ATOM     20  H19 UNL     1      23.559   5.439  34.241  0.00  0.00    +0.167 HD
ENDBRANCH   3  11
BRANCH   2  21
ATOM     21  C6  UNL     1      21.108   3.356  31.572  0.00  0.00    -0.001 A 
ATOM     22  C7  UNL     1      21.996   2.275  31.474  0.00  0.00    +0.010 A 
ATOM     23  C8  UNL     1      22.498   1.886  30.229  0.00  0.00    +0.004 A 
ATOM     24  C9  UNL     1      22.107   2.565  29.065  0.00  0.00    -0.050 A 
ATOM     25  C10 UNL     1      22.675   2.172  27.734  0.00  0.00    +0.044 C 
ATOM     26  C11 UNL     1      21.230   3.656  29.166  0.00  0.00    +0.004 A 
ATOM     27  C12 UNL     1      20.727   4.043  30.411  0.00  0.00    +0.010 A 
ENDBRANCH   2  21
BRANCH   1  28
ATOM     28  C4  UNL     1      18.977   1.777  33.161  0.00  0.00    +0.152 C 
BRANCH  28  30
ATOM     29  C1  UNL     1      17.047   2.765  31.950  0.00  0.00    +0.009 C 
ATOM     30  C2  UNL     1      18.112   1.948  31.931  0.00  0.00    -0.060 C 
ATOM     31  C3  UNL     1      18.417   1.176  30.675  0.00  0.00    +0.040 C 
ENDBRANCH  28  30
ENDBRANCH   1  28
TORSDOF 4
ENDMDL
MODEL 6
REMARK VINA RESULT:    -6.432     11.063     14.276
REMARK INTER + INTRA:          -9.889
REMARK INTER:                  -8.128
REMARK INTRA:                  -1.761
REMARK UNBOUND:                -1.953
REMARK  Name = /home/qwerty/github/datacon2025hack/step_04_hit_selection/docking/ligands/lig_565.pdb
REMARK  6 active torsions:
REMARK  status: ('A' for Active; 'I' for Inactive)
REMARK    1  A    between atoms: C2_2  and  C3_3
REMARK    2  A    between atoms: C2_2  and  C4_4
REMARK    3  A    between atoms: C4_4  and  N1_5
REMARK    4  A    between atoms: C5_6  and  C6_7
REMARK    5  A    between atoms: C9_10  and  C10_11
REMARK    6  A    between atoms: C13_14  and  C14_15
REMARK                            x       y       z     vdW  Elec       q    Type
REMARK                         _______ _______ _______ _____ _____    ______ ____
ROOT
ATOM      1  N1  UNL     1      20.328   7.228  35.911  0.00  0.00    -0.335 N 
ATOM      2  C5  UNL     1      20.908   6.846  34.739  0.00  0.00    +0.061 A 
ATOM      3  C13 UNL     1      20.354   5.642  34.290  0.00  0.00    +0.050 A 
ATOM      4  C21 UNL     1      19.413   5.290  35.242  0.00  0.00    +0.012 A 
ATOM      5  C22 UNL     1      18.556   4.188  35.323  0.00  0.00    +0.030 A 
ATOM      6  C23 UNL     1      17.713   4.087  36.444  0.00  0.00    +0.042 A 
ATOM      7 CL1  UNL     1      16.621   2.722  36.593  0.00  0.00    -0.084 Cl
ATOM      8  C24 UNL     1      17.746   5.073  37.451  0.00  0.00    +0.022 A 
ATOM      9  C25 UNL     1      18.611   6.174  37.343  0.00  0.00    +0.028 A 
ATOM     10  C26 UNL     1      19.428   6.265  36.211  0.00  0.00    +0.051 A 
ENDROOT
BRANCH   3  11
ATOM     11  C14 UNL     1      20.716   4.883  33.075  0.00  0.00    +0.142 A 
ATOM     12  N2  UNL     1      20.380   5.291  31.822  0.00  0.00    -0.228 NA
ATOM     13  C15 UNL     1      20.893   4.322  31.043  0.00  0.00    +0.089 A 
ATOM     14  C16 UNL     1      20.847   4.230  29.654  0.00  0.00    +0.030 A 
ATOM     15  C17 UNL     1      21.465   3.117  29.052  0.00  0.00    +0.002 A 
ATOM     16  C18 UNL     1      22.108   2.139  29.845  0.00  0.00    +0.002 A 
ATOM     17  C19 UNL     1      22.137   2.265  31.248  0.00  0.00    +0.028 A 
ATOM     18  C20 UNL     1      21.512   3.378  31.806  0.00  0.00    +0.066 A 
ATOM     19  N3  UNL     1      21.412   3.717  33.095  0.00  0.00    -0.338 N 
ATOM     20  H19 UNL     1      21.810   3.208  33.916  0.00  0.00    +0.167 HD
ENDBRANCH   3  11
BRANCH   2  21
ATOM     21  C6  UNL     1      22.079   7.513  34.132  0.00  0.00    -0.001 A 
ATOM     22  C7  UNL     1      23.367   7.005  34.358  0.00  0.00    +0.010 A 
ATOM     23  C8  UNL     1      24.479   7.614  33.768  0.00  0.00    +0.004 A 
ATOM     24  C9  UNL     1      24.315   8.731  32.935  0.00  0.00    -0.050 A 
ATOM     25  C10 UNL     1      25.510   9.408  32.334  0.00  0.00    +0.044 C 
ATOM     26  C11 UNL     1      23.027   9.248  32.722  0.00  0.00    +0.004 A 
ATOM     27  C12 UNL     1      21.916   8.637  33.310  0.00  0.00    +0.010 A 
ENDBRANCH   2  21
BRANCH   1  28
ATOM     28  C4  UNL     1      20.687   8.378  36.754  0.00  0.00    +0.152 C 
BRANCH  28  30
ATOM     29  C1  UNL     1      19.545  10.214  35.533  0.00  0.00    +0.009 C 
ATOM     30  C2  UNL     1      19.658   9.484  36.653  0.00  0.00    -0.060 C 
ATOM     31  C3  UNL     1      18.767   9.802  37.825  0.00  0.00    +0.040 C 
ENDBRANCH  28  30
ENDBRANCH   1  28
TORSDOF 4
ENDMDL
MODEL 7
REMARK VINA RESULT:    -6.414     12.474     14.972
REMARK INTER + INTRA:          -9.867
REMARK INTER:                  -8.041
REMARK INTRA:                  -1.826
REMARK UNBOUND:                -1.953
REMARK  Name = /home/qwerty/github/datacon2025hack/step_04_hit_selection/docking/ligands/lig_565.pdb
REMARK  6 active torsions:
REMARK  status: ('A' for Active; 'I' for Inactive)
REMARK    1  A    between atoms: C2_2  and  C3_3
REMARK    2  A    between atoms: C2_2  and  C4_4
REMARK    3  A    between atoms: C4_4  and  N1_5
REMARK    4  A    between atoms: C5_6  and  C6_7
REMARK    5  A    between atoms: C9_10  and  C10_11
REMARK    6  A    between atoms: C13_14  and  C14_15
REMARK                            x       y       z     vdW  Elec       q    Type
REMARK                         _______ _______ _______ _____ _____    ______ ____
ROOT
ATOM      1  N1  UNL     1      19.657   3.207  24.419  0.00  0.00    -0.335 N 
ATOM      2  C5  UNL     1      19.082   2.174  25.096  0.00  0.00    +0.061 A 
ATOM      3  C13 UNL     1      17.961   1.701  24.403  0.00  0.00    +0.050 A 
ATOM      4  C21 UNL     1      17.862   2.494  23.274  0.00  0.00    +0.012 A 
ATOM      5  C22 UNL     1      16.940   2.486  22.223  0.00  0.00    +0.030 A 
ATOM      6  C23 UNL     1      17.083   3.449  21.209  0.00  0.00    +0.042 A 
ATOM      7 CL1  UNL     1      15.950   3.481  19.871  0.00  0.00    -0.084 Cl
ATOM      8  C24 UNL     1      18.128   4.394  21.266  0.00  0.00    +0.022 A 
ATOM      9  C25 UNL     1      19.046   4.377  22.330  0.00  0.00    +0.028 A 
ATOM     10  C26 UNL     1      18.896   3.399  23.318  0.00  0.00    +0.051 A 
ENDROOT
BRANCH   3  11
ATOM     11  C14 UNL     1      17.052   0.608  24.804  0.00  0.00    +0.142 A 
ATOM     12  N2  UNL     1      17.108  -0.638  24.261  0.00  0.00    -0.228 NA
ATOM     13  C15 UNL     1      16.121  -1.290  24.899  0.00  0.00    +0.089 A 
ATOM     14  C16 UNL     1      15.729  -2.616  24.736  0.00  0.00    +0.030 A 
ATOM     15  C17 UNL     1      14.663  -3.085  25.527  0.00  0.00    +0.002 A 
ATOM     16  C18 UNL     1      14.025  -2.225  26.451  0.00  0.00    +0.002 A 
ATOM     17  C19 UNL     1      14.448  -0.889  26.591  0.00  0.00    +0.028 A 
ATOM     18  C20 UNL     1      15.504  -0.463  25.789  0.00  0.00    +0.066 A 
ATOM     19  N3  UNL     1      16.081   0.743  25.745  0.00  0.00    -0.338 N 
ATOM     20  H19 UNL     1      15.849   1.577  26.328  0.00  0.00    +0.167 HD
ENDBRANCH   3  11
BRANCH   2  21
ATOM     21  C6  UNL     1      19.479   1.742  26.453  0.00  0.00    -0.001 A 
ATOM     22  C7  UNL     1      20.665   1.017  26.636  0.00  0.00    +0.010 A 
ATOM     23  C8  UNL     1      21.062   0.625  27.917  0.00  0.00    +0.004 A 
ATOM     24  C9  UNL     1      20.283   0.966  29.034  0.00  0.00    -0.050 A 
ATOM     25  C10 UNL     1      20.688   0.512  30.405  0.00  0.00    +0.044 C 
ATOM     26  C11 UNL     1      19.088   1.679  28.848  0.00  0.00    +0.004 A 
ATOM     27  C12 UNL     1      18.694   2.072  27.567  0.00  0.00    +0.010 A 
ENDBRANCH   2  21
BRANCH   1  28
ATOM     28  C4  UNL     1      20.791   4.038  24.850  0.00  0.00    +0.152 C 
BRANCH  28  30
ATOM     29  C1  UNL     1      19.417   5.741  26.023  0.00  0.00    +0.009 C 
ATOM     30  C2  UNL     1      20.439   4.873  26.063  0.00  0.00    -0.060 C 
ATOM     31  C3  UNL     1      21.255   4.762  27.324  0.00  0.00    +0.040 C 
ENDBRANCH  28  30
ENDBRANCH   1  28
TORSDOF 4
ENDMDL
MODEL 8
REMARK VINA RESULT:    -6.342     13.369     14.271
REMARK INTER + INTRA:          -9.779
REMARK INTER:                  -8.183
REMARK INTRA:                  -1.596
REMARK UNBOUND:                -1.953
REMARK  Name = /home/qwerty/github/datacon2025hack/step_04_hit_selection/docking/ligands/lig_565.pdb
REMARK  6 active torsions:
REMARK  status: ('A' for Active; 'I' for Inactive)
REMARK    1  A    between atoms: C2_2  and  C3_3
REMARK    2  A    between atoms: C2_2  and  C4_4
REMARK    3  A    between atoms: C4_4  and  N1_5
REMARK    4  A    between atoms: C5_6  and  C6_7
REMARK    5  A    between atoms: C9_10  and  C10_11
REMARK    6  A    between atoms: C13_14  and  C14_15
REMARK                            x       y       z     vdW  Elec       q    Type
REMARK                         _______ _______ _______ _____ _____    ______ ____
ROOT
ATOM      1  N1  UNL     1      17.006   2.448  23.320  0.00  0.00    -0.335 N 
ATOM      2  C5  UNL     1      17.306   1.839  24.502  0.00  0.00    +0.061 A 
ATOM      3  C13 UNL     1      18.570   2.241  24.951  0.00  0.00    +0.050 A 
ATOM      4  C21 UNL     1      19.044   3.116  23.988  0.00  0.00    +0.012 A 
ATOM      5  C22 UNL     1      20.246   3.822  23.902  0.00  0.00    +0.030 A 
ATOM      6  C23 UNL     1      20.459   4.629  22.771  0.00  0.00    +0.042 A 
ATOM      7 CL1  UNL     1      21.954   5.535  22.615  0.00  0.00    -0.084 Cl
ATOM      8  C24 UNL     1      19.481   4.710  21.758  0.00  0.00    +0.022 A 
ATOM      9  C25 UNL     1      18.277   3.995  21.872  0.00  0.00    +0.028 A 
ATOM     10  C26 UNL     1      18.078   3.212  23.014  0.00  0.00    +0.051 A 
ENDROOT
BRANCH   3  11
ATOM     11  C14 UNL     1      19.271   1.800  26.174  0.00  0.00    +0.142 A 
ATOM     12  N2  UNL     1      18.757   1.969  27.422  0.00  0.00    -0.228 NA
ATOM     13  C15 UNL     1      19.707   1.441  28.213  0.00  0.00    +0.089 A 
ATOM     14  C16 UNL     1      19.703   1.341  29.602  0.00  0.00    +0.030 A 
ATOM     15  C17 UNL     1      20.817   0.738  30.217  0.00  0.00    +0.002 A 
ATOM     16  C18 UNL     1      21.892   0.254  29.436  0.00  0.00    +0.002 A 
ATOM     17  C19 UNL     1      21.862   0.370  28.033  0.00  0.00    +0.028 A 
ATOM     18  C20 UNL     1      20.744   0.975  27.462  0.00  0.00    +0.066 A 
ATOM     19  N3  UNL     1      20.486   1.193  26.168  0.00  0.00    -0.338 N 
ATOM     20  H19 UNL     1      21.076   0.922  25.351  0.00  0.00    +0.167 HD
ENDBRANCH   3  11
BRANCH   2  21
ATOM     21  C6  UNL     1      16.491   0.772  25.121  0.00  0.00    -0.001 A 
ATOM     22  C7  UNL     1      15.353   1.108  25.869  0.00  0.00    +0.010 A 
ATOM     23  C8  UNL     1      14.562   0.106  26.438  0.00  0.00    +0.004 A 
ATOM     24  C9  UNL     1      14.892  -1.246  26.253  0.00  0.00    -0.050 A 
ATOM     25  C10 UNL     1      14.066  -2.320  26.896  0.00  0.00    +0.044 C 
ATOM     26  C11 UNL     1      16.039  -1.580  25.517  0.00  0.00    +0.004 A 
ATOM     27  C12 UNL     1      16.828  -0.577  24.947  0.00  0.00    +0.010 A 
ENDBRANCH   2  21
BRANCH   1  28
ATOM     28  C4  UNL     1      15.822   2.228  22.476  0.00  0.00    +0.152 C 
BRANCH  28  30
ATOM     29  C1  UNL     1      16.118   1.829  20.043  0.00  0.00    +0.009 C 
ATOM     30  C2  UNL     1      16.143   1.340  21.292  0.00  0.00    -0.060 C 
ATOM     31  C3  UNL     1      16.464  -0.116  21.500  0.00  0.00    +0.040 C 
ENDBRANCH  28  30
ENDBRANCH   1  28
TORSDOF 4
ENDMDL
MODEL 9
REMARK VINA RESULT:    -6.302      5.128      8.631
REMARK INTER + INTRA:          -9.729
REMARK INTER:                  -8.145
REMARK INTRA:                  -1.583
REMARK UNBOUND:                -1.953
REMARK  Name = /home/qwerty/github/datacon2025hack/step_04_hit_selection/docking/ligands/lig_565.pdb
REMARK  6 active torsions:
REMARK  status: ('A' for Active; 'I' for Inactive)
REMARK    1  A    between atoms: C2_2  and  C3_3
REMARK    2  A    between atoms: C2_2  and  C4_4
REMARK    3  A    between atoms: C4_4  and  N1_5
REMARK    4  A    between atoms: C5_6  and  C6_7
REMARK    5  A    between atoms: C9_10  and  C10_11
REMARK    6  A    between atoms: C13_14  and  C14_15
REMARK                            x       y       z     vdW  Elec       q    Type
REMARK                         _______ _______ _______ _____ _____    ______ ____
ROOT
ATOM      1  N1  UNL     1       9.290   6.481  24.847  0.00  0.00    -0.335 N 
ATOM      2  C5  UNL     1       9.625   7.799  24.921  0.00  0.00    +0.061 A 
ATOM      3  C13 UNL     1       9.158   8.355  26.119  0.00  0.00    +0.050 A 
ATOM      4  C21 UNL     1       8.509   7.324  26.777  0.00  0.00    +0.012 A 
ATOM      5  C22 UNL     1       7.848   7.292  28.007  0.00  0.00    +0.030 A 
ATOM      6  C23 UNL     1       7.253   6.083  28.408  0.00  0.00    +0.042 A 
ATOM      7 CL1  UNL     1       6.410   5.993  29.944  0.00  0.00    -0.084 Cl
ATOM      8  C24 UNL     1       7.324   4.945  27.578  0.00  0.00    +0.022 A 
ATOM      9  C25 UNL     1       8.000   5.001  26.348  0.00  0.00    +0.028 A 
ATOM     10  C26 UNL     1       8.601   6.209  25.978  0.00  0.00    +0.051 A 
ENDROOT
BRANCH   3  11
ATOM     11  C14 UNL     1       9.294   9.753  26.575  0.00  0.00    +0.142 A 
ATOM     12  N2  UNL     1      10.499  10.361  26.743  0.00  0.00    -0.228 NA
ATOM     13  C15 UNL     1      10.158  11.593  27.162  0.00  0.00    +0.089 A 
ATOM     14  C16 UNL     1      11.006  12.649  27.486  0.00  0.00    +0.030 A 
ATOM     15  C17 UNL     1      10.415  13.859  27.899  0.00  0.00    +0.002 A 
ATOM     16  C18 UNL     1       9.008  13.979  27.974  0.00  0.00    +0.002 A 
ATOM     17  C19 UNL     1       8.181  12.891  27.638  0.00  0.00    +0.028 A 
ATOM     18  C20 UNL     1       8.803  11.710  27.237  0.00  0.00    +0.066 A 
ATOM     19  N3  UNL     1       8.238  10.556  26.867  0.00  0.00    -0.338 N 
ATOM     20  H19 UNL     1       7.218  10.346  26.793  0.00  0.00    +0.167 HD
ENDBRANCH   3  11
BRANCH   2  21
ATOM     21  C6  UNL     1      10.231   8.570  23.815  0.00  0.00    -0.001 A 
ATOM     22  C7  UNL     1      11.605   8.461  23.559  0.00  0.00    +0.010 A 
ATOM     23  C8  UNL     1      12.184   9.166  22.500  0.00  0.00    +0.004 A 
ATOM     24  C9  UNL     1      11.391   9.978  21.675  0.00  0.00    -0.050 A 
ATOM     25  C10 UNL     1      12.018  10.765  20.563  0.00  0.00    +0.044 C 
ATOM     26  C11 UNL     1      10.018  10.098  21.941  0.00  0.00    +0.004 A 
ATOM     27  C12 UNL     1       9.441   9.392  22.998  0.00  0.00    +0.010 A 
ENDBRANCH   2  21
BRANCH   1  28
ATOM     28  C4  UNL     1       9.511   5.564  23.719  0.00  0.00    +0.152 C 
BRANCH  28  30
ATOM     29  C1  UNL     1       7.925   6.397  21.999  0.00  0.00    +0.009 C 
ATOM     30  C2  UNL     1       8.269   5.430  22.862  0.00  0.00    -0.060 C 
ATOM     31  C3  UNL     1       7.384   4.219  22.993  0.00  0.00    +0.040 C 
ENDBRANCH  28  30
ENDBRANCH   1  28
TORSDOF 4
ENDMDL
