MODEL 1
REMARK VINA RESULT:    -6.230      0.000      0.000
REMARK INTER + INTRA:          -7.829
REMARK INTER:                  -7.323
REMARK INTRA:                  -0.506
REMARK UNBOUND:                -0.506
REMARK  Name = /home/qwerty/github/datacon2025hack/step_04_hit_selection/docking/ligands/lig_600.pdb
REMARK  3 active torsions:
REMARK  status: ('A' for Active; 'I' for Inactive)
REMARK    1  A    between atoms: C1_2  and  C17_20
REMARK    2  A    between atoms: N1_3  and  C2_4
REMARK    3  A    between atoms: C5_7  and  C6_8
REMARK                            x       y       z     vdW  Elec       q    Type
REMARK                         _______ _______ _______ _____ _____    ______ ____
ROOT
ATOM      1  C2  UNL     1      17.317  11.771  37.241  0.00  0.00    +0.033 A 
ATOM      2  C3  UNL     1      18.393  12.148  36.426  0.00  0.00    +0.024 A 
ATOM      3  C4  UNL     1      19.440  11.257  36.174  0.00  0.00    +0.010 A 
ATOM      4  C5  UNL     1      19.422   9.962  36.721  0.00  0.00    -0.018 A 
ATOM      5  C15 UNL     1      18.330   9.577  37.518  0.00  0.00    +0.010 A 
ATOM      6  C16 UNL     1      17.284  10.470  37.771  0.00  0.00    +0.024 A 
ENDROOT
BRANCH   4   7
ATOM      7  C6  UNL     1      20.533   9.013  36.452  0.00  0.00    -0.017 A 
ATOM      8  C7  UNL     1      20.815   7.973  37.357  0.00  0.00    +0.009 A 
ATOM      9  C8  UNL     1      21.858   7.076  37.110  0.00  0.00    +0.009 A 
ATOM     10  C9  UNL     1      22.639   7.206  35.954  0.00  0.00    -0.015 A 
ATOM     11  C10 UNL     1      23.689   6.315  35.693  0.00  0.00    +0.028 A 
ATOM     12  C11 UNL     1      24.449   6.474  34.531  0.00  0.00    +0.111 A 
ATOM     13  N2  UNL     1      24.171   7.484  33.664  0.00  0.00    -0.263 NA
ATOM     14  C12 UNL     1      23.159   8.364  33.889  0.00  0.00    +0.119 A 
ATOM     15  C13 UNL     1      22.366   8.246  35.039  0.00  0.00    +0.001 A 
ATOM     16  C14 UNL     1      21.318   9.142  35.292  0.00  0.00    +0.018 A 
ENDBRANCH   4   7
BRANCH   1  19
ATOM     17  O1  UNL     1      15.007  12.168  35.543  0.00  0.00    -0.275 OA
ATOM     18  C1  UNL     1      15.155  12.909  36.551  0.00  0.00    +0.220 C 
ATOM     19  N1  UNL     1      16.244  12.700  37.465  0.00  0.00    -0.285 N 
ATOM     20  H1  UNL     1      16.203  13.188  38.388  0.00  0.00    +0.155 HD
BRANCH  18  21
ATOM     21  C17 UNL     1      14.186  14.029  36.790  0.00  0.00    +0.075 C 
ATOM     22  C18 UNL     1      13.522  14.569  35.532  0.00  0.00    +0.013 C 
ATOM     23  C19 UNL     1      14.606  15.378  36.224  0.00  0.00    +0.013 C 
ENDBRANCH  18  21
ENDBRANCH   1  19
TORSDOF 3
ENDMDL
MODEL 2
REMARK VINA RESULT:    -6.200      1.268      2.359
REMARK INTER + INTRA:          -7.793
REMARK INTER:                  -7.292
REMARK INTRA:                  -0.502
REMARK UNBOUND:                -0.506
REMARK  Name = /home/qwerty/github/datacon2025hack/step_04_hit_selection/docking/ligands/lig_600.pdb
REMARK  3 active torsions:
REMARK  status: ('A' for Active; 'I' for Inactive)
REMARK    1  A    between atoms: C1_2  and  C17_20
REMARK    2  A    between atoms: N1_3  and  C2_4
REMARK    3  A    between atoms: C5_7  and  C6_8
REMARK                            x       y       z     vdW  Elec       q    Type
REMARK                         _______ _______ _______ _____ _____    ______ ____
ROOT
ATOM      1  C2  UNL     1      18.171  12.281  36.302  0.00  0.00    +0.033 A 
ATOM      2  C3  UNL     1      18.208  10.908  36.583  0.00  0.00    +0.024 A 
ATOM      3  C4  UNL     1      19.199  10.095  36.025  0.00  0.00    +0.010 A 
ATOM      4  C5  UNL     1      20.186  10.645  35.189  0.00  0.00    -0.018 A 
ATOM      5  C15 UNL     1      20.163  12.027  34.929  0.00  0.00    +0.010 A 
ATOM      6  C16 UNL     1      19.169  12.838  35.485  0.00  0.00    +0.024 A 
ENDROOT
BRANCH   4   7
ATOM      7  C6  UNL     1      21.241   9.782  34.598  0.00  0.00    -0.017 A 
ATOM      8  C7  UNL     1      21.666   9.985  33.272  0.00  0.00    +0.009 A 
ATOM      9  C8  UNL     1      22.659   9.178  32.709  0.00  0.00    +0.009 A 
ATOM     10  C9  UNL     1      23.244   8.152  33.464  0.00  0.00    -0.015 A 
ATOM     11  C10 UNL     1      24.239   7.334  32.914  0.00  0.00    +0.028 A 
ATOM     12  C11 UNL     1      24.800   6.320  33.694  0.00  0.00    +0.111 A 
ATOM     13  N2  UNL     1      24.381   6.129  34.974  0.00  0.00    -0.263 NA
ATOM     14  C12 UNL     1      23.417   6.907  35.536  0.00  0.00    +0.119 A 
ATOM     15  C13 UNL     1      22.825   7.939  34.796  0.00  0.00    +0.001 A 
ATOM     16  C14 UNL     1      21.829   8.752  35.354  0.00  0.00    +0.018 A 
ENDBRANCH   4   7
BRANCH   1  19
ATOM     17  O1  UNL     1      15.642  13.032  35.113  0.00  0.00    -0.275 OA
ATOM     18  C1  UNL     1      15.945  13.500  36.243  0.00  0.00    +0.220 C 
ATOM     19  N1  UNL     1      17.154  13.096  36.907  0.00  0.00    -0.285 N 
ATOM     20  H1  UNL     1      17.254  13.335  37.919  0.00  0.00    +0.155 HD
BRANCH  18  21
ATOM     21  C17 UNL     1      15.035  14.498  36.895  0.00  0.00    +0.075 C 
ATOM     22  C18 UNL     1      14.139  15.261  35.930  0.00  0.00    +0.013 C 
ATOM     23  C19 UNL     1      15.332  15.954  36.565  0.00  0.00    +0.013 C 
ENDBRANCH  18  21
ENDBRANCH   1  19
TORSDOF 3
ENDMDL
MODEL 3
REMARK VINA RESULT:    -6.040     17.096     17.899
REMARK INTER + INTRA:          -7.604
REMARK INTER:                  -7.097
REMARK INTRA:                  -0.507
REMARK UNBOUND:                -0.506
REMARK  Name = /home/qwerty/github/datacon2025hack/step_04_hit_selection/docking/ligands/lig_600.pdb
REMARK  3 active torsions:
REMARK  status: ('A' for Active; 'I' for Inactive)
REMARK    1  A    between atoms: C1_2  and  C17_20
REMARK    2  A    between atoms: N1_3  and  C2_4
REMARK    3  A    between atoms: C5_7  and  C6_8
REMARK                            x       y       z     vdW  Elec       q    Type
REMARK                         _______ _______ _______ _____ _____    ______ ____
ROOT
ATOM      1  C2  UNL     1      11.160   4.626  20.234  0.00  0.00    +0.033 A 
ATOM      2  C3  UNL     1      10.871   3.544  21.077  0.00  0.00    +0.024 A 
ATOM      3  C4  UNL     1      11.837   2.567  21.337  0.00  0.00    +0.010 A 
ATOM      4  C5  UNL     1      13.121   2.666  20.773  0.00  0.00    -0.018 A 
ATOM      5  C15 UNL     1      13.417   3.765  19.948  0.00  0.00    +0.010 A 
ATOM      6  C16 UNL     1      12.449   4.739  19.686  0.00  0.00    +0.024 A 
ENDROOT
BRANCH   4   7
ATOM      7  C6  UNL     1      14.149   1.629  21.051  0.00  0.00    -0.017 A 
ATOM      8  C7  UNL     1      15.197   1.406  20.140  0.00  0.00    +0.009 A 
ATOM      9  C8  UNL     1      16.169   0.434  20.395  0.00  0.00    +0.009 A 
ATOM     10  C9  UNL     1      16.107  -0.332  21.567  0.00  0.00    -0.015 A 
ATOM     11  C10 UNL     1      17.073  -1.311  21.837  0.00  0.00    +0.028 A 
ATOM     12  C11 UNL     1      16.980  -2.058  23.013  0.00  0.00    +0.111 A 
ATOM     13  N2  UNL     1      15.961  -1.837  23.887  0.00  0.00    -0.263 NA
ATOM     14  C12 UNL     1      15.009  -0.894  23.654  0.00  0.00    +0.119 A 
ATOM     15  C13 UNL     1      15.058  -0.117  22.488  0.00  0.00    +0.001 A 
ATOM     16  C14 UNL     1      14.088   0.860  22.226  0.00  0.00    +0.018 A 
ENDBRANCH   4   7
BRANCH   1  19
ATOM     17  O1  UNL     1      10.744   7.035  21.783  0.00  0.00    -0.275 OA
ATOM     18  C1  UNL     1       9.945   6.769  20.846  0.00  0.00    +0.220 C 
ATOM     19  N1  UNL     1      10.155   5.626  20.002  0.00  0.00    -0.285 N 
ATOM     20  H1  UNL     1       9.603   5.568  19.117  0.00  0.00    +0.155 HD
BRANCH  18  21
ATOM     21  C17 UNL     1       8.755   7.654  20.620  0.00  0.00    +0.075 C 
ATOM     22  C18 UNL     1       8.390   8.537  21.804  0.00  0.00    +0.013 C 
ATOM     23  C19 UNL     1       7.536   7.326  21.470  0.00  0.00    +0.013 C 
ENDBRANCH  18  21
ENDBRANCH   1  19
TORSDOF 3
ENDMDL
MODEL 4
REMARK VINA RESULT:    -5.998     16.790     17.956
REMARK INTER + INTRA:          -7.555
REMARK INTER:                  -7.045
REMARK INTRA:                  -0.511
REMARK UNBOUND:                -0.506
REMARK  Name = /home/qwerty/github/datacon2025hack/step_04_hit_selection/docking/ligands/lig_600.pdb
REMARK  3 active torsions:
REMARK  status: ('A' for Active; 'I' for Inactive)
REMARK    1  A    between atoms: C1_2  and  C17_20
REMARK    2  A    between atoms: N1_3  and  C2_4
REMARK    3  A    between atoms: C5_7  and  C6_8
REMARK                            x       y       z     vdW  Elec       q    Type
REMARK                         _______ _______ _______ _____ _____    ______ ____
ROOT
ATOM      1  C2  UNL     1      17.723   8.935  19.154  0.00  0.00    +0.033 A 
ATOM      2  C3  UNL     1      17.156  10.174  19.481  0.00  0.00    +0.024 A 
ATOM      3  C4  UNL     1      17.939  11.332  19.497  0.00  0.00    +0.010 A 
ATOM      4  C5  UNL     1      19.304  11.275  19.166  0.00  0.00    -0.018 A 
ATOM      5  C15 UNL     1      19.866  10.035  18.813  0.00  0.00    +0.010 A 
ATOM      6  C16 UNL     1      19.082   8.878  18.801  0.00  0.00    +0.024 A 
ENDROOT
BRANCH   4   7
ATOM      7  C6  UNL     1      20.137  12.505  19.181  0.00  0.00    -0.017 A 
ATOM      8  C7  UNL     1      19.585  13.733  19.589  0.00  0.00    +0.009 A 
ATOM      9  C8  UNL     1      20.362  14.895  19.607  0.00  0.00    +0.009 A 
ATOM     10  C9  UNL     1      21.707  14.847  19.215  0.00  0.00    -0.015 A 
ATOM     11  C10 UNL     1      22.499  16.003  19.226  0.00  0.00    +0.028 A 
ATOM     12  C11 UNL     1      23.835  15.921  18.827  0.00  0.00    +0.111 A 
ATOM     13  N2  UNL     1      24.360  14.730  18.431  0.00  0.00    -0.263 NA
ATOM     14  C12 UNL     1      23.617  13.591  18.409  0.00  0.00    +0.119 A 
ATOM     15  C13 UNL     1      22.272  13.621  18.802  0.00  0.00    +0.001 A 
ATOM     16  C14 UNL     1      21.486  12.459  18.787  0.00  0.00    +0.018 A 
ENDBRANCH   4   7
BRANCH   1  19
ATOM     17  O1  UNL     1      17.095   7.218  21.397  0.00  0.00    -0.275 OA
ATOM     18  C1  UNL     1      16.667   6.905  20.254  0.00  0.00    +0.220 C 
ATOM     19  N1  UNL     1      16.889   7.765  19.124  0.00  0.00    -0.285 N 
ATOM     20  H1  UNL     1      16.338   7.578  18.257  0.00  0.00    +0.155 HD
BRANCH  18  21
ATOM     21  C17 UNL     1      15.929   5.612  20.073  0.00  0.00    +0.075 C 
ATOM     22  C18 UNL     1      16.183   4.581  21.162  0.00  0.00    +0.013 C 
ATOM     23  C19 UNL     1      16.807   4.401  19.790  0.00  0.00    +0.013 C 
ENDBRANCH  18  21
ENDBRANCH   1  19
TORSDOF 3
ENDMDL
MODEL 5
REMARK VINA RESULT:    -5.995     10.994     13.077
REMARK INTER + INTRA:          -7.552
REMARK INTER:                  -7.084
REMARK INTRA:                  -0.468
REMARK UNBOUND:                -0.506
REMARK  Name = /home/qwerty/github/datacon2025hack/step_04_hit_selection/docking/ligands/lig_600.pdb
REMARK  3 active torsions:
REMARK  status: ('A' for Active; 'I' for Inactive)
REMARK    1  A    between atoms: C1_2  and  C17_20
REMARK    2  A    between atoms: N1_3  and  C2_4
REMARK    3  A    between atoms: C5_7  and  C6_8
REMARK                            x       y       z     vdW  Elec       q    Type
REMARK                         _______ _______ _______ _____ _____    ______ ____
ROOT
ATOM      1  C2  UNL     1      22.130   5.122  24.941  0.00  0.00    +0.033 A 
ATOM      2  C3  UNL     1      22.877   3.970  25.219  0.00  0.00    +0.024 A 
ATOM      3  C4  UNL     1      22.574   3.176  26.330  0.00  0.00    +0.010 A 
ATOM      4  C5  UNL     1      21.501   3.512  27.174  0.00  0.00    -0.018 A 
ATOM      5  C15 UNL     1      20.737   4.654  26.880  0.00  0.00    +0.010 A 
ATOM      6  C16 UNL     1      21.043   5.448  25.771  0.00  0.00    +0.024 A 
ENDROOT
BRANCH   4   7
ATOM      7  C6  UNL     1      21.177   2.668  28.353  0.00  0.00    -0.017 A 
ATOM      8  C7  UNL     1      22.122   1.755  28.856  0.00  0.00    +0.009 A 
ATOM      9  C8  UNL     1      21.824   0.959  29.966  0.00  0.00    +0.009 A 
ATOM     10  C9  UNL     1      20.574   1.062  30.591  0.00  0.00    -0.015 A 
ATOM     11  C10 UNL     1      20.260   0.270  31.704  0.00  0.00    +0.028 A 
ATOM     12  C11 UNL     1      19.004   0.396  32.301  0.00  0.00    +0.111 A 
ATOM     13  N2  UNL     1      18.096   1.279  31.807  0.00  0.00    -0.263 NA
ATOM     14  C12 UNL     1      18.370   2.062  30.728  0.00  0.00    +0.119 A 
ATOM     15  C13 UNL     1      19.617   1.973  30.094  0.00  0.00    +0.001 A 
ATOM     16  C14 UNL     1      19.922   2.770  28.981  0.00  0.00    +0.018 A 
ENDBRANCH   4   7
BRANCH   1  19
ATOM     17  O1  UNL     1      20.948   4.863  22.312  0.00  0.00    -0.275 OA
ATOM     18  C1  UNL     1      21.885   5.689  22.478  0.00  0.00    +0.220 C 
ATOM     19  N1  UNL     1      22.451   5.907  23.781  0.00  0.00    -0.285 N 
ATOM     20  H1  UNL     1      23.063   6.744  23.910  0.00  0.00    +0.155 HD
BRANCH  18  21
ATOM     21  C17 UNL     1      22.420   6.442  21.298  0.00  0.00    +0.075 C 
ATOM     22  C18 UNL     1      23.535   7.424  21.627  0.00  0.00    +0.013 C 
ATOM     23  C19 UNL     1      22.143   7.939  21.308  0.00  0.00    +0.013 C 
ENDBRANCH  18  21
ENDBRANCH   1  19
TORSDOF 3
ENDMDL
MODEL 6
REMARK VINA RESULT:    -5.899     10.395     11.452
REMARK INTER + INTRA:          -7.439
REMARK INTER:                  -6.929
REMARK INTRA:                  -0.510
REMARK UNBOUND:                -0.506
REMARK  Name = /home/qwerty/github/datacon2025hack/step_04_hit_selection/docking/ligands/lig_600.pdb
REMARK  3 active torsions:
REMARK  status: ('A' for Active; 'I' for Inactive)
REMARK    1  A    between atoms: C1_2  and  C17_20
REMARK    2  A    between atoms: N1_3  and  C2_4
REMARK    3  A    between atoms: C5_7  and  C6_8
REMARK                            x       y       z     vdW  Elec       q    Type
REMARK                         _______ _______ _______ _____ _____    ______ ____
ROOT
ATOM      1  C2  UNL     1      18.577   0.592  32.820  0.00  0.00    +0.033 A 
ATOM      2  C3  UNL     1      17.936   1.412  31.882  0.00  0.00    +0.024 A 
ATOM      3  C4  UNL     1      18.611   1.846  30.737  0.00  0.00    +0.010 A 
ATOM      4  C5  UNL     1      19.939   1.452  30.500  0.00  0.00    -0.018 A 
ATOM      5  C15 UNL     1      20.573   0.608  31.430  0.00  0.00    +0.010 A 
ATOM      6  C16 UNL     1      19.898   0.177  32.575  0.00  0.00    +0.024 A 
ENDROOT
BRANCH   4   7
ATOM      7  C6  UNL     1      20.657   1.911  29.283  0.00  0.00    -0.017 A 
ATOM      8  C7  UNL     1      21.989   1.520  29.053  0.00  0.00    +0.009 A 
ATOM      9  C8  UNL     1      22.671   1.947  27.910  0.00  0.00    +0.009 A 
ATOM     10  C9  UNL     1      22.031   2.774  26.977  0.00  0.00    -0.015 A 
ATOM     11  C10 UNL     1      22.700   3.212  25.827  0.00  0.00    +0.028 A 
ATOM     12  C11 UNL     1      22.033   4.037  24.919  0.00  0.00    +0.111 A 
ATOM     13  N2  UNL     1      20.747   4.412  25.151  0.00  0.00    -0.263 NA
ATOM     14  C12 UNL     1      20.069   4.004  26.258  0.00  0.00    +0.119 A 
ATOM     15  C13 UNL     1      20.694   3.174  27.198  0.00  0.00    +0.001 A 
ATOM     16  C14 UNL     1      20.016   2.742  28.347  0.00  0.00    +0.018 A 
ENDBRANCH   4   7
BRANCH   1  19
ATOM     17  O1  UNL     1      18.143   2.085  35.261  0.00  0.00    -0.275 OA
ATOM     18  C1  UNL     1      17.727   0.898  35.193  0.00  0.00    +0.220 C 
ATOM     19  N1  UNL     1      17.852   0.143  33.976  0.00  0.00    -0.285 N 
ATOM     20  H1  UNL     1      17.306  -0.744  33.898  0.00  0.00    +0.155 HD
BRANCH  18  21
ATOM     21  C17 UNL     1      17.104   0.265  36.402  0.00  0.00    +0.075 C 
ATOM     22  C18 UNL     1      16.264  -0.968  36.107  0.00  0.00    +0.013 C 
ATOM     23  C19 UNL     1      15.585   0.344  36.461  0.00  0.00    +0.013 C 
ENDBRANCH  18  21
ENDBRANCH   1  19
TORSDOF 3
ENDMDL
MODEL 7
REMARK VINA RESULT:    -5.872     11.407     13.097
REMARK INTER + INTRA:          -7.408
REMARK INTER:                  -6.949
REMARK INTRA:                  -0.459
REMARK UNBOUND:                -0.506
REMARK  Name = /home/qwerty/github/datacon2025hack/step_04_hit_selection/docking/ligands/lig_600.pdb
REMARK  3 active torsions:
REMARK  status: ('A' for Active; 'I' for Inactive)
REMARK    1  A    between atoms: C1_2  and  C17_20
REMARK    2  A    between atoms: N1_3  and  C2_4
REMARK    3  A    between atoms: C5_7  and  C6_8
REMARK                            x       y       z     vdW  Elec       q    Type
REMARK                         _______ _______ _______ _____ _____    ______ ____
ROOT
ATOM      1  C2  UNL     1      13.696  14.556  27.295  0.00  0.00    +0.033 A 
ATOM      2  C3  UNL     1      12.411  15.103  27.402  0.00  0.00    +0.024 A 
ATOM      3  C4  UNL     1      11.334  14.314  27.818  0.00  0.00    +0.010 A 
ATOM      4  C5  UNL     1      11.528  12.963  28.154  0.00  0.00    -0.018 A 
ATOM      5  C15 UNL     1      12.823  12.422  28.070  0.00  0.00    +0.010 A 
ATOM      6  C16 UNL     1      13.897  13.211  27.651  0.00  0.00    +0.024 A 
ENDROOT
BRANCH   4   7
ATOM      7  C6  UNL     1      10.384  12.125  28.598  0.00  0.00    -0.017 A 
ATOM      8  C7  UNL     1       9.102  12.686  28.735  0.00  0.00    +0.009 A 
ATOM      9  C8  UNL     1       8.021  11.903  29.151  0.00  0.00    +0.009 A 
ATOM     10  C9  UNL     1       8.206  10.544  29.438  0.00  0.00    -0.015 A 
ATOM     11  C10 UNL     1       7.133   9.746  29.857  0.00  0.00    +0.028 A 
ATOM     12  C11 UNL     1       7.353   8.395  30.137  0.00  0.00    +0.111 A 
ATOM     13  N2  UNL     1       8.597   7.862  30.004  0.00  0.00    -0.263 NA
ATOM     14  C12 UNL     1       9.659   8.610  29.600  0.00  0.00    +0.119 A 
ATOM     15  C13 UNL     1       9.489   9.970  29.305  0.00  0.00    +0.001 A 
ATOM     16  C14 UNL     1      10.569  10.761  28.887  0.00  0.00    +0.018 A 
ENDBRANCH   4   7
BRANCH   1  19
ATOM     17  O1  UNL     1      15.725  15.696  29.016  0.00  0.00    -0.275 OA
ATOM     18  C1  UNL     1      15.728  15.996  27.792  0.00  0.00    +0.220 C 
ATOM     19  N1  UNL     1      14.788  15.396  26.886  0.00  0.00    -0.285 N 
ATOM     20  H1  UNL     1      14.965  15.504  25.862  0.00  0.00    +0.155 HD
BRANCH  18  21
ATOM     21  C17 UNL     1      16.718  17.000  27.283  0.00  0.00    +0.075 C 
ATOM     22  C18 UNL     1      16.745  17.147  25.768  0.00  0.00    +0.013 C 
ATOM     23  C19 UNL     1      17.872  16.417  26.479  0.00  0.00    +0.013 C 
ENDBRANCH  18  21
ENDBRANCH   1  19
TORSDOF 3
ENDMDL
MODEL 8
REMARK VINA RESULT:    -5.838     11.565     13.946
REMARK INTER + INTRA:          -7.367
REMARK INTER:                  -6.941
REMARK INTRA:                  -0.426
REMARK UNBOUND:                -0.506
REMARK  Name = /home/qwerty/github/datacon2025hack/step_04_hit_selection/docking/ligands/lig_600.pdb
REMARK  3 active torsions:
REMARK  status: ('A' for Active; 'I' for Inactive)
REMARK    1  A    between atoms: C1_2  and  C17_20
REMARK    2  A    between atoms: N1_3  and  C2_4
REMARK    3  A    between atoms: C5_7  and  C6_8
REMARK                            x       y       z     vdW  Elec       q    Type
REMARK                         _______ _______ _______ _____ _____    ______ ____
ROOT
ATOM      1  C2  UNL     1       7.292   8.534  29.415  0.00  0.00    +0.033 A 
ATOM      2  C3  UNL     1       8.085   9.179  30.372  0.00  0.00    +0.024 A 
ATOM      3  C4  UNL     1       8.927  10.234  30.005  0.00  0.00    +0.010 A 
ATOM      4  C5  UNL     1       8.976  10.675  28.672  0.00  0.00    -0.018 A 
ATOM      5  C15 UNL     1       8.160  10.044  27.717  0.00  0.00    +0.010 A 
ATOM      6  C16 UNL     1       7.321   8.988  28.085  0.00  0.00    +0.024 A 
ENDROOT
BRANCH   4   7
ATOM      7  C6  UNL     1       9.869  11.797  28.281  0.00  0.00    -0.017 A 
ATOM      8  C7  UNL     1       9.339  13.080  28.050  0.00  0.00    +0.009 A 
ATOM      9  C8  UNL     1      10.173  14.141  27.684  0.00  0.00    +0.009 A 
ATOM     10  C9  UNL     1      11.552  13.935  27.540  0.00  0.00    -0.015 A 
ATOM     11  C10 UNL     1      12.400  14.987  27.172  0.00  0.00    +0.028 A 
ATOM     12  C11 UNL     1      13.769  14.747  27.036  0.00  0.00    +0.111 A 
ATOM     13  N2  UNL     1      14.272  13.503  27.259  0.00  0.00    -0.263 NA
ATOM     14  C12 UNL     1      13.474  12.461  27.617  0.00  0.00    +0.119 A 
ATOM     15  C13 UNL     1      12.094  12.651  27.768  0.00  0.00    +0.001 A 
ATOM     16  C14 UNL     1      11.252  11.592  28.136  0.00  0.00    +0.018 A 
ENDBRANCH   4   7
BRANCH   1  19
ATOM     17  O1  UNL     1       8.075   5.817  30.033  0.00  0.00    -0.275 OA
ATOM     18  C1  UNL     1       6.851   6.116  30.050  0.00  0.00    +0.220 C 
ATOM     19  N1  UNL     1       6.420   7.468  29.825  0.00  0.00    -0.285 N 
ATOM     20  H1  UNL     1       5.431   7.707  30.062  0.00  0.00    +0.155 HD
BRANCH  18  21
ATOM     21  C17 UNL     1       5.835   5.041  30.298  0.00  0.00    +0.075 C 
ATOM     22  C18 UNL     1       6.293   3.639  29.923  0.00  0.00    +0.013 C 
ATOM     23  C19 UNL     1       5.289   4.368  29.047  0.00  0.00    +0.013 C 
ENDBRANCH  18  21
ENDBRANCH   1  19
TORSDOF 3
ENDMDL
MODEL 9
REMARK VINA RESULT:    -5.779      2.533      8.957
REMARK INTER + INTRA:          -7.298
REMARK INTER:                  -6.800
REMARK INTRA:                  -0.498
REMARK UNBOUND:                -0.506
REMARK  Name = /home/qwerty/github/datacon2025hack/step_04_hit_selection/docking/ligands/lig_600.pdb
REMARK  3 active torsions:
REMARK  status: ('A' for Active; 'I' for Inactive)
REMARK    1  A    between atoms: C1_2  and  C17_20
REMARK    2  A    between atoms: N1_3  and  C2_4
REMARK    3  A    between atoms: C5_7  and  C6_8
REMARK                            x       y       z     vdW  Elec       q    Type
REMARK                         _______ _______ _______ _____ _____    ______ ____
ROOT
ATOM      1  C2  UNL     1      20.152   9.951  36.383  0.00  0.00    +0.033 A 
ATOM      2  C3  UNL     1      19.909  10.953  35.434  0.00  0.00    +0.024 A 
ATOM      3  C4  UNL     1      18.654  11.564  35.349  0.00  0.00    +0.010 A 
ATOM      4  C5  UNL     1      17.621  11.194  36.228  0.00  0.00    -0.018 A 
ATOM      5  C15 UNL     1      17.873  10.207  37.196  0.00  0.00    +0.010 A 
ATOM      6  C16 UNL     1      19.127   9.595  37.278  0.00  0.00    +0.024 A 
ENDROOT
BRANCH   4   7
ATOM      7  C6  UNL     1      16.288  11.844  36.140  0.00  0.00    -0.017 A 
ATOM      8  C7  UNL     1      16.155  13.119  35.560  0.00  0.00    +0.009 A 
ATOM      9  C8  UNL     1      14.903  13.736  35.472  0.00  0.00    +0.009 A 
ATOM     10  C9  UNL     1      13.763  13.087  35.965  0.00  0.00    -0.015 A 
ATOM     11  C10 UNL     1      12.502  13.693  35.885  0.00  0.00    +0.028 A 
ATOM     12  C11 UNL     1      11.386  13.019  36.388  0.00  0.00    +0.111 A 
ATOM     13  N2  UNL     1      11.524  11.788  36.948  0.00  0.00    -0.263 NA
ATOM     14  C12 UNL     1      12.735  11.174  37.040  0.00  0.00    +0.119 A 
ATOM     15  C13 UNL     1      13.884  11.808  36.550  0.00  0.00    +0.001 A 
ATOM     16  C14 UNL     1      15.142  11.194  36.634  0.00  0.00    +0.018 A 
ENDBRANCH   4   7
BRANCH   1  19
ATOM     17  O1  UNL     1      21.131   7.741  34.791  0.00  0.00    -0.275 OA
ATOM     18  C1  UNL     1      21.869   8.212  35.697  0.00  0.00    +0.220 C 
ATOM     19  N1  UNL     1      21.457   9.356  36.462  0.00  0.00    -0.285 N 
ATOM     20  H1  UNL     1      22.181   9.838  37.041  0.00  0.00    +0.155 HD
BRANCH  18  21
ATOM     21  C17 UNL     1      23.188   7.558  35.985  0.00  0.00    +0.075 C 
ATOM     22  C18 UNL     1      23.229   6.064  35.699  0.00  0.00    +0.013 C 
ATOM     23  C19 UNL     1      23.177   6.560  37.134  0.00  0.00    +0.013 C 
ENDBRANCH  18  21
ENDBRANCH   1  19
TORSDOF 3
ENDMDL
