REMARK  Name = /home/qwerty/github/datacon2025hack/step_04_hit_selection/docking/ligands/lig_494.pdb
REMARK  6 active torsions:
REMARK  status: ('A' for Active; 'I' for Inactive)
REMARK    1  A    between atoms: C1_1  and  C2_2
REMARK    2  A    between atoms: C2_2  and  C3_3
REMARK    3  A    between atoms: C3_3  and  N1_4
REMARK    4  A    between atoms: C3_3  and  C16_22
REMARK    5  A    between atoms: C7_11  and  C8_13
REMARK    6  A    between atoms: C19_26  and  C20_27
REMARK                            x       y       z     vdW  Elec       q    Type
REMARK                         _______ _______ _______ _____ _____    ______ ____
ROOT
ATOM      1  C3  UNL     1       1.096   1.927  -2.791  0.00  0.00    +0.140 C 
ENDROOT
BRANCH   1   2
ATOM      2  N1  UNL     1       0.110   0.843  -2.800  0.00  0.00    -0.289 N 
ATOM      3  C4  UNL     1      -1.290   1.062  -2.560  0.00  0.00    +0.303 C 
ATOM      4  O1  UNL     1      -1.761   2.229  -2.644  0.00  0.00    -0.253 OA
ATOM      5  N2  UNL     1      -2.160  -0.038  -2.223  0.00  0.00    -0.283 N 
ATOM      6  C5  UNL     1      -3.619   0.079  -2.380  0.00  0.00    +0.128 C 
ATOM      7  C6  UNL     1      -4.318  -0.266  -1.057  0.00  0.00    +0.127 C 
ATOM      8  N3  UNL     1      -3.713  -1.451  -0.424  0.00  0.00    -0.295 N 
ATOM      9  C7  UNL     1      -3.955  -1.712   0.972  0.00  0.00    +0.247 C 
ATOM     10  O2  UNL     1      -2.990  -2.030   1.720  0.00  0.00    -0.270 OA
ATOM     11  C14 UNL     1      -2.690  -2.218  -1.150  0.00  0.00    +0.127 C 
ATOM     12  C15 UNL     1      -1.593  -1.275  -1.657  0.00  0.00    +0.128 C 
ATOM     13  H7  UNL     1       0.448  -0.120  -3.021  0.00  0.00    +0.151 HD
BRANCH   9  14
ATOM     14  C8  UNL     1      -5.310  -1.600   1.555  0.00  0.00    +0.037 A 
ATOM     15  C9  UNL     1      -6.442  -1.980   0.812  0.00  0.00    +0.016 A 
ATOM     16  C10 UNL     1      -7.717  -1.899   1.379  0.00  0.00    +0.039 A 
ATOM     17  C11 UNL     1      -7.874  -1.449   2.693  0.00  0.00    +0.123 A 
ATOM     18  F1  UNL     1      -9.111  -1.374   3.240  0.00  0.00    -0.205 F 
ATOM     19  C12 UNL     1      -6.754  -1.077   3.442  0.00  0.00    +0.039 A 
ATOM     20  C13 UNL     1      -5.476  -1.161   2.880  0.00  0.00    +0.016 A 
ENDBRANCH   9  14
ENDBRANCH   1   2
BRANCH   1  21
ATOM     21  C16 UNL     1       2.223   1.547  -1.865  0.00  0.00    +0.129 A 
ATOM     22  N4  UNL     1       2.105   1.643  -0.512  0.00  0.00    -0.231 NA
ATOM     23  C17 UNL     1       3.263   1.120  -0.073  0.00  0.00    +0.090 A 
ATOM     24  C18 UNL     1       3.667   0.940   1.247  0.00  0.00    +0.038 A 
ATOM     25  C19 UNL     1       4.924   0.326   1.483  0.00  0.00    -0.016 A 
ATOM     26  C26 UNL     1       5.721  -0.079   0.374  0.00  0.00    +0.010 A 
ATOM     27  C27 UNL     1       5.273   0.113  -0.945  0.00  0.00    +0.028 A 
ATOM     28  C28 UNL     1       4.032   0.717  -1.122  0.00  0.00    +0.066 A 
ATOM     29  N5  UNL     1       3.388   0.970  -2.267  0.00  0.00    -0.340 N 
ATOM     30  H28 UNL     1       3.710   0.744  -3.235  0.00  0.00    +0.167 HD
BRANCH  25  31
ATOM     31  C20 UNL     1       5.390   0.090   2.873  0.00  0.00    -0.018 A 
ATOM     32  C21 UNL     1       5.167   1.053   3.877  0.00  0.00    +0.008 A 
ATOM     33  C22 UNL     1       5.588   0.819   5.190  0.00  0.00    +0.001 A 
ATOM     34  C23 UNL     1       6.230  -0.378   5.517  0.00  0.00    +0.000 A 
ATOM     35  C24 UNL     1       6.464  -1.338   4.529  0.00  0.00    +0.001 A 
ATOM     36  C25 UNL     1       6.047  -1.109   3.214  0.00  0.00    +0.008 A 
ENDBRANCH  25  31
ENDBRANCH   1  21
BRANCH   1  38
ATOM     37  C1  UNL     1       0.490   2.833  -5.092  0.00  0.00    +0.006 C 
ATOM     38  C2  UNL     1       1.586   2.218  -4.223  0.00  0.00    +0.027 C 
ENDBRANCH   1  38
TORSDOF 5
