REMARK  Name = /home/qwerty/github/datacon2025hack/step_04_hit_selection/docking/ligands/lig_538.pdb
REMARK  7 active torsions:
REMARK  status: ('A' for Active; 'I' for Inactive)
REMARK    1  A    between atoms: C1_1  and  C2_2
REMARK    2  A    between atoms: C2_2  and  C3_3
REMARK    3  A    between atoms: C2_2  and  C4_4
REMARK    4  A    between atoms: C5_6  and  C6_7
REMARK    5  A    between atoms: N2_9  and  C7_10
REMARK    6  A    between atoms: C9_12  and  C10_13
REMARK    7  A    between atoms: N5_21  and  C14_22
REMARK                            x       y       z     vdW  Elec       q    Type
REMARK                         _______ _______ _______ _____ _____    ______ ____
ROOT
ATOM      1  C6  UNL     1       1.215  -0.697   0.080  0.00  0.00    +0.287 C 
ATOM      2  O1  UNL     1       1.778  -1.311  -0.866  0.00  0.00    -0.266 OA
ATOM      3  N2  UNL     1       1.977  -0.252   1.214  0.00  0.00    -0.277 N 
ATOM      4  H8  UNL     1       1.460  -0.018   2.092  0.00  0.00    +0.155 HD
ENDROOT
BRANCH   3   5
ATOM      5  C7  UNL     1       3.415  -0.218   1.249  0.00  0.00    +0.070 A 
ATOM      6  C8  UNL     1       4.161   0.141   0.112  0.00  0.00    +0.039 A 
ATOM      7  C9  UNL     1       5.567   0.187   0.156  0.00  0.00    +0.038 A 
ATOM      8  C11 UNL     1       6.219  -0.103   1.368  0.00  0.00    +0.016 A 
ATOM      9  C12 UNL     1       5.480  -0.437   2.505  0.00  0.00    +0.041 A 
ATOM     10  C13 UNL     1       4.086  -0.491   2.450  0.00  0.00    +0.145 A 
ATOM     11  F1  UNL     1       3.390  -0.821   3.567  0.00  0.00    -0.204 F 
BRANCH   7  12
ATOM     12  C10 UNL     1       6.335   0.567  -1.055  0.00  0.00    +0.242 C 
ATOM     13  N3  UNL     1       7.705   0.190  -1.221  0.00  0.00    -0.325 N 
ATOM     14  O2  UNL     1       5.771   1.226  -1.970  0.00  0.00    -0.270 OA
ATOM     15  H10 UNL     1       8.172  -0.484  -0.577  0.00  0.00    +0.145 HD
ATOM     16  H11 UNL     1       8.238   0.521  -2.056  0.00  0.00    +0.145 HD
ENDBRANCH   7  12
ENDBRANCH   3   5
BRANCH   1  19
ATOM     17  C4  UNL     1      -2.192   0.139   0.503  0.00  0.00    +0.136 A 
ATOM     18  N1  UNL     1      -0.931   0.185   0.981  0.00  0.00    -0.207 NA
ATOM     19  C5  UNL     1      -0.237  -0.476   0.027  0.00  0.00    +0.237 A 
ATOM     20  N4  UNL     1      -1.014  -0.886  -0.994  0.00  0.00    -0.140 NA
ATOM     21  N5  UNL     1      -2.238  -0.503  -0.683  0.00  0.00    -0.215 N 
BRANCH  21  22
ATOM     22  C14 UNL     1      -3.372  -0.695  -1.537  0.00  0.00    +0.086 A 
ATOM     23  C15 UNL     1      -3.432  -0.019  -2.764  0.00  0.00    +0.029 A 
ATOM     24  C16 UNL     1      -4.531  -0.193  -3.610  0.00  0.00    +0.002 A 
ATOM     25  C17 UNL     1      -5.570  -1.050  -3.241  0.00  0.00    +0.002 A 
ATOM     26  C18 UNL     1      -5.510  -1.741  -2.027  0.00  0.00    +0.022 A 
ATOM     27  C19 UNL     1      -4.412  -1.572  -1.174  0.00  0.00    +0.066 A 
ATOM     28 CL1  UNL     1      -4.345  -2.495   0.321  0.00  0.00    -0.081 Cl
ENDBRANCH  21  22
BRANCH  17  30
ATOM     29  C1  UNL     1      -3.256   2.364   0.839  0.00  0.00    +0.015 C 
ATOM     30  C2  UNL     1      -3.349   0.867   1.143  0.00  0.00    +0.051 C 
ATOM     31  C3  UNL     1      -3.379   0.615   2.653  0.00  0.00    +0.015 C 
ENDBRANCH  17  30
ENDBRANCH   1  19
TORSDOF 5
