MODEL 1
REMARK VINA RESULT:    -5.976      0.000      0.000
REMARK INTER + INTRA:          -7.473
REMARK INTER:                  -7.024
REMARK INTRA:                  -0.450
REMARK UNBOUND:                -0.450
REMARK  Name = /home/qwerty/github/datacon2025hack/step_04_hit_selection/docking/ligands/lig_59.pdb
REMARK  5 active torsions:
REMARK  status: ('A' for Active; 'I' for Inactive)
REMARK    1  A    between atoms: C1_1  and  C2_2
REMARK    2  A    between atoms: C2_2  and  C3_3
REMARK    3  A    between atoms: C2_2  and  C4_4
REMARK    4  A    between atoms: C5_7  and  C6_8
REMARK    5  A    between atoms: N3_10  and  C7_11
REMARK                            x       y       z     vdW  Elec       q    Type
REMARK                         _______ _______ _______ _____ _____    ______ ____
ROOT
ATOM      1  C6  UNL     1      18.522  11.651  36.651  0.00  0.00    +0.269 C 
ATOM      2  O1  UNL     1      19.530  12.362  36.913  0.00  0.00    -0.268 OA
ATOM      3  N3  UNL     1      18.675  10.239  36.447  0.00  0.00    -0.280 N 
ATOM      4  H9  UNL     1      17.891   9.617  36.748  0.00  0.00    +0.155 HD
ENDROOT
BRANCH   3   5
ATOM      5  C7  UNL     1      19.897   9.621  36.006  0.00  0.00    +0.034 A 
ATOM      6  C8  UNL     1      20.482   9.957  34.754  0.00  0.00    +0.025 A 
ATOM      7  C9  UNL     1      21.665   9.328  34.323  0.00  0.00    +0.028 A 
ATOM      8  C10 UNL     1      22.230   8.364  35.153  0.00  0.00    +0.047 A 
ATOM      9  N4  UNL     1      23.344   7.647  34.930  0.00  0.00    -0.361 N 
ATOM     10  C11 UNL     1      23.483   6.839  36.007  0.00  0.00    +0.083 A 
ATOM     11  C12 UNL     1      22.451   7.045  36.917  0.00  0.00    +0.027 A 
ATOM     12  C13 UNL     1      21.663   8.023  36.350  0.00  0.00    +0.001 A 
ATOM     13  C14 UNL     1      20.493   8.624  36.808  0.00  0.00    +0.033 A 
ATOM     14  H12 UNL     1      23.974   7.697  34.099  0.00  0.00    +0.165 HD
ENDBRANCH   3   5
BRANCH   1  18
ATOM     15  C4  UNL     1      15.432  13.505  36.190  0.00  0.00    +0.053 A 
ATOM     16  N1  UNL     1      15.190  12.765  37.289  0.00  0.00    -0.280 N 
ATOM     17  N2  UNL     1      16.250  12.025  37.568  0.00  0.00    -0.168 NA
ATOM     18  C5  UNL     1      17.191  12.280  36.636  0.00  0.00    +0.161 A 
ATOM     19  C15 UNL     1      16.711  13.229  35.742  0.00  0.00    +0.071 A 
ATOM     20 BR1  UNL     1      17.643  14.108  34.315  0.00  0.00    -0.046 Br
ATOM     21  H8  UNL     1      14.319  12.773  37.864  0.00  0.00    +0.189 HD
BRANCH  15  23
ATOM     22  C1  UNL     1      13.027  14.031  35.744  0.00  0.00    +0.014 C 
ATOM     23  C2  UNL     1      14.473  14.520  35.618  0.00  0.00    +0.032 C 
ATOM     24  C3  UNL     1      14.658  15.874  36.309  0.00  0.00    +0.014 C 
ENDBRANCH  15  23
ENDBRANCH   1  18
TORSDOF 3
ENDMDL
MODEL 2
REMARK VINA RESULT:    -5.946      2.209      3.460
REMARK INTER + INTRA:          -7.438
REMARK INTER:                  -7.265
REMARK INTRA:                  -0.173
REMARK UNBOUND:                -0.450
REMARK  Name = /home/qwerty/github/datacon2025hack/step_04_hit_selection/docking/ligands/lig_59.pdb
REMARK  5 active torsions:
REMARK  status: ('A' for Active; 'I' for Inactive)
REMARK    1  A    between atoms: C1_1  and  C2_2
REMARK    2  A    between atoms: C2_2  and  C3_3
REMARK    3  A    between atoms: C2_2  and  C4_4
REMARK    4  A    between atoms: C5_7  and  C6_8
REMARK    5  A    between atoms: N3_10  and  C7_11
REMARK                            x       y       z     vdW  Elec       q    Type
REMARK                         _______ _______ _______ _____ _____    ______ ____
ROOT
ATOM      1  C6  UNL     1      19.646   8.943  35.831  0.00  0.00    +0.269 C 
ATOM      2  O1  UNL     1      19.241   8.182  34.911  0.00  0.00    -0.268 OA
ATOM      3  N3  UNL     1      21.052   9.163  36.013  0.00  0.00    -0.280 N 
ATOM      4  H9  UNL     1      21.357  10.102  36.356  0.00  0.00    +0.155 HD
ENDROOT
BRANCH   3   5
ATOM      5  C7  UNL     1      22.067   8.230  35.603  0.00  0.00    +0.034 A 
ATOM      6  C8  UNL     1      22.459   7.150  36.441  0.00  0.00    +0.025 A 
ATOM      7  C9  UNL     1      23.470   6.259  36.038  0.00  0.00    +0.028 A 
ATOM      8  C10 UNL     1      24.079   6.477  34.806  0.00  0.00    +0.047 A 
ATOM      9  N4  UNL     1      25.060   5.755  34.240  0.00  0.00    -0.361 N 
ATOM     10  C11 UNL     1      25.326   6.357  33.057  0.00  0.00    +0.083 A 
ATOM     11  C12 UNL     1      24.508   7.467  32.873  0.00  0.00    +0.027 A 
ATOM     12  C13 UNL     1      23.720   7.524  34.002  0.00  0.00    +0.001 A 
ATOM     13  C14 UNL     1      22.724   8.427  34.368  0.00  0.00    +0.033 A 
ATOM     14  H12 UNL     1      25.527   4.906  34.630  0.00  0.00    +0.165 HD
ENDBRANCH   3   5
BRANCH   1  18
ATOM     15  C4  UNL     1      17.022  10.918  37.386  0.00  0.00    +0.053 A 
ATOM     16  N1  UNL     1      17.666  10.373  38.436  0.00  0.00    -0.280 N 
ATOM     17  N2  UNL     1      18.657   9.611  38.003  0.00  0.00    -0.168 NA
ATOM     18  C5  UNL     1      18.654   9.654  36.655  0.00  0.00    +0.161 A 
ATOM     19  C15 UNL     1      17.630  10.487  36.221  0.00  0.00    +0.071 A 
ATOM     20 BR1  UNL     1      17.238  11.069  34.437  0.00  0.00    -0.046 Br
ATOM     21  H8  UNL     1      17.452  10.530  39.446  0.00  0.00    +0.189 HD
BRANCH  15  23
ATOM     22  C1  UNL     1      16.269  13.252  36.896  0.00  0.00    +0.014 C 
ATOM     23  C2  UNL     1      15.881  11.899  37.501  0.00  0.00    +0.032 C 
ATOM     24  C3  UNL     1      14.627  11.335  36.829  0.00  0.00    +0.014 C 
ENDBRANCH  15  23
ENDBRANCH   1  18
TORSDOF 3
ENDMDL
MODEL 3
REMARK VINA RESULT:    -5.913     11.828     13.774
REMARK INTER + INTRA:          -7.400
REMARK INTER:                  -6.906
REMARK INTRA:                  -0.495
REMARK UNBOUND:                -0.450
REMARK  Name = /home/qwerty/github/datacon2025hack/step_04_hit_selection/docking/ligands/lig_59.pdb
REMARK  5 active torsions:
REMARK  status: ('A' for Active; 'I' for Inactive)
REMARK    1  A    between atoms: C1_1  and  C2_2
REMARK    2  A    between atoms: C2_2  and  C3_3
REMARK    3  A    between atoms: C2_2  and  C4_4
REMARK    4  A    between atoms: C5_7  and  C6_8
REMARK    5  A    between atoms: N3_10  and  C7_11
REMARK                            x       y       z     vdW  Elec       q    Type
REMARK                         _______ _______ _______ _____ _____    ______ ____
ROOT
ATOM      1  C6  UNL     1      23.079  13.884  24.430  0.00  0.00    +0.269 C 
ATOM      2  O1  UNL     1      22.173  13.037  24.654  0.00  0.00    -0.268 OA
ATOM      3  N3  UNL     1      23.908  14.348  25.506  0.00  0.00    -0.280 N 
ATOM      4  H9  UNL     1      24.901  14.589  25.285  0.00  0.00    +0.155 HD
ENDROOT
BRANCH   3   5
ATOM      5  C7  UNL     1      23.504  14.346  26.886  0.00  0.00    +0.034 A 
ATOM      6  C8  UNL     1      24.053  13.419  27.814  0.00  0.00    +0.025 A 
ATOM      7  C9  UNL     1      23.631  13.411  29.156  0.00  0.00    +0.028 A 
ATOM      8  C10 UNL     1      22.657  14.327  29.539  0.00  0.00    +0.047 A 
ATOM      9  N4  UNL     1      22.115  14.483  30.758  0.00  0.00    -0.361 N 
ATOM     10  C11 UNL     1      21.212  15.484  30.636  0.00  0.00    +0.083 A 
ATOM     11  C12 UNL     1      21.180  15.964  29.330  0.00  0.00    +0.027 A 
ATOM     12  C13 UNL     1      22.111  15.211  28.648  0.00  0.00    +0.001 A 
ATOM     13  C14 UNL     1      22.504  15.247  27.312  0.00  0.00    +0.033 A 
ATOM     14  H12 UNL     1      22.339  13.944  31.624  0.00  0.00    +0.165 HD
ENDBRANCH   3   5
BRANCH   1  18
ATOM     15  C4  UNL     1      23.144  15.164  21.030  0.00  0.00    +0.053 A 
ATOM     16  N1  UNL     1      24.329  14.535  21.149  0.00  0.00    -0.280 N 
ATOM     17  N2  UNL     1      24.439  14.021  22.363  0.00  0.00    -0.168 NA
ATOM     18  C5  UNL     1      23.317  14.325  23.046  0.00  0.00    +0.161 A 
ATOM     19  C15 UNL     1      22.458  15.046  22.225  0.00  0.00    +0.071 A 
ATOM     20 BR1  UNL     1      20.659  15.608  22.577  0.00  0.00    -0.046 Br
ATOM     21  H8  UNL     1      25.056  14.432  20.407  0.00  0.00    +0.189 HD
BRANCH  15  23
ATOM     22  C1  UNL     1      23.445  17.075  19.445  0.00  0.00    +0.014 C 
ATOM     23  C2  UNL     1      22.645  15.807  19.761  0.00  0.00    +0.032 C 
ATOM     24  C3  UNL     1      22.710  14.812  18.599  0.00  0.00    +0.014 C 
ENDBRANCH  15  23
ENDBRANCH   1  18
TORSDOF 3
ENDMDL
MODEL 4
REMARK VINA RESULT:    -5.906      2.392      8.124
REMARK INTER + INTRA:          -7.391
REMARK INTER:                  -6.949
REMARK INTRA:                  -0.442
REMARK UNBOUND:                -0.450
REMARK  Name = /home/qwerty/github/datacon2025hack/step_04_hit_selection/docking/ligands/lig_59.pdb
REMARK  5 active torsions:
REMARK  status: ('A' for Active; 'I' for Inactive)
REMARK    1  A    between atoms: C1_1  and  C2_2
REMARK    2  A    between atoms: C2_2  and  C3_3
REMARK    3  A    between atoms: C2_2  and  C4_4
REMARK    4  A    between atoms: C5_7  and  C6_8
REMARK    5  A    between atoms: N3_10  and  C7_11
REMARK                            x       y       z     vdW  Elec       q    Type
REMARK                         _______ _______ _______ _____ _____    ______ ____
ROOT
ATOM      1  C6  UNL     1      20.264   8.671  35.975  0.00  0.00    +0.269 C 
ATOM      2  O1  UNL     1      19.298   7.892  35.754  0.00  0.00    -0.268 OA
ATOM      3  N3  UNL     1      20.090   9.798  36.847  0.00  0.00    -0.280 N 
ATOM      4  H9  UNL     1      20.910  10.098  37.422  0.00  0.00    +0.155 HD
ENDROOT
BRANCH   3   5
ATOM      5  C7  UNL     1      18.822  10.430  37.094  0.00  0.00    +0.034 A 
ATOM      6  C8  UNL     1      17.894   9.884  38.023  0.00  0.00    +0.025 A 
ATOM      7  C9  UNL     1      16.647  10.498  38.238  0.00  0.00    +0.028 A 
ATOM      8  C10 UNL     1      16.350  11.644  37.507  0.00  0.00    +0.047 A 
ATOM      9  N4  UNL     1      15.225  12.375  37.554  0.00  0.00    -0.361 N 
ATOM     10  C11 UNL     1      15.397  13.378  36.661  0.00  0.00    +0.083 A 
ATOM     11  C12 UNL     1      16.639  13.279  36.042  0.00  0.00    +0.027 A 
ATOM     12  C13 UNL     1      17.231  12.165  36.598  0.00  0.00    +0.001 A 
ATOM     13  C14 UNL     1      18.474  11.584  36.359  0.00  0.00    +0.033 A 
ATOM     14  H12 UNL     1      14.386  12.208  38.153  0.00  0.00    +0.165 HD
ENDBRANCH   3   5
BRANCH   1  18
ATOM     15  C4  UNL     1      23.280   8.051  34.047  0.00  0.00    +0.053 A 
ATOM     16  N1  UNL     1      23.611   7.635  35.284  0.00  0.00    -0.280 N 
ATOM     17  N2  UNL     1      22.587   7.815  36.102  0.00  0.00    -0.168 NA
ATOM     18  C5  UNL     1      21.579   8.361  35.390  0.00  0.00    +0.161 A 
ATOM     19  C15 UNL     1      21.978   8.518  34.069  0.00  0.00    +0.071 A 
ATOM     20 BR1  UNL     1      20.934   9.080  32.562  0.00  0.00    -0.046 Br
ATOM     21  H8  UNL     1      24.519   7.211  35.576  0.00  0.00    +0.189 HD
BRANCH  15  23
ATOM     22  C1  UNL     1      24.961   9.231  32.619  0.00  0.00    +0.014 C 
ATOM     23  C2  UNL     1      24.178   7.933  32.840  0.00  0.00    +0.032 C 
ATOM     24  C3  UNL     1      25.124   6.740  32.996  0.00  0.00    +0.014 C 
ENDBRANCH  15  23
ENDBRANCH   1  18
TORSDOF 3
ENDMDL
MODEL 5
REMARK VINA RESULT:    -5.826     16.934     19.224
REMARK INTER + INTRA:          -7.298
REMARK INTER:                  -6.815
REMARK INTRA:                  -0.482
REMARK UNBOUND:                -0.450
REMARK  Name = /home/qwerty/github/datacon2025hack/step_04_hit_selection/docking/ligands/lig_59.pdb
REMARK  5 active torsions:
REMARK  status: ('A' for Active; 'I' for Inactive)
REMARK    1  A    between atoms: C1_1  and  C2_2
REMARK    2  A    between atoms: C2_2  and  C3_3
REMARK    3  A    between atoms: C2_2  and  C4_4
REMARK    4  A    between atoms: C5_7  and  C6_8
REMARK    5  A    between atoms: N3_10  and  C7_11
REMARK                            x       y       z     vdW  Elec       q    Type
REMARK                         _______ _______ _______ _____ _____    ______ ____
ROOT
ATOM      1  C6  UNL     1      11.672   5.582  20.349  0.00  0.00    +0.269 C 
ATOM      2  O1  UNL     1      10.521   5.276  19.937  0.00  0.00    -0.268 OA
ATOM      3  N3  UNL     1      11.877   6.816  21.053  0.00  0.00    -0.280 N 
ATOM      4  H9  UNL     1      12.607   6.832  21.801  0.00  0.00    +0.155 HD
ENDROOT
BRANCH   3   5
ATOM      5  C7  UNL     1      11.037   7.973  20.902  0.00  0.00    +0.034 A 
ATOM      6  C8  UNL     1      11.274   8.927  19.875  0.00  0.00    +0.025 A 
ATOM      7  C9  UNL     1      10.459  10.067  19.752  0.00  0.00    +0.028 A 
ATOM      8  C10 UNL     1       9.428  10.234  20.672  0.00  0.00    +0.047 A 
ATOM      9  N4  UNL     1       8.546  11.245  20.737  0.00  0.00    -0.361 N 
ATOM     10  C11 UNL     1       7.750  10.973  21.797  0.00  0.00    +0.083 A 
ATOM     11  C12 UNL     1       8.132   9.783  22.409  0.00  0.00    +0.027 A 
ATOM     12  C13 UNL     1       9.205   9.329  21.674  0.00  0.00    +0.001 A 
ATOM     13  C14 UNL     1       9.991   8.189  21.826  0.00  0.00    +0.033 A 
ATOM     14  H12 UNL     1       8.484  12.072  20.103  0.00  0.00    +0.165 HD
ENDBRANCH   3   5
BRANCH   1  18
ATOM     15  C4  UNL     1      14.259   3.030  20.399  0.00  0.00    +0.053 A 
ATOM     16  N1  UNL     1      14.492   3.688  19.246  0.00  0.00    -0.280 N 
ATOM     17  N2  UNL     1      13.601   4.654  19.099  0.00  0.00    -0.168 NA
ATOM     18  C5  UNL     1      12.773   4.623  20.164  0.00  0.00    +0.161 A 
ATOM     19  C15 UNL     1      13.167   3.605  21.024  0.00  0.00    +0.071 A 
ATOM     20 BR1  UNL     1      12.487   3.183  22.767  0.00  0.00    -0.046 Br
ATOM     21  H8  UNL     1      15.263   3.500  18.568  0.00  0.00    +0.189 HD
BRANCH  15  23
ATOM     22  C1  UNL     1      15.302   0.819  19.872  0.00  0.00    +0.014 C 
ATOM     23  C2  UNL     1      15.119   1.911  20.930  0.00  0.00    +0.032 C 
ATOM     24  C3  UNL     1      16.471   2.456  21.397  0.00  0.00    +0.014 C 
ENDBRANCH  15  23
ENDBRANCH   1  18
TORSDOF 3
ENDMDL
MODEL 6
REMARK VINA RESULT:    -5.747      2.794      8.167
REMARK INTER + INTRA:          -7.205
REMARK INTER:                  -6.804
REMARK INTRA:                  -0.401
REMARK UNBOUND:                -0.450
REMARK  Name = /home/qwerty/github/datacon2025hack/step_04_hit_selection/docking/ligands/lig_59.pdb
REMARK  5 active torsions:
REMARK  status: ('A' for Active; 'I' for Inactive)
REMARK    1  A    between atoms: C1_1  and  C2_2
REMARK    2  A    between atoms: C2_2  and  C3_3
REMARK    3  A    between atoms: C2_2  and  C4_4
REMARK    4  A    between atoms: C5_7  and  C6_8
REMARK    5  A    between atoms: N3_10  and  C7_11
REMARK                            x       y       z     vdW  Elec       q    Type
REMARK                         _______ _______ _______ _____ _____    ______ ____
ROOT
ATOM      1  C6  UNL     1      19.551   9.855  34.771  0.00  0.00    +0.269 C 
ATOM      2  O1  UNL     1      18.597   9.056  34.566  0.00  0.00    -0.268 OA
ATOM      3  N3  UNL     1      19.443  10.851  35.798  0.00  0.00    -0.280 N 
ATOM      4  H9  UNL     1      20.316  11.122  36.304  0.00  0.00    +0.155 HD
ENDROOT
BRANCH   3   5
ATOM      5  C7  UNL     1      18.192  11.373  36.278  0.00  0.00    +0.034 A 
ATOM      6  C8  UNL     1      17.387  10.637  37.190  0.00  0.00    +0.025 A 
ATOM      7  C9  UNL     1      16.153  11.148  37.634  0.00  0.00    +0.028 A 
ATOM      8  C10 UNL     1      15.746  12.385  37.142  0.00  0.00    +0.047 A 
ATOM      9  N4  UNL     1      14.612  13.045  37.429  0.00  0.00    -0.361 N 
ATOM     10  C11 UNL     1      14.657  14.189  36.708  0.00  0.00    +0.083 A 
ATOM     11  C12 UNL     1      15.827  14.253  35.957  0.00  0.00    +0.027 A 
ATOM     12  C13 UNL     1      16.507  13.091  36.251  0.00  0.00    +0.001 A 
ATOM     13  C14 UNL     1      17.733  12.616  35.790  0.00  0.00    +0.033 A 
ATOM     14  H12 UNL     1      13.848  12.741  38.074  0.00  0.00    +0.165 HD
ENDBRANCH   3   5
BRANCH   1  18
ATOM     15  C4  UNL     1      22.781   9.135  33.272  0.00  0.00    +0.053 A 
ATOM     16  N1  UNL     1      22.246  10.044  32.435  0.00  0.00    -0.280 N 
ATOM     17  N2  UNL     1      21.045  10.392  32.867  0.00  0.00    -0.168 NA
ATOM     18  C5  UNL     1      20.792   9.697  33.995  0.00  0.00    +0.161 A 
ATOM     19  C15 UNL     1      21.883   8.889  34.294  0.00  0.00    +0.071 A 
ATOM     20 BR1  UNL     1      22.180   7.808  35.850  0.00  0.00    -0.046 Br
ATOM     21  H8  UNL     1      22.695  10.446  31.584  0.00  0.00    +0.189 HD
BRANCH  15  23
ATOM     22  C1  UNL     1      24.127   7.194  32.448  0.00  0.00    +0.014 C 
ATOM     23  C2  UNL     1      24.171   8.564  33.133  0.00  0.00    +0.032 C 
ATOM     24  C3  UNL     1      25.070   9.535  32.365  0.00  0.00    +0.014 C 
ENDBRANCH  15  23
ENDBRANCH   1  18
TORSDOF 3
ENDMDL
MODEL 7
REMARK VINA RESULT:    -5.739      7.729      9.738
REMARK INTER + INTRA:          -7.195
REMARK INTER:                  -6.741
REMARK INTRA:                  -0.453
REMARK UNBOUND:                -0.450
REMARK  Name = /home/qwerty/github/datacon2025hack/step_04_hit_selection/docking/ligands/lig_59.pdb
REMARK  5 active torsions:
REMARK  status: ('A' for Active; 'I' for Inactive)
REMARK    1  A    between atoms: C1_1  and  C2_2
REMARK    2  A    between atoms: C2_2  and  C3_3
REMARK    3  A    between atoms: C2_2  and  C4_4
REMARK    4  A    between atoms: C5_7  and  C6_8
REMARK    5  A    between atoms: N3_10  and  C7_11
REMARK                            x       y       z     vdW  Elec       q    Type
REMARK                         _______ _______ _______ _____ _____    ______ ____
ROOT
ATOM      1  C6  UNL     1      13.430  14.861  29.754  0.00  0.00    +0.269 C 
ATOM      2  O1  UNL     1      13.368  15.356  30.912  0.00  0.00    -0.268 OA
ATOM      3  N3  UNL     1      14.705  14.533  29.183  0.00  0.00    -0.280 N 
ATOM      4  H9  UNL     1      14.752  13.710  28.541  0.00  0.00    +0.155 HD
ENDROOT
BRANCH   3   5
ATOM      5  C7  UNL     1      15.939  15.166  29.563  0.00  0.00    +0.034 A 
ATOM      6  C8  UNL     1      16.266  16.475  29.113  0.00  0.00    +0.025 A 
ATOM      7  C9  UNL     1      17.487  17.074  29.472  0.00  0.00    +0.028 A 
ATOM      8  C10 UNL     1      18.363  16.342  30.268  0.00  0.00    +0.047 A 
ATOM      9  N4  UNL     1      19.572  16.721  30.715  0.00  0.00    -0.361 N 
ATOM     10  C11 UNL     1      20.043  15.676  31.435  0.00  0.00    +0.083 A 
ATOM     11  C12 UNL     1      19.129  14.627  31.442  0.00  0.00    +0.027 A 
ATOM     12  C13 UNL     1      18.063  15.075  30.690  0.00  0.00    +0.001 A 
ATOM     13  C14 UNL     1      16.865  14.451  30.354  0.00  0.00    +0.033 A 
ATOM     14  H12 UNL     1      20.053  17.631  30.544  0.00  0.00    +0.165 HD
ENDBRANCH   3   5
BRANCH   1  18
ATOM     15  C4  UNL     1      10.214  13.803  28.436  0.00  0.00    +0.053 A 
ATOM     16  N1  UNL     1      10.752  14.504  27.419  0.00  0.00    -0.280 N 
ATOM     17  N2  UNL     1      11.941  14.961  27.776  0.00  0.00    -0.168 NA
ATOM     18  C5  UNL     1      12.179  14.558  29.041  0.00  0.00    +0.161 A 
ATOM     19  C15 UNL     1      11.102  13.806  29.496  0.00  0.00    +0.071 A 
ATOM     20 BR1  UNL     1      10.933  12.833  31.139  0.00  0.00    -0.046 Br
ATOM     21  H8  UNL     1      10.328  14.659  26.478  0.00  0.00    +0.189 HD
BRANCH  15  23
ATOM     22  C1  UNL     1       7.874  13.882  27.554  0.00  0.00    +0.014 C 
ATOM     23  C2  UNL     1       8.894  13.076  28.365  0.00  0.00    +0.032 C 
ATOM     24  C3  UNL     1       9.088  11.679  27.770  0.00  0.00    +0.014 C 
ENDBRANCH  15  23
ENDBRANCH   1  18
TORSDOF 3
ENDMDL
MODEL 8
REMARK VINA RESULT:    -5.719     17.737     19.857
REMARK INTER + INTRA:          -7.171
REMARK INTER:                  -6.716
REMARK INTRA:                  -0.456
REMARK UNBOUND:                -0.450
REMARK  Name = /home/qwerty/github/datacon2025hack/step_04_hit_selection/docking/ligands/lig_59.pdb
REMARK  5 active torsions:
REMARK  status: ('A' for Active; 'I' for Inactive)
REMARK    1  A    between atoms: C1_1  and  C2_2
REMARK    2  A    between atoms: C2_2  and  C3_3
REMARK    3  A    between atoms: C2_2  and  C4_4
REMARK    4  A    between atoms: C5_7  and  C6_8
REMARK    5  A    between atoms: N3_10  and  C7_11
REMARK                            x       y       z     vdW  Elec       q    Type
REMARK                         _______ _______ _______ _____ _____    ______ ____
ROOT
ATOM      1  C6  UNL     1      13.438   3.835  20.670  0.00  0.00    +0.269 C 
ATOM      2  O1  UNL     1      13.743   4.680  21.556  0.00  0.00    -0.268 OA
ATOM      3  N3  UNL     1      12.210   3.973  19.940  0.00  0.00    -0.280 N 
ATOM      4  H9  UNL     1      12.199   3.655  18.945  0.00  0.00    +0.155 HD
ENDROOT
BRANCH   3   5
ATOM      5  C7  UNL     1      11.054   4.665  20.442  0.00  0.00    +0.034 A 
ATOM      6  C8  UNL     1       9.986   3.961  21.064  0.00  0.00    +0.025 A 
ATOM      7  C9  UNL     1       8.849   4.646  21.530  0.00  0.00    +0.028 A 
ATOM      8  C10 UNL     1       8.800   6.025  21.351  0.00  0.00    +0.047 A 
ATOM      9  N4  UNL     1       7.814   6.862  21.713  0.00  0.00    -0.361 N 
ATOM     10  C11 UNL     1       8.213   8.095  21.322  0.00  0.00    +0.083 A 
ATOM     11  C12 UNL     1       9.460   8.038  20.708  0.00  0.00    +0.027 A 
ATOM     12  C13 UNL     1       9.816   6.707  20.737  0.00  0.00    +0.001 A 
ATOM     13  C14 UNL     1      10.956   6.062  20.264  0.00  0.00    +0.033 A 
ATOM     14  H12 UNL     1       6.920   6.616  22.194  0.00  0.00    +0.165 HD
ENDBRANCH   3   5
BRANCH   1  18
ATOM     15  C4  UNL     1      15.507   0.879  20.246  0.00  0.00    +0.053 A 
ATOM     16  N1  UNL     1      16.135   1.808  19.500  0.00  0.00    -0.280 N 
ATOM     17  N2  UNL     1      15.470   2.950  19.562  0.00  0.00    -0.168 NA
ATOM     18  C5  UNL     1      14.393   2.761  20.351  0.00  0.00    +0.161 A 
ATOM     19  C15 UNL     1      14.386   1.452  20.818  0.00  0.00    +0.071 A 
ATOM     20 BR1  UNL     1      13.211   0.646  22.101  0.00  0.00    -0.046 Br
ATOM     21  H8  UNL     1      17.022   1.681  18.965  0.00  0.00    +0.189 HD
BRANCH  15  23
ATOM     22  C1  UNL     1      16.880  -0.979  19.286  0.00  0.00    +0.014 C 
ATOM     23  C2  UNL     1      16.018  -0.523  20.468  0.00  0.00    +0.032 C 
ATOM     24  C3  UNL     1      16.800  -0.603  21.781  0.00  0.00    +0.014 C 
ENDBRANCH  15  23
ENDBRANCH   1  18
TORSDOF 3
ENDMDL
MODEL 9
REMARK VINA RESULT:    -5.681     17.617     18.084
REMARK INTER + INTRA:          -7.127
REMARK INTER:                  -6.656
REMARK INTRA:                  -0.471
REMARK UNBOUND:                -0.450
REMARK  Name = /home/qwerty/github/datacon2025hack/step_04_hit_selection/docking/ligands/lig_59.pdb
REMARK  5 active torsions:
REMARK  status: ('A' for Active; 'I' for Inactive)
REMARK    1  A    between atoms: C1_1  and  C2_2
REMARK    2  A    between atoms: C2_2  and  C3_3
REMARK    3  A    between atoms: C2_2  and  C4_4
REMARK    4  A    between atoms: C5_7  and  C6_8
REMARK    5  A    between atoms: N3_10  and  C7_11
REMARK                            x       y       z     vdW  Elec       q    Type
REMARK                         _______ _______ _______ _____ _____    ______ ____
ROOT
ATOM      1  C6  UNL     1      11.499   3.078  22.073  0.00  0.00    +0.269 C 
ATOM      2  O1  UNL     1      12.325   3.676  22.815  0.00  0.00    -0.268 OA
ATOM      3  N3  UNL     1      11.788   1.755  21.599  0.00  0.00    -0.280 N 
ATOM      4  H9  UNL     1      10.984   1.100  21.467  0.00  0.00    +0.155 HD
ENDROOT
BRANCH   3   5
ATOM      5  C7  UNL     1      13.119   1.231  21.451  0.00  0.00    +0.034 A 
ATOM      6  C8  UNL     1      13.940   1.602  20.350  0.00  0.00    +0.025 A 
ATOM      7  C9  UNL     1      15.231   1.064  20.204  0.00  0.00    +0.028 A 
ATOM      8  C10 UNL     1      15.670   0.153  21.159  0.00  0.00    +0.047 A 
ATOM      9  N4  UNL     1      16.855  -0.478  21.203  0.00  0.00    -0.361 N 
ATOM     10  C11 UNL     1      16.813  -1.266  22.303  0.00  0.00    +0.083 A 
ATOM     11  C12 UNL     1      15.593  -1.135  22.959  0.00  0.00    +0.027 A 
ATOM     12  C13 UNL     1      14.879  -0.224  22.211  0.00  0.00    +0.001 A 
ATOM     13  C14 UNL     1      13.596   0.288  22.387  0.00  0.00    +0.033 A 
ATOM     14  H12 UNL     1      17.647  -0.385  20.530  0.00  0.00    +0.165 HD
ENDBRANCH   3   5
BRANCH   1  18
ATOM     15  C4  UNL     1       8.631   5.102  21.134  0.00  0.00    +0.053 A 
ATOM     16  N1  UNL     1       8.075   4.040  21.748  0.00  0.00    -0.280 N 
ATOM     17  N2  UNL     1       9.025   3.207  22.140  0.00  0.00    -0.168 NA
ATOM     18  C5  UNL     1      10.213   3.728  21.771  0.00  0.00    +0.161 A 
ATOM     19  C15 UNL     1      10.006   4.945  21.134  0.00  0.00    +0.071 A 
ATOM     20 BR1  UNL     1      11.308   6.222  20.540  0.00  0.00    -0.046 Br
ATOM     21  H8  UNL     1       7.058   3.885  21.923  0.00  0.00    +0.189 HD
BRANCH  15  23
ATOM     22  C1  UNL     1       6.424   5.887  20.257  0.00  0.00    +0.014 C 
ATOM     23  C2  UNL     1       7.857   6.290  20.619  0.00  0.00    +0.032 C 
ATOM     24  C3  UNL     1       7.867   7.419  21.652  0.00  0.00    +0.014 C 
ENDBRANCH  15  23
ENDBRANCH   1  18
TORSDOF 3
ENDMDL
