REMARK  Name = /home/qwerty/github/datacon2025hack/step_04_hit_selection/docking/ligands/lig_450.pdb
REMARK  4 active torsions:
REMARK  status: ('A' for Active; 'I' for Inactive)
REMARK    1  A    between atoms: C1_1  and  C2_2
REMARK    2  A    between atoms: C5_5  and  N1_6
REMARK    3  A    between atoms: C6_7  and  C7_9
REMARK    4  A    between atoms: N2_11  and  C8_12
REMARK                            x       y       z     vdW  Elec       q    Type
REMARK                         _______ _______ _______ _____ _____    ______ ____
ROOT
ATOM      1  C7  UNL     1       0.666   0.149   0.295  0.00  0.00    +0.303 C 
ATOM      2  O2  UNL     1       0.885   0.143   1.537  0.00  0.00    -0.265 OA
ATOM      3  N2  UNL     1       1.767   0.172  -0.627  0.00  0.00    -0.276 N 
ATOM      4  H7  UNL     1       1.588   0.467  -1.614  0.00  0.00    +0.155 HD
ENDROOT
BRANCH   3   5
ATOM      5  C8  UNL     1       3.132   0.064  -0.201  0.00  0.00    +0.056 A 
ATOM      6  C9  UNL     1       4.036   1.092  -0.542  0.00  0.00    +0.074 A 
ATOM      7  C10 UNL     1       5.357   0.971  -0.122  0.00  0.00    +0.168 A 
ATOM      8  C11 UNL     1       5.791  -0.101   0.585  0.00  0.00    +0.168 A 
ATOM      9  C12 UNL     1       4.944  -1.150   0.926  0.00  0.00    +0.071 A 
ATOM     10  C13 UNL     1       3.597  -1.073   0.521  0.00  0.00    +0.066 A 
ATOM     11 CL1  UNL     1       2.545  -2.442   0.859  0.00  0.00    -0.081 Cl
ATOM     12  O3  UNL     1       7.136   0.044   0.863  0.00  0.00    -0.453 OA
ATOM     13  C14 UNL     1       7.573   1.288   0.296  0.00  0.00    +0.466 C 
ATOM     14  O4  UNL     1       6.407   1.846  -0.323  0.00  0.00    -0.453 OA
ENDBRANCH   3   5
BRANCH   1  16
ATOM     15  N1  UNL     1      -1.825   0.200   0.724  0.00  0.00    -0.276 N 
ATOM     16  C6  UNL     1      -0.724   0.150  -0.199  0.00  0.00    +0.303 C 
ATOM     17  O1  UNL     1      -0.939   0.130  -1.442  0.00  0.00    -0.265 OA
ATOM     18  H6  UNL     1      -1.628   0.465   1.715  0.00  0.00    +0.155 HD
BRANCH  15  23
ATOM     19  C1  UNL     1      -7.310  -0.763  -0.735  0.00  0.00    +0.044 C 
ATOM     20  C2  UNL     1      -5.878  -0.487  -0.383  0.00  0.00    -0.049 A 
ATOM     21  C3  UNL     1      -4.853  -1.264  -0.938  0.00  0.00    +0.005 A 
ATOM     22  C4  UNL     1      -3.522  -1.031  -0.582  0.00  0.00    +0.025 A 
ATOM     23  C5  UNL     1      -3.193  -0.019   0.337  0.00  0.00    +0.052 A 
ATOM     24  C15 UNL     1      -4.229   0.738   0.920  0.00  0.00    +0.062 A 
ATOM     25 CL2  UNL     1      -3.886   2.014   2.082  0.00  0.00    -0.082 Cl
ATOM     26  C16 UNL     1      -5.561   0.502   0.559  0.00  0.00    +0.025 A 
ENDBRANCH  15  23
ENDBRANCH   1  16
TORSDOF 3
