REMARK  Name = /home/qwerty/github/datacon2025hack/step_04_hit_selection/docking/ligands/lig_228.pdb
REMARK  9 active torsions:
REMARK  status: ('A' for Active; 'I' for Inactive)
REMARK    1  A    between atoms: C1_1  and  C2_2
REMARK    2  A    between atoms: C2_2  and  N1_3
REMARK    3  A    between atoms: C2_2  and  C10_14
REMARK    4  A    between atoms: C3_4  and  C4_6
REMARK    5  A    between atoms: C12_16  and  C13_17
REMARK    6  A    between atoms: N2_19  and  C14_20
REMARK    7  A    between atoms: C14_20  and  C15_21
REMARK    8  A    between atoms: N3_27  and  C21_28
REMARK    9  A    between atoms: C21_28  and  C22_29
REMARK                            x       y       z     vdW  Elec       q    Type
REMARK                         _______ _______ _______ _____ _____    ______ ____
ROOT
ATOM      1  C10 UNL     1      -1.551   1.257   2.443  0.00  0.00    +0.025 C 
ATOM      2  C11 UNL     1      -0.536   2.082   1.656  0.00  0.00    +0.035 C 
ATOM      3  C12 UNL     1       0.628   1.116   1.361  0.00  0.00    +0.144 C 
ATOM      4  N3  UNL     1       0.270  -0.196   1.953  0.00  0.00    -0.287 NA
ATOM      5  C27 UNL     1      -1.183  -0.188   2.128  0.00  0.00    +0.091 C 
ENDROOT
BRANCH   3   6
ATOM      6  C13 UNL     1       0.949   1.061  -0.123  0.00  0.00    +0.231 C 
ATOM      7  O2  UNL     1       0.018   0.982  -0.972  0.00  0.00    -0.274 OA
ATOM      8  N2  UNL     1       2.316   0.983  -0.552  0.00  0.00    -0.310 N 
ATOM      9  H13 UNL     1       3.068   0.949   0.171  0.00  0.00    +0.149 HD
BRANCH   8  10
ATOM     10  C14 UNL     1       2.672   0.827  -1.962  0.00  0.00    +0.139 C 
BRANCH  10  11
ATOM     11  C15 UNL     1       4.092   0.348  -2.091  0.00  0.00    -0.030 A 
ATOM     12  C16 UNL     1       5.136   1.261  -2.310  0.00  0.00    +0.005 A 
ATOM     13  C17 UNL     1       6.460   0.813  -2.371  0.00  0.00    +0.000 A 
ATOM     14  C18 UNL     1       6.751  -0.543  -2.195  0.00  0.00    +0.000 A 
ATOM     15  C19 UNL     1       5.718  -1.454  -1.962  0.00  0.00    +0.000 A 
ATOM     16  C20 UNL     1       4.393  -1.012  -1.904  0.00  0.00    +0.005 A 
ENDBRANCH  10  11
ENDBRANCH   8  10
ENDBRANCH   3   6
BRANCH   1  18
ATOM     17  C1  UNL     1      -3.964   0.998   3.203  0.00  0.00    +0.028 C 
ATOM     18  C2  UNL     1      -3.032   1.640   2.168  0.00  0.00    +0.075 C 
BRANCH  18  19
ATOM     19  N1  UNL     1      -3.457   1.250   0.818  0.00  0.00    -0.308 N 
ATOM     20  C3  UNL     1      -3.511   2.165  -0.288  0.00  0.00    +0.244 C 
ATOM     21  O1  UNL     1      -3.546   3.408  -0.073  0.00  0.00    -0.270 OA
ATOM     22  H5  UNL     1      -3.743   0.257   0.654  0.00  0.00    +0.149 HD
BRANCH  20  23
ATOM     23  C4  UNL     1      -3.548   1.662  -1.680  0.00  0.00    +0.038 A 
ATOM     24  C5  UNL     1      -4.132   2.436  -2.696  0.00  0.00    +0.014 A 
ATOM     25  C6  UNL     1      -4.184   1.957  -4.009  0.00  0.00    +0.022 A 
ATOM     26  C7  UNL     1      -3.637   0.712  -4.329  0.00  0.00    +0.059 A 
ATOM     27 CL1  UNL     1      -3.716   0.150  -5.994  0.00  0.00    -0.082 Cl
ATOM     28  C8  UNL     1      -3.033  -0.063  -3.325  0.00  0.00    +0.060 A 
ATOM     29 CL2  UNL     1      -2.317  -1.627  -3.687  0.00  0.00    -0.082 Cl
ATOM     30  C9  UNL     1      -2.994   0.412  -2.008  0.00  0.00    +0.034 A 
ENDBRANCH  20  23
ENDBRANCH  18  19
ENDBRANCH   1  18
BRANCH   4  31
ATOM     31  C21 UNL     1       0.760  -1.393   1.235  0.00  0.00    +0.121 C 
BRANCH  31  32
ATOM     32  C22 UNL     1       0.542  -2.633   2.061  0.00  0.00    -0.015 A 
ATOM     33  C23 UNL     1       1.258  -2.828   3.249  0.00  0.00    +0.008 A 
ATOM     34  C24 UNL     1       1.018  -3.960   4.030  0.00  0.00    +0.020 A 
ATOM     35  C25 UNL     1       0.063  -4.890   3.614  0.00  0.00    +0.111 A 
ATOM     36  N4  UNL     1      -0.623  -4.689   2.459  0.00  0.00    -0.263 NA
ATOM     37  C26 UNL     1      -0.409  -3.592   1.682  0.00  0.00    +0.115 A 
ENDBRANCH  31  32
ENDBRANCH   4  31
TORSDOF 8
