REMARK  Name = /home/qwerty/github/datacon2025hack/step_04_hit_selection/docking/ligands/lig_251.pdb
REMARK  7 active torsions:
REMARK  status: ('A' for Active; 'I' for Inactive)
REMARK    1  A    between atoms: C1_1  and  C2_2
REMARK    2  A    between atoms: C2_2  and  C3_3
REMARK    3  A    between atoms: C2_2  and  C4_4
REMARK    4  A    between atoms: C6_8  and  C7_9
REMARK    5  A    between atoms: N2_11  and  C8_12
REMARK    6  A    between atoms: C11_16  and  C12_18
REMARK    7  A    between atoms: C12_18  and  C13_19
REMARK                            x       y       z     vdW  Elec       q    Type
REMARK                         _______ _______ _______ _____ _____    ______ ____
ROOT
ATOM      1  C7  UNL     1      -1.989  -2.019  -1.388  0.00  0.00    +0.266 C 
ATOM      2  O2  UNL     1      -1.471  -3.167  -1.376  0.00  0.00    -0.268 OA
ATOM      3  N2  UNL     1      -1.151  -0.855  -1.364  0.00  0.00    -0.306 N 
ATOM      4  H9  UNL     1      -1.562   0.058  -1.666  0.00  0.00    +0.149 HD
ENDROOT
BRANCH   3   5
ATOM      5  C8  UNL     1       0.273  -0.931  -1.019  0.00  0.00    +0.092 C 
ATOM      6  C9  UNL     1       0.479  -1.367   0.434  0.00  0.00    +0.043 C 
ATOM      7  C10 UNL     1       1.727  -0.633   0.907  0.00  0.00    +0.109 C 
ATOM      8  N3  UNL     1       1.909   0.471  -0.023  0.00  0.00    -0.300 N 
ATOM      9  C11 UNL     1       2.883   1.522   0.127  0.00  0.00    +0.216 C 
ATOM     10  O3  UNL     1       2.900   2.471  -0.705  0.00  0.00    -0.276 OA
ATOM     11  C16 UNL     1       0.970   0.426  -1.130  0.00  0.00    +0.130 C 
BRANCH   9  12
ATOM     12  C12 UNL     1       3.874   1.537   1.261  0.00  0.00    +0.099 C 
BRANCH  12  13
ATOM     13  C13 UNL     1       5.302   1.697   0.719  0.00  0.00    -0.002 C 
ATOM     14  C14 UNL     1       6.402   1.128   1.602  0.00  0.00    +0.004 C 
ATOM     15  C15 UNL     1       6.002   0.404   0.325  0.00  0.00    +0.004 C 
ENDBRANCH  12  13
ENDBRANCH   9  12
ENDBRANCH   3   5
BRANCH   1  20
ATOM     16  C4  UNL     1      -4.276  -0.939  -0.905  0.00  0.00    +0.140 A 
ATOM     17  O1  UNL     1      -5.510  -1.227  -1.243  0.00  0.00    -0.446 OA
ATOM     18  C5  UNL     1      -5.475  -2.322  -1.970  0.00  0.00    +0.308 A 
ATOM     19  N1  UNL     1      -4.221  -2.790  -2.140  0.00  0.00    -0.211 NA
ATOM     20  C6  UNL     1      -3.454  -1.899  -1.477  0.00  0.00    +0.167 A 
BRANCH  16  22
ATOM     21  C1  UNL     1      -4.085   1.541  -0.764  0.00  0.00    +0.015 C 
ATOM     22  C2  UNL     1      -3.902   0.219  -0.015  0.00  0.00    +0.051 C 
ATOM     23  C3  UNL     1      -4.750   0.200   1.259  0.00  0.00    +0.015 C 
ENDBRANCH  16  22
ENDBRANCH   1  20
TORSDOF 5
