MODEL 1
REMARK VINA RESULT:    -6.199      0.000      0.000
REMARK INTER + INTRA:          -8.955
REMARK INTER:                  -7.648
REMARK INTRA:                  -1.307
REMARK UNBOUND:                -1.307
REMARK  Name = /home/qwerty/github/datacon2025hack/step_04_hit_selection/docking/ligands/lig_54.pdb
REMARK  7 active torsions:
REMARK  status: ('A' for Active; 'I' for Inactive)
REMARK    1  A    between atoms: C1_1  and  C2_2
REMARK    2  A    between atoms: C2_2  and  C3_3
REMARK    3  A    between atoms: C2_2  and  C4_4
REMARK    4  A    between atoms: C9_12  and  C10_13
REMARK    5  A    between atoms: N4_16  and  C13_17
REMARK    6  A    between atoms: C13_17  and  C14_18
REMARK    7  A    between atoms: C14_18  and  N5_19
REMARK                            x       y       z     vdW  Elec       q    Type
REMARK                         _______ _______ _______ _____ _____    ______ ____
ROOT
ATOM      1  C4  UNL     1      22.394   9.320  32.869  0.00  0.00    +0.137 A 
ATOM      2  N1  UNL     1      21.569   9.885  31.963  0.00  0.00    -0.132 NA
ATOM      3  N2  UNL     1      20.404  10.087  32.557  0.00  0.00    -0.113 NA
ATOM      4  C5  UNL     1      20.531   9.650  33.820  0.00  0.00    +0.220 A 
ATOM      5  N3  UNL     1      19.582  10.009  34.841  0.00  0.00    -0.300 N 
ATOM      6  C6  UNL     1      18.170   9.631  34.615  0.00  0.00    +0.108 C 
ATOM      7  C7  UNL     1      17.162  10.412  35.481  0.00  0.00    +0.019 C 
ATOM      8  C8  UNL     1      17.077  11.934  35.203  0.00  0.00    +0.005 C 
ATOM      9  C9  UNL     1      18.278  12.563  34.460  0.00  0.00    -0.013 C 
ATOM     10  C10 UNL     1      17.974  14.033  34.131  0.00  0.00    +0.007 C 
ATOM     11  C11 UNL     1      19.604  12.472  35.248  0.00  0.00    +0.022 C 
ATOM     12  C12 UNL     1      19.955  11.076  35.785  0.00  0.00    +0.108 C 
ATOM     13  N4  UNL     1      21.757   9.105  34.048  0.00  0.00    -0.297 N 
ENDROOT
BRANCH   1  15
ATOM     14  C1  UNL     1      24.431   7.877  32.636  0.00  0.00    +0.015 C 
ATOM     15  C2  UNL     1      23.892   9.309  32.670  0.00  0.00    +0.051 C 
ATOM     16  C3  UNL     1      24.251  10.053  31.381  0.00  0.00    +0.015 C 
ENDBRANCH   1  15
BRANCH  13  17
ATOM     17  C13 UNL     1      22.319   8.613  35.322  0.00  0.00    +0.148 C 
BRANCH  17  18
ATOM     18  C14 UNL     1      22.089   7.086  35.645  0.00  0.00    +0.040 C 
ATOM     19  C19 UNL     1      23.335   6.356  36.202  0.00  0.00    +0.024 C 
ATOM     20  C20 UNL     1      23.334   6.482  37.723  0.00  0.00    +0.002 C 
ATOM     21  C21 UNL     1      21.983   7.049  38.110  0.00  0.00    +0.002 C 
ATOM     22  C22 UNL     1      21.130   7.001  36.854  0.00  0.00    +0.024 C 
BRANCH  18  23
ATOM     23  N5  UNL     1      21.510   6.315  34.502  0.00  0.00    -0.293 NA
ATOM     24  C15 UNL     1      20.076   5.971  34.609  0.00  0.00    +0.095 C 
ATOM     25  C16 UNL     1      19.491   5.780  33.212  0.00  0.00    +0.084 C 
ATOM     26  S1  UNL     1      20.226   4.319  32.384  0.00  0.00    -0.158 S 
ATOM     27  C17 UNL     1      21.966   4.850  32.584  0.00  0.00    +0.084 C 
ATOM     28  C18 UNL     1      22.298   5.150  34.046  0.00  0.00    +0.095 C 
ENDBRANCH  18  23
ENDBRANCH  17  18
ENDBRANCH  13  17
TORSDOF 4
ENDMDL
MODEL 2
REMARK VINA RESULT:    -6.012     14.919     17.302
REMARK INTER + INTRA:          -8.726
REMARK INTER:                  -7.150
REMARK INTRA:                  -1.575
REMARK UNBOUND:                -1.307
REMARK  Name = /home/qwerty/github/datacon2025hack/step_04_hit_selection/docking/ligands/lig_54.pdb
REMARK  7 active torsions:
REMARK  status: ('A' for Active; 'I' for Inactive)
REMARK    1  A    between atoms: C1_1  and  C2_2
REMARK    2  A    between atoms: C2_2  and  C3_3
REMARK    3  A    between atoms: C2_2  and  C4_4
REMARK    4  A    between atoms: C9_12  and  C10_13
REMARK    5  A    between atoms: N4_16  and  C13_17
REMARK    6  A    between atoms: C13_17  and  C14_18
REMARK    7  A    between atoms: C14_18  and  N5_19
REMARK                            x       y       z     vdW  Elec       q    Type
REMARK                         _______ _______ _______ _____ _____    ______ ____
ROOT
ATOM      1  C4  UNL     1      11.387   8.009  21.053  0.00  0.00    +0.137 A 
ATOM      2  N1  UNL     1      12.550   8.469  21.559  0.00  0.00    -0.132 NA
ATOM      3  N2  UNL     1      13.312   7.421  21.825  0.00  0.00    -0.113 NA
ATOM      4  C5  UNL     1      12.611   6.332  21.472  0.00  0.00    +0.220 A 
ATOM      5  N3  UNL     1      13.243   5.049  21.312  0.00  0.00    -0.300 N 
ATOM      6  C6  UNL     1      13.947   4.490  22.488  0.00  0.00    +0.108 C 
ATOM      7  C7  UNL     1      14.957   3.377  22.147  0.00  0.00    +0.019 C 
ATOM      8  C8  UNL     1      16.173   3.814  21.291  0.00  0.00    +0.005 C 
ATOM      9  C9  UNL     1      16.021   5.140  20.509  0.00  0.00    -0.013 C 
ATOM     10  C10 UNL     1      17.354   5.505  19.840  0.00  0.00    +0.007 C 
ATOM     11  C11 UNL     1      14.900   5.100  19.446  0.00  0.00    +0.022 C 
ATOM     12  C12 UNL     1      13.539   4.590  19.944  0.00  0.00    +0.108 C 
ATOM     13  N4  UNL     1      11.365   6.652  21.029  0.00  0.00    -0.297 N 
ENDROOT
BRANCH   1  15
ATOM     14  C1  UNL     1       9.557   9.712  21.236  0.00  0.00    +0.015 C 
ATOM     15  C2  UNL     1      10.450   8.911  20.285  0.00  0.00    +0.051 C 
ATOM     16  C3  UNL     1      11.255   9.848  19.380  0.00  0.00    +0.015 C 
ENDBRANCH   1  15
BRANCH  13  17
ATOM     17  C13 UNL     1      10.338   5.757  20.458  0.00  0.00    +0.148 C 
BRANCH  17  18
ATOM     18  C14 UNL     1       9.282   5.167  21.470  0.00  0.00    +0.040 C 
ATOM     19  C19 UNL     1       8.789   6.172  22.539  0.00  0.00    +0.024 C 
ATOM     20  C20 UNL     1       7.570   6.908  21.991  0.00  0.00    +0.002 C 
ATOM     21  C21 UNL     1       7.163   6.186  20.721  0.00  0.00    +0.002 C 
ATOM     22  C22 UNL     1       7.976   4.903  20.686  0.00  0.00    +0.024 C 
BRANCH  18  23
ATOM     23  N5  UNL     1       9.728   3.898  22.125  0.00  0.00    -0.293 NA
ATOM     24  C15 UNL     1      10.383   2.907  21.244  0.00  0.00    +0.095 C 
ATOM     25  C16 UNL     1      11.305   2.017  22.074  0.00  0.00    +0.084 C 
ATOM     26  S1  UNL     1      10.345   0.986  23.247  0.00  0.00    -0.158 S 
ATOM     27  C17 UNL     1       9.462   2.381  24.038  0.00  0.00    +0.084 C 
ATOM     28  C18 UNL     1       8.736   3.245  23.006  0.00  0.00    +0.095 C 
ENDBRANCH  18  23
ENDBRANCH  17  18
ENDBRANCH  13  17
TORSDOF 4
ENDMDL
MODEL 3
REMARK VINA RESULT:    -5.935     14.756     17.100
REMARK INTER + INTRA:          -8.630
REMARK INTER:                  -7.056
REMARK INTRA:                  -1.574
REMARK UNBOUND:                -1.307
REMARK  Name = /home/qwerty/github/datacon2025hack/step_04_hit_selection/docking/ligands/lig_54.pdb
REMARK  7 active torsions:
REMARK  status: ('A' for Active; 'I' for Inactive)
REMARK    1  A    between atoms: C1_1  and  C2_2
REMARK    2  A    between atoms: C2_2  and  C3_3
REMARK    3  A    between atoms: C2_2  and  C4_4
REMARK    4  A    between atoms: C9_12  and  C10_13
REMARK    5  A    between atoms: N4_16  and  C13_17
REMARK    6  A    between atoms: C13_17  and  C14_18
REMARK    7  A    between atoms: C14_18  and  N5_19
REMARK                            x       y       z     vdW  Elec       q    Type
REMARK                         _______ _______ _______ _____ _____    ______ ____
ROOT
ATOM      1  C4  UNL     1       8.584   8.455  22.262  0.00  0.00    +0.137 A 
ATOM      2  N1  UNL     1       7.475   7.694  22.151  0.00  0.00    -0.132 NA
ATOM      3  N2  UNL     1       7.853   6.428  22.211  0.00  0.00    -0.113 NA
ATOM      4  C5  UNL     1       9.187   6.427  22.364  0.00  0.00    +0.220 A 
ATOM      5  N3  UNL     1       9.895   5.251  22.793  0.00  0.00    -0.300 N 
ATOM      6  C6  UNL     1       9.767   4.040  21.953  0.00  0.00    +0.108 C 
ATOM      7  C7  UNL     1      10.152   2.731  22.670  0.00  0.00    +0.019 C 
ATOM      8  C8  UNL     1       9.245   2.326  23.860  0.00  0.00    +0.005 C 
ATOM      9  C9  UNL     1       8.379   3.450  24.475  0.00  0.00    -0.013 C 
ATOM     10  C10 UNL     1       7.435   2.858  25.533  0.00  0.00    +0.007 C 
ATOM     11  C11 UNL     1       9.210   4.592  25.102  0.00  0.00    +0.022 C 
ATOM     12  C12 UNL     1      10.313   5.171  24.204  0.00  0.00    +0.108 C 
ATOM     13  N4  UNL     1       9.700   7.687  22.347  0.00  0.00    -0.297 N 
ENDROOT
BRANCH   1  15
ATOM     14  C1  UNL     1       8.123  10.765  21.404  0.00  0.00    +0.015 C 
ATOM     15  C2  UNL     1       8.502   9.920  22.623  0.00  0.00    +0.051 C 
ATOM     16  C3  UNL     1       7.492  10.120  23.756  0.00  0.00    +0.015 C 
ENDBRANCH   1  15
BRANCH  13  17
ATOM     17  C13 UNL     1      11.094   8.112  22.587  0.00  0.00    +0.148 C 
BRANCH  17  18
ATOM     18  C14 UNL     1      12.048   8.128  21.330  0.00  0.00    +0.040 C 
ATOM     19  C19 UNL     1      11.333   8.424  19.989  0.00  0.00    +0.024 C 
ATOM     20  C20 UNL     1      11.325   9.933  19.764  0.00  0.00    +0.002 C 
ATOM     21  C21 UNL     1      12.244  10.532  20.811  0.00  0.00    +0.002 C 
ATOM     22  C22 UNL     1      12.969   9.363  21.454  0.00  0.00    +0.024 C 
BRANCH  18  23
ATOM     23  N5  UNL     1      12.888   6.897  21.204  0.00  0.00    -0.293 NA
ATOM     24  C15 UNL     1      12.358   5.835  20.321  0.00  0.00    +0.095 C 
ATOM     25  C16 UNL     1      13.512   4.984  19.798  0.00  0.00    +0.084 C 
ATOM     26  S1  UNL     1      14.315   4.054  21.158  0.00  0.00    -0.158 S 
ATOM     27  C17 UNL     1      14.657   5.517  22.204  0.00  0.00    +0.084 C 
ATOM     28  C18 UNL     1      13.388   6.325  22.474  0.00  0.00    +0.095 C 
ENDBRANCH  18  23
ENDBRANCH  17  18
ENDBRANCH  13  17
TORSDOF 4
ENDMDL
MODEL 4
REMARK VINA RESULT:    -5.893     14.294     15.961
REMARK INTER + INTRA:          -8.578
REMARK INTER:                  -7.350
REMARK INTRA:                  -1.228
REMARK UNBOUND:                -1.307
REMARK  Name = /home/qwerty/github/datacon2025hack/step_04_hit_selection/docking/ligands/lig_54.pdb
REMARK  7 active torsions:
REMARK  status: ('A' for Active; 'I' for Inactive)
REMARK    1  A    between atoms: C1_1  and  C2_2
REMARK    2  A    between atoms: C2_2  and  C3_3
REMARK    3  A    between atoms: C2_2  and  C4_4
REMARK    4  A    between atoms: C9_12  and  C10_13
REMARK    5  A    between atoms: N4_16  and  C13_17
REMARK    6  A    between atoms: C13_17  and  C14_18
REMARK    7  A    between atoms: C14_18  and  N5_19
REMARK                            x       y       z     vdW  Elec       q    Type
REMARK                         _______ _______ _______ _____ _____    ______ ____
ROOT
ATOM      1  C4  UNL     1      14.491   3.467  20.545  0.00  0.00    +0.137 A 
ATOM      2  N1  UNL     1      14.161   4.057  19.378  0.00  0.00    -0.132 NA
ATOM      3  N2  UNL     1      12.931   4.529  19.503  0.00  0.00    -0.113 NA
ATOM      4  C5  UNL     1      12.525   4.229  20.748  0.00  0.00    +0.220 A 
ATOM      5  N3  UNL     1      11.380   4.867  21.341  0.00  0.00    -0.300 N 
ATOM      6  C6  UNL     1      10.085   4.718  20.642  0.00  0.00    +0.108 C 
ATOM      7  C7  UNL     1       9.025   5.761  21.049  0.00  0.00    +0.019 C 
ATOM      8  C8  UNL     1       9.355   7.231  20.686  0.00  0.00    +0.005 C 
ATOM      9  C9  UNL     1      10.841   7.547  20.394  0.00  0.00    -0.013 C 
ATOM     10  C10 UNL     1      10.977   8.998  19.907  0.00  0.00    +0.007 C 
ATOM     11  C11 UNL     1      11.768   7.318  21.609  0.00  0.00    +0.022 C 
ATOM     12  C12 UNL     1      11.618   5.957  22.303  0.00  0.00    +0.108 C 
ATOM     13  N4  UNL     1      13.459   3.509  21.426  0.00  0.00    -0.297 N 
ENDROOT
BRANCH   1  15
ATOM     14  C1  UNL     1      16.417   1.901  20.196  0.00  0.00    +0.015 C 
ATOM     15  C2  UNL     1      15.930   3.170  20.899  0.00  0.00    +0.051 C 
ATOM     16  C3  UNL     1      16.813   4.366  20.531  0.00  0.00    +0.015 C 
ENDBRANCH   1  15
BRANCH  13  17
ATOM     17  C13 UNL     1      13.436   3.079  22.839  0.00  0.00    +0.148 C 
BRANCH  17  18
ATOM     18  C14 UNL     1      13.334   1.527  23.098  0.00  0.00    +0.040 C 
ATOM     19  C19 UNL     1      12.518   1.141  24.356  0.00  0.00    +0.024 C 
ATOM     20  C20 UNL     1      11.055   0.978  23.957  0.00  0.00    +0.002 C 
ATOM     21  C21 UNL     1      11.014   1.004  22.441  0.00  0.00    +0.002 C 
ATOM     22  C22 UNL     1      12.458   0.920  21.979  0.00  0.00    +0.024 C 
BRANCH  18  23
ATOM     23  N5  UNL     1      14.661   0.837  23.115  0.00  0.00    -0.293 NA
ATOM     24  C15 UNL     1      14.630  -0.635  22.980  0.00  0.00    +0.095 C 
ATOM     25  C16 UNL     1      15.955  -1.122  22.397  0.00  0.00    +0.084 C 
ATOM     26  S1  UNL     1      17.337  -0.824  23.563  0.00  0.00    -0.158 S 
ATOM     27  C17 UNL     1      17.027   0.969  23.761  0.00  0.00    +0.084 C 
ATOM     28  C18 UNL     1      15.587   1.247  24.193  0.00  0.00    +0.095 C 
ENDBRANCH  18  23
ENDBRANCH  17  18
ENDBRANCH  13  17
TORSDOF 4
ENDMDL
MODEL 5
REMARK VINA RESULT:    -5.886      4.723      8.961
REMARK INTER + INTRA:          -8.570
REMARK INTER:                  -6.916
REMARK INTRA:                  -1.654
REMARK UNBOUND:                -1.307
REMARK  Name = /home/qwerty/github/datacon2025hack/step_04_hit_selection/docking/ligands/lig_54.pdb
REMARK  7 active torsions:
REMARK  status: ('A' for Active; 'I' for Inactive)
REMARK    1  A    between atoms: C1_1  and  C2_2
REMARK    2  A    between atoms: C2_2  and  C3_3
REMARK    3  A    between atoms: C2_2  and  C4_4
REMARK    4  A    between atoms: C9_12  and  C10_13
REMARK    5  A    between atoms: N4_16  and  C13_17
REMARK    6  A    between atoms: C13_17  and  C14_18
REMARK    7  A    between atoms: C14_18  and  N5_19
REMARK                            x       y       z     vdW  Elec       q    Type
REMARK                         _______ _______ _______ _____ _____    ______ ____
ROOT
ATOM      1  C4  UNL     1      12.965  10.794  36.294  0.00  0.00    +0.137 A 
ATOM      2  N1  UNL     1      12.649   9.580  35.800  0.00  0.00    -0.132 NA
ATOM      3  N2  UNL     1      13.781   8.952  35.529  0.00  0.00    -0.113 NA
ATOM      4  C5  UNL     1      14.778   9.786  35.867  0.00  0.00    +0.220 A 
ATOM      5  N3  UNL     1      16.131   9.321  36.020  0.00  0.00    -0.300 N 
ATOM      6  C6  UNL     1      16.763   8.682  34.845  0.00  0.00    +0.108 C 
ATOM      7  C7  UNL     1      17.996   7.821  35.182  0.00  0.00    +0.019 C 
ATOM      8  C8  UNL     1      17.721   6.567  36.050  0.00  0.00    +0.005 C 
ATOM      9  C9  UNL     1      16.393   6.559  36.842  0.00  0.00    -0.013 C 
ATOM     10  C10 UNL     1      16.203   5.196  37.524  0.00  0.00    +0.007 C 
ATOM     11  C11 UNL     1      16.302   7.685  37.898  0.00  0.00    +0.022 C 
ATOM     12  C12 UNL     1      16.634   9.094  37.386  0.00  0.00    +0.108 C 
ATOM     13  N4  UNL     1      14.309  10.986  36.306  0.00  0.00    -0.297 N 
ENDROOT
BRANCH   1  15
ATOM     14  C1  UNL     1      11.149  12.515  36.124  0.00  0.00    +0.015 C 
ATOM     15  C2  UNL     1      11.959  11.618  37.064  0.00  0.00    +0.051 C 
ATOM     16  C3  UNL     1      11.033  10.696  37.862  0.00  0.00    +0.015 C 
ENDBRANCH   1  15
BRANCH  13  17
ATOM     17  C13 UNL     1      15.073  12.121  36.861  0.00  0.00    +0.148 C 
BRANCH  17  18
ATOM     18  C14 UNL     1      15.678  13.136  35.817  0.00  0.00    +0.040 C 
ATOM     19  C19 UNL     1      14.813  13.343  34.550  0.00  0.00    +0.024 C 
ATOM     20  C20 UNL     1      13.835  14.485  34.809  0.00  0.00    +0.002 C 
ATOM     21  C21 UNL     1      14.266  15.140  36.107  0.00  0.00    +0.002 C 
ATOM     22  C22 UNL     1      15.623  14.547  36.447  0.00  0.00    +0.024 C 
BRANCH  18  23
ATOM     23  N5  UNL     1      17.089  12.824  35.431  0.00  0.00    -0.293 NA
ATOM     24  C15 UNL     1      17.985  12.400  36.528  0.00  0.00    +0.095 C 
ATOM     25  C16 UNL     1      19.118  11.548  35.960  0.00  0.00    +0.084 C 
ATOM     26  S1  UNL     1      20.207  12.541  34.872  0.00  0.00    -0.158 S 
ATOM     27  C17 UNL     1      18.873  13.139  33.772  0.00  0.00    +0.084 C 
ATOM     28  C18 UNL     1      17.754  13.819  34.562  0.00  0.00    +0.095 C 
ENDBRANCH  18  23
ENDBRANCH  17  18
ENDBRANCH  13  17
TORSDOF 4
ENDMDL
MODEL 6
REMARK VINA RESULT:    -5.823      2.946      6.569
REMARK INTER + INTRA:          -8.492
REMARK INTER:                  -7.036
REMARK INTRA:                  -1.456
REMARK UNBOUND:                -1.307
REMARK  Name = /home/qwerty/github/datacon2025hack/step_04_hit_selection/docking/ligands/lig_54.pdb
REMARK  7 active torsions:
REMARK  status: ('A' for Active; 'I' for Inactive)
REMARK    1  A    between atoms: C1_1  and  C2_2
REMARK    2  A    between atoms: C2_2  and  C3_3
REMARK    3  A    between atoms: C2_2  and  C4_4
REMARK    4  A    between atoms: C9_12  and  C10_13
REMARK    5  A    between atoms: N4_16  and  C13_17
REMARK    6  A    between atoms: C13_17  and  C14_18
REMARK    7  A    between atoms: C14_18  and  N5_19
REMARK                            x       y       z     vdW  Elec       q    Type
REMARK                         _______ _______ _______ _____ _____    ______ ____
ROOT
ATOM      1  C4  UNL     1      23.080   6.188  32.929  0.00  0.00    +0.137 A 
ATOM      2  N1  UNL     1      23.912   5.159  32.668  0.00  0.00    -0.132 NA
ATOM      3  N2  UNL     1      23.202   4.045  32.738  0.00  0.00    -0.113 NA
ATOM      4  C5  UNL     1      21.943   4.404  33.034  0.00  0.00    +0.220 A 
ATOM      5  N3  UNL     1      20.841   3.495  32.865  0.00  0.00    -0.300 N 
ATOM      6  C6  UNL     1      20.892   2.222  33.617  0.00  0.00    +0.108 C 
ATOM      7  C7  UNL     1      19.955   1.128  33.069  0.00  0.00    +0.019 C 
ATOM      8  C8  UNL     1      20.287   0.610  31.647  0.00  0.00    +0.005 C 
ATOM      9  C9  UNL     1      21.186   1.521  30.778  0.00  0.00    -0.013 C 
ATOM     10  C10 UNL     1      21.543   0.802  29.469  0.00  0.00    +0.007 C 
ATOM     11  C11 UNL     1      20.546   2.892  30.461  0.00  0.00    +0.022 C 
ATOM     12  C12 UNL     1      19.990   3.654  31.672  0.00  0.00    +0.108 C 
ATOM     13  N4  UNL     1      21.829   5.748  33.219  0.00  0.00    -0.297 N 
ENDROOT
BRANCH   1  15
ATOM     14  C1  UNL     1      24.868   7.943  33.002  0.00  0.00    +0.015 C 
ATOM     15  C2  UNL     1      23.442   7.608  32.559  0.00  0.00    +0.051 C 
ATOM     16  C3  UNL     1      23.282   7.809  31.050  0.00  0.00    +0.015 C 
ENDBRANCH   1  15
BRANCH  13  17
ATOM     17  C13 UNL     1      20.604   6.539  33.453  0.00  0.00    +0.148 C 
BRANCH  17  18
ATOM     18  C14 UNL     1      20.332   6.983  34.942  0.00  0.00    +0.040 C 
ATOM     19  C19 UNL     1      21.605   7.122  35.811  0.00  0.00    +0.024 C 
ATOM     20  C20 UNL     1      22.130   8.549  35.682  0.00  0.00    +0.002 C 
ATOM     21  C21 UNL     1      21.058   9.342  34.961  0.00  0.00    +0.002 C 
ATOM     22  C22 UNL     1      19.832   8.446  34.912  0.00  0.00    +0.024 C 
BRANCH  18  23
ATOM     23  N5  UNL     1      19.322   6.132  35.643  0.00  0.00    -0.293 NA
ATOM     24  C15 UNL     1      18.498   5.257  34.781  0.00  0.00    +0.095 C 
ATOM     25  C16 UNL     1      18.006   4.059  35.590  0.00  0.00    +0.084 C 
ATOM     26  S1  UNL     1      16.846   4.586  36.907  0.00  0.00    -0.158 S 
ATOM     27  C17 UNL     1      17.976   5.806  37.672  0.00  0.00    +0.084 C 
ATOM     28  C18 UNL     1      18.483   6.821  36.648  0.00  0.00    +0.095 C 
ENDBRANCH  18  23
ENDBRANCH  17  18
ENDBRANCH  13  17
TORSDOF 4
ENDMDL
MODEL 7
REMARK VINA RESULT:    -5.800     14.655     16.721
REMARK INTER + INTRA:          -8.464
REMARK INTER:                  -6.845
REMARK INTRA:                  -1.619
REMARK UNBOUND:                -1.307
REMARK  Name = /home/qwerty/github/datacon2025hack/step_04_hit_selection/docking/ligands/lig_54.pdb
REMARK  7 active torsions:
REMARK  status: ('A' for Active; 'I' for Inactive)
REMARK    1  A    between atoms: C1_1  and  C2_2
REMARK    2  A    between atoms: C2_2  and  C3_3
REMARK    3  A    between atoms: C2_2  and  C4_4
REMARK    4  A    between atoms: C9_12  and  C10_13
REMARK    5  A    between atoms: N4_16  and  C13_17
REMARK    6  A    between atoms: C13_17  and  C14_18
REMARK    7  A    between atoms: C14_18  and  N5_19
REMARK                            x       y       z     vdW  Elec       q    Type
REMARK                         _______ _______ _______ _____ _____    ______ ____
ROOT
ATOM      1  C4  UNL     1      10.150   4.290  21.835  0.00  0.00    +0.137 A 
ATOM      2  N1  UNL     1       9.765   4.639  20.591  0.00  0.00    -0.132 NA
ATOM      3  N2  UNL     1       9.319   5.883  20.646  0.00  0.00    -0.113 NA
ATOM      4  C5  UNL     1       9.443   6.284  21.921  0.00  0.00    +0.220 A 
ATOM      5  N3  UNL     1       9.367   7.674  22.285  0.00  0.00    -0.300 N 
ATOM      6  C6  UNL     1       8.121   8.396  21.944  0.00  0.00    +0.108 C 
ATOM      7  C7  UNL     1       8.264   9.931  21.937  0.00  0.00    +0.019 C 
ATOM      8  C8  UNL     1       9.212  10.512  20.858  0.00  0.00    +0.005 C 
ATOM      9  C9  UNL     1      10.229   9.527  20.236  0.00  0.00    -0.013 C 
ATOM     10  C10 UNL     1      10.983  10.214  19.088  0.00  0.00    +0.007 C 
ATOM     11  C11 UNL     1      11.242   8.965  21.259  0.00  0.00    +0.022 C 
ATOM     12  C12 UNL     1      10.628   8.390  22.545  0.00  0.00    +0.108 C 
ATOM     13  N4  UNL     1       9.914   5.290  22.722  0.00  0.00    -0.297 N 
ENDROOT
BRANCH   1  15
ATOM     14  C1  UNL     1      10.244   1.839  22.354  0.00  0.00    +0.015 C 
ATOM     15  C2  UNL     1      11.057   3.105  22.076  0.00  0.00    +0.051 C 
ATOM     16  C3  UNL     1      11.980   2.903  20.871  0.00  0.00    +0.015 C 
ENDBRANCH   1  15
BRANCH  13  17
ATOM     17  C13 UNL     1      10.282   5.361  24.150  0.00  0.00    +0.148 C 
BRANCH  17  18
ATOM     18  C14 UNL     1       9.092   5.305  25.184  0.00  0.00    +0.040 C 
ATOM     19  C19 UNL     1       7.833   4.566  24.671  0.00  0.00    +0.024 C 
ATOM     20  C20 UNL     1       7.959   3.086  25.024  0.00  0.00    +0.002 C 
ATOM     21  C21 UNL     1       9.142   2.964  25.963  0.00  0.00    +0.002 C 
ATOM     22  C22 UNL     1       9.523   4.383  26.348  0.00  0.00    +0.024 C 
BRANCH  18  23
ATOM     23  N5  UNL     1       8.714   6.645  25.731  0.00  0.00    -0.293 NA
ATOM     24  C15 UNL     1       9.833   7.564  26.030  0.00  0.00    +0.095 C 
ATOM     25  C16 UNL     1       9.338   9.007  25.964  0.00  0.00    +0.084 C 
ATOM     26  S1  UNL     1       8.127   9.351  27.296  0.00  0.00    -0.158 S 
ATOM     27  C17 UNL     1       6.996   7.976  26.876  0.00  0.00    +0.084 C 
ATOM     28  C18 UNL     1       7.730   6.635  26.836  0.00  0.00    +0.095 C 
ENDBRANCH  18  23
ENDBRANCH  17  18
ENDBRANCH  13  17
TORSDOF 4
ENDMDL
MODEL 8
REMARK VINA RESULT:    -5.744      2.181      5.372
REMARK INTER + INTRA:          -8.394
REMARK INTER:                  -6.890
REMARK INTRA:                  -1.504
REMARK UNBOUND:                -1.307
REMARK  Name = /home/qwerty/github/datacon2025hack/step_04_hit_selection/docking/ligands/lig_54.pdb
REMARK  7 active torsions:
REMARK  status: ('A' for Active; 'I' for Inactive)
REMARK    1  A    between atoms: C1_1  and  C2_2
REMARK    2  A    between atoms: C2_2  and  C3_3
REMARK    3  A    between atoms: C2_2  and  C4_4
REMARK    4  A    between atoms: C9_12  and  C10_13
REMARK    5  A    between atoms: N4_16  and  C13_17
REMARK    6  A    between atoms: C13_17  and  C14_18
REMARK    7  A    between atoms: C14_18  and  N5_19
REMARK                            x       y       z     vdW  Elec       q    Type
REMARK                         _______ _______ _______ _____ _____    ______ ____
ROOT
ATOM      1  C4  UNL     1      19.631   9.305  35.800  0.00  0.00    +0.137 A 
ATOM      2  N1  UNL     1      20.743   9.994  36.131  0.00  0.00    -0.132 NA
ATOM      3  N2  UNL     1      21.786   9.271  35.756  0.00  0.00    -0.113 NA
ATOM      4  C5  UNL     1      21.300   8.151  35.195  0.00  0.00    +0.220 A 
ATOM      5  N3  UNL     1      22.127   7.296  34.386  0.00  0.00    -0.300 N 
ATOM      6  C6  UNL     1      23.333   6.721  35.021  0.00  0.00    +0.108 C 
ATOM      7  C7  UNL     1      24.389   6.207  34.023  0.00  0.00    +0.019 C 
ATOM      8  C8  UNL     1      25.048   7.288  33.128  0.00  0.00    +0.005 C 
ATOM      9  C9  UNL     1      24.289   8.629  33.001  0.00  0.00    -0.013 C 
ATOM     10  C10 UNL     1      25.140   9.635  32.212  0.00  0.00    +0.007 C 
ATOM     11  C11 UNL     1      22.901   8.488  32.334  0.00  0.00    +0.022 C 
ATOM     12  C12 UNL     1      21.998   7.394  32.922  0.00  0.00    +0.108 C 
ATOM     13  N4  UNL     1      19.942   8.104  35.250  0.00  0.00    -0.297 N 
ENDROOT
BRANCH   1  15
ATOM     14  C1  UNL     1      17.776  10.365  37.112  0.00  0.00    +0.015 C 
ATOM     15  C2  UNL     1      18.281   9.980  35.720  0.00  0.00    +0.051 C 
ATOM     16  C3  UNL     1      18.369  11.212  34.815  0.00  0.00    +0.015 C 
ENDBRANCH   1  15
BRANCH  13  17
ATOM     17  C13 UNL     1      19.036   7.100  34.657  0.00  0.00    +0.148 C 
BRANCH  17  18
ATOM     18  C14 UNL     1      18.670   5.863  35.564  0.00  0.00    +0.040 C 
ATOM     19  C19 UNL     1      19.150   5.982  37.031  0.00  0.00    +0.024 C 
ATOM     20  C20 UNL     1      18.055   6.663  37.848  0.00  0.00    +0.002 C 
ATOM     21  C21 UNL     1      16.826   6.722  36.961  0.00  0.00    +0.002 C 
ATOM     22  C22 UNL     1      17.136   5.855  35.753  0.00  0.00    +0.024 C 
BRANCH  18  23
ATOM     23  N5  UNL     1      19.103   4.553  34.987  0.00  0.00    -0.293 NA
ATOM     24  C15 UNL     1      19.819   4.615  33.695  0.00  0.00    +0.095 C 
ATOM     25  C16 UNL     1      20.711   3.385  33.546  0.00  0.00    +0.084 C 
ATOM     26  S1  UNL     1      19.708   1.857  33.410  0.00  0.00    -0.158 S 
ATOM     27  C17 UNL     1      18.762   2.120  34.954  0.00  0.00    +0.084 C 
ATOM     28  C18 UNL     1      18.077   3.487  34.968  0.00  0.00    +0.095 C 
ENDBRANCH  18  23
ENDBRANCH  17  18
ENDBRANCH  13  17
TORSDOF 4
ENDMDL
MODEL 9
REMARK VINA RESULT:    -3.916     10.933     14.470
REMARK INTER + INTRA:          -6.139
REMARK INTER:                  -4.643
REMARK INTRA:                  -1.496
REMARK UNBOUND:                -1.307
REMARK  Name = /home/qwerty/github/datacon2025hack/step_04_hit_selection/docking/ligands/lig_54.pdb
REMARK  7 active torsions:
REMARK  status: ('A' for Active; 'I' for Inactive)
REMARK    1  A    between atoms: C1_1  and  C2_2
REMARK    2  A    between atoms: C2_2  and  C3_3
REMARK    3  A    between atoms: C2_2  and  C4_4
REMARK    4  A    between atoms: C9_12  and  C10_13
REMARK    5  A    between atoms: N4_16  and  C13_17
REMARK    6  A    between atoms: C13_17  and  C14_18
REMARK    7  A    between atoms: C14_18  and  N5_19
REMARK                            x       y       z     vdW  Elec       q    Type
REMARK                         _______ _______ _______ _____ _____    ______ ____
ROOT
ATOM      1  C4  UNL     1      16.213  -1.084  25.079  0.00  0.00    +0.137 A 
ATOM      2  N1  UNL     1      17.316  -1.848  25.216  0.00  0.00    -0.132 NA
ATOM      3  N2  UNL     1      18.367  -1.049  25.142  0.00  0.00    -0.113 NA
ATOM      4  C5  UNL     1      17.896   0.196  24.967  0.00  0.00    +0.220 A 
ATOM      5  N3  UNL     1      18.728   1.352  25.173  0.00  0.00    -0.300 N 
ATOM      6  C6  UNL     1      19.954   1.459  24.350  0.00  0.00    +0.108 C 
ATOM      7  C7  UNL     1      21.006   2.437  24.910  0.00  0.00    +0.019 C 
ATOM      8  C8  UNL     1      21.633   2.041  26.271  0.00  0.00    +0.005 C 
ATOM      9  C9  UNL     1      20.846   1.009  27.114  0.00  0.00    -0.013 C 
ATOM     10  C10 UNL     1      21.668   0.614  28.350  0.00  0.00    +0.007 C 
ATOM     11  C11 UNL     1      19.453   1.512  27.556  0.00  0.00    +0.022 C 
ATOM     12  C12 UNL     1      18.579   2.095  26.436  0.00  0.00    +0.108 C 
ATOM     13  N4  UNL     1      16.540   0.216  24.866  0.00  0.00    -0.297 N 
ENDROOT
BRANCH   1  15
ATOM     14  C1  UNL     1      14.710  -3.085  25.226  0.00  0.00    +0.015 C 
ATOM     15  C2  UNL     1      14.850  -1.585  25.496  0.00  0.00    +0.051 C 
ATOM     16  C3  UNL     1      14.613  -1.277  26.977  0.00  0.00    +0.015 C 
ENDBRANCH   1  15
BRANCH  13  17
ATOM     17  C13 UNL     1      15.645   1.388  24.773  0.00  0.00    +0.148 C 
BRANCH  17  18
ATOM     18  C14 UNL     1      15.160   1.786  23.326  0.00  0.00    +0.040 C 
ATOM     19  C19 UNL     1      14.820   0.584  22.412  0.00  0.00    +0.024 C 
ATOM     20  C20 UNL     1      13.348   0.228  22.602  0.00  0.00    +0.002 C 
ATOM     21  C21 UNL     1      12.732   1.351  23.415  0.00  0.00    +0.002 C 
ATOM     22  C22 UNL     1      13.773   2.456  23.463  0.00  0.00    +0.024 C 
BRANCH  18  23
ATOM     23  N5  UNL     1      16.091   2.720  22.621  0.00  0.00    -0.293 NA
ATOM     24  C15 UNL     1      16.706   3.776  23.453  0.00  0.00    +0.095 C 
ATOM     25  C16 UNL     1      18.026   4.217  22.825  0.00  0.00    +0.084 C 
ATOM     26  S1  UNL     1      17.745   5.044  21.213  0.00  0.00    -0.158 S 
ATOM     27  C17 UNL     1      16.788   3.674  20.467  0.00  0.00    +0.084 C 
ATOM     28  C18 UNL     1      15.599   3.277  21.342  0.00  0.00    +0.095 C 
ENDBRANCH  18  23
ENDBRANCH  17  18
ENDBRANCH  13  17
TORSDOF 4
ENDMDL
