MODEL 1
REMARK VINA RESULT:    -7.573      0.000      0.000
REMARK INTER + INTRA:         -10.396
REMARK INTER:                  -9.787
REMARK INTRA:                  -0.609
REMARK UNBOUND:                -0.609
REMARK  Name = /home/qwerty/github/datacon2025hack/step_04_hit_selection/docking/ligands/lig_749.pdb
REMARK  6 active torsions:
REMARK  status: ('A' for Active; 'I' for Inactive)
REMARK    1  A    between atoms: C1_1  and  C2_2
REMARK    2  A    between atoms: C2_2  and  N1_3
REMARK    3  A    between atoms: C2_2  and  C13_17
REMARK    4  A    between atoms: C3_4  and  C4_6
REMARK    5  A    between atoms: C7_9  and  N2_10
REMARK    6  A    between atoms: C17_22  and  C18_23
REMARK                            x       y       z     vdW  Elec       q    Type
REMARK                         _______ _______ _______ _____ _____    ______ ____
ROOT
ATOM      1  C1  UNL     1      10.909  10.041  37.156  0.00  0.00    +0.033 C 
ATOM      2  C2  UNL     1      11.895  11.213  37.117  0.00  0.00    +0.100 C 
ENDROOT
BRANCH   2   3
ATOM      3  C13 UNL     1      11.558  12.138  35.968  0.00  0.00    -0.025 A 
ATOM      4  C14 UNL     1      10.915  13.384  36.208  0.00  0.00    +0.007 A 
ATOM      5  C15 UNL     1      10.611  14.252  35.143  0.00  0.00    +0.028 A 
ATOM      6  C16 UNL     1      10.968  13.848  33.861  0.00  0.00    +0.066 A 
ATOM      7  N4  UNL     1      10.786  14.497  32.704  0.00  0.00    -0.338 N 
ATOM      8  C17 UNL     1      11.318  13.662  31.772  0.00  0.00    +0.141 A 
ATOM      9  N6  UNL     1      11.826  12.517  32.305  0.00  0.00    -0.228 NA
ATOM     10  C23 UNL     1      11.591  12.664  33.621  0.00  0.00    +0.090 A 
ATOM     11  C24 UNL     1      11.909  11.777  34.646  0.00  0.00    +0.035 A 
ATOM     12  H19 UNL     1      10.333  15.428  32.577  0.00  0.00    +0.167 HD
BRANCH   8  13
ATOM     13  C18 UNL     1      11.352  13.947  30.314  0.00  0.00    +0.035 A 
ATOM     14  C19 UNL     1      10.274  13.565  29.496  0.00  0.00    +0.014 A 
ATOM     15  C20 UNL     1      10.301  13.830  28.126  0.00  0.00    +0.020 A 
ATOM     16  C21 UNL     1      11.408  14.475  27.576  0.00  0.00    +0.111 A 
ATOM     17  N5  UNL     1      12.446  14.839  28.372  0.00  0.00    -0.263 NA
ATOM     18  C22 UNL     1      12.446  14.595  29.709  0.00  0.00    +0.122 A 
ENDBRANCH   8  13
ENDBRANCH   2   3
BRANCH   2  19
ATOM     19  N1  UNL     1      13.274  10.728  36.993  0.00  0.00    -0.305 N 
ATOM     20  C3  UNL     1      14.396  11.626  37.005  0.00  0.00    +0.246 C 
ATOM     21  O1  UNL     1      14.229  12.826  37.357  0.00  0.00    -0.270 OA
ATOM     22  H5  UNL     1      13.447   9.700  36.929  0.00  0.00    +0.150 HD
BRANCH  20  23
ATOM     23  C4  UNL     1      15.750  11.165  36.619  0.00  0.00    +0.055 A 
ATOM     24  C5  UNL     1      16.602  10.587  37.573  0.00  0.00    +0.018 A 
ATOM     25  C6  UNL     1      17.880  10.160  37.213  0.00  0.00    +0.044 A 
ATOM     26  C7  UNL     1      18.316  10.321  35.888  0.00  0.00    +0.121 A 
ATOM     27  N3  UNL     1      17.479  10.897  34.981  0.00  0.00    -0.240 NA
ATOM     28  C12 UNL     1      16.229  11.317  35.307  0.00  0.00    +0.126 A 
BRANCH  26  29
ATOM     29  N2  UNL     1      19.629   9.894  35.472  0.00  0.00    -0.315 N 
ATOM     30  C8  UNL     1      20.287  10.325  34.249  0.00  0.00    +0.106 C 
ATOM     31  C9  UNL     1      21.565   9.500  34.156  0.00  0.00    +0.020 C 
ATOM     32  C10 UNL     1      21.789   8.916  35.548  0.00  0.00    +0.020 C 
ATOM     33  C11 UNL     1      20.436   8.967  36.244  0.00  0.00    +0.106 C 
ENDBRANCH  26  29
ENDBRANCH  20  23
ENDBRANCH   2  19
TORSDOF 5
ENDMDL
MODEL 2
REMARK VINA RESULT:    -7.412      9.847     13.408
REMARK INTER + INTRA:         -10.188
REMARK INTER:                  -9.278
REMARK INTRA:                  -0.910
REMARK UNBOUND:                -0.609
REMARK  Name = /home/qwerty/github/datacon2025hack/step_04_hit_selection/docking/ligands/lig_749.pdb
REMARK  6 active torsions:
REMARK  status: ('A' for Active; 'I' for Inactive)
REMARK    1  A    between atoms: C1_1  and  C2_2
REMARK    2  A    between atoms: C2_2  and  N1_3
REMARK    3  A    between atoms: C2_2  and  C13_17
REMARK    4  A    between atoms: C3_4  and  C4_6
REMARK    5  A    between atoms: C7_9  and  N2_10
REMARK    6  A    between atoms: C17_22  and  C18_23
REMARK                            x       y       z     vdW  Elec       q    Type
REMARK                         _______ _______ _______ _____ _____    ______ ____
ROOT
ATOM      1  C1  UNL     1      24.433   0.475  29.236  0.00  0.00    +0.033 C 
ATOM      2  C2  UNL     1      23.005   0.905  29.588  0.00  0.00    +0.100 C 
ENDROOT
BRANCH   2   3
ATOM      3  C13 UNL     1      22.288   1.397  28.349  0.00  0.00    -0.025 A 
ATOM      4  C14 UNL     1      21.014   0.872  27.996  0.00  0.00    +0.007 A 
ATOM      5  C15 UNL     1      20.339   1.335  26.851  0.00  0.00    +0.028 A 
ATOM      6  C16 UNL     1      20.961   2.321  26.092  0.00  0.00    +0.066 A 
ATOM      7  N4  UNL     1      20.519   2.912  24.975  0.00  0.00    -0.338 N 
ATOM      8  C17 UNL     1      21.507   3.791  24.655  0.00  0.00    +0.141 A 
ATOM      9  N6  UNL     1      22.547   3.770  25.533  0.00  0.00    -0.228 NA
ATOM     10  C23 UNL     1      22.174   2.836  26.425  0.00  0.00    +0.090 A 
ATOM     11  C24 UNL     1      22.874   2.405  27.549  0.00  0.00    +0.035 A 
ATOM     12  H19 UNL     1      19.620   2.719  24.482  0.00  0.00    +0.167 HD
BRANCH   8  13
ATOM     13  C18 UNL     1      21.477   4.691  23.474  0.00  0.00    +0.035 A 
ATOM     14  C19 UNL     1      20.667   4.376  22.368  0.00  0.00    +0.014 A 
ATOM     15  C20 UNL     1      20.636   5.218  21.255  0.00  0.00    +0.020 A 
ATOM     16  C21 UNL     1      21.417   6.373  21.250  0.00  0.00    +0.111 A 
ATOM     17  N5  UNL     1      22.197   6.670  22.320  0.00  0.00    -0.263 NA
ATOM     18  C22 UNL     1      22.247   5.869  23.418  0.00  0.00    +0.122 A 
ENDBRANCH   8  13
ENDBRANCH   2   3
BRANCH   2  19
ATOM     19  N1  UNL     1      23.017   1.951  30.618  0.00  0.00    -0.305 N 
ATOM     20  C3  UNL     1      21.926   2.118  31.539  0.00  0.00    +0.246 C 
ATOM     21  O1  UNL     1      21.044   1.221  31.629  0.00  0.00    -0.270 OA
ATOM     22  H5  UNL     1      23.856   2.568  30.706  0.00  0.00    +0.150 HD
BRANCH  20  23
ATOM     23  C4  UNL     1      21.825   3.325  32.393  0.00  0.00    +0.055 A 
ATOM     24  C5  UNL     1      22.875   4.254  32.436  0.00  0.00    +0.018 A 
ATOM     25  C6  UNL     1      22.784   5.386  33.247  0.00  0.00    +0.044 A 
ATOM     26  C7  UNL     1      21.637   5.586  34.031  0.00  0.00    +0.121 A 
ATOM     27  N3  UNL     1      20.634   4.665  33.984  0.00  0.00    -0.240 NA
ATOM     28  C12 UNL     1      20.699   3.557  33.200  0.00  0.00    +0.126 A 
BRANCH  26  29
ATOM     29  N2  UNL     1      21.500   6.742  34.882  0.00  0.00    -0.315 N 
ATOM     30  C8  UNL     1      21.970   8.075  34.544  0.00  0.00    +0.106 C 
ATOM     31  C9  UNL     1      21.753   8.918  35.795  0.00  0.00    +0.020 C 
ATOM     32  C10 UNL     1      20.784   8.127  36.670  0.00  0.00    +0.020 C 
ATOM     33  C11 UNL     1      20.871   6.685  36.189  0.00  0.00    +0.106 C 
ENDBRANCH  26  29
ENDBRANCH  20  23
ENDBRANCH   2  19
TORSDOF 5
ENDMDL
MODEL 3
REMARK VINA RESULT:    -7.324     10.240     13.671
REMARK INTER + INTRA:         -10.074
REMARK INTER:                  -9.162
REMARK INTRA:                  -0.912
REMARK UNBOUND:                -0.609
REMARK  Name = /home/qwerty/github/datacon2025hack/step_04_hit_selection/docking/ligands/lig_749.pdb
REMARK  6 active torsions:
REMARK  status: ('A' for Active; 'I' for Inactive)
REMARK    1  A    between atoms: C1_1  and  C2_2
REMARK    2  A    between atoms: C2_2  and  N1_3
REMARK    3  A    between atoms: C2_2  and  C13_17
REMARK    4  A    between atoms: C3_4  and  C4_6
REMARK    5  A    between atoms: C7_9  and  N2_10
REMARK    6  A    between atoms: C17_22  and  C18_23
REMARK                            x       y       z     vdW  Elec       q    Type
REMARK                         _______ _______ _______ _____ _____    ______ ____
ROOT
ATOM      1  C1  UNL     1      24.485   0.522  29.237  0.00  0.00    +0.033 C 
ATOM      2  C2  UNL     1      23.026   0.869  29.551  0.00  0.00    +0.100 C 
ENDROOT
BRANCH   2   3
ATOM      3  C13 UNL     1      22.324   1.349  28.298  0.00  0.00    -0.025 A 
ATOM      4  C14 UNL     1      22.790   2.501  27.606  0.00  0.00    +0.007 A 
ATOM      5  C15 UNL     1      22.147   2.943  26.435  0.00  0.00    +0.028 A 
ATOM      6  C16 UNL     1      21.054   2.210  25.984  0.00  0.00    +0.066 A 
ATOM      7  N4  UNL     1      20.292   2.433  24.907  0.00  0.00    -0.338 N 
ATOM      8  C17 UNL     1      19.378   1.426  24.936  0.00  0.00    +0.141 A 
ATOM      9  N6  UNL     1      19.544   0.584  25.993  0.00  0.00    -0.228 NA
ATOM     10  C23 UNL     1      20.606   1.103  26.633  0.00  0.00    +0.090 A 
ATOM     11  C24 UNL     1      21.213   0.633  27.794  0.00  0.00    +0.035 A 
ATOM     12  H19 UNL     1      20.396   3.212  24.221  0.00  0.00    +0.167 HD
BRANCH   8  13
ATOM     13  C18 UNL     1      18.300   1.244  23.931  0.00  0.00    +0.035 A 
ATOM     14  C19 UNL     1      17.811  -0.044  23.648  0.00  0.00    +0.014 A 
ATOM     15  C20 UNL     1      16.798  -0.221  22.704  0.00  0.00    +0.020 A 
ATOM     16  C21 UNL     1      16.277   0.891  22.043  0.00  0.00    +0.111 A 
ATOM     17  N5  UNL     1      16.755   2.131  22.321  0.00  0.00    -0.263 NA
ATOM     18  C22 UNL     1      17.741   2.333  23.236  0.00  0.00    +0.122 A 
ENDBRANCH   8  13
ENDBRANCH   2   3
BRANCH   2  19
ATOM     19  N1  UNL     1      22.950   1.891  30.601  0.00  0.00    -0.305 N 
ATOM     20  C3  UNL     1      21.825   1.978  31.491  0.00  0.00    +0.246 C 
ATOM     21  O1  UNL     1      20.993   1.031  31.537  0.00  0.00    -0.270 OA
ATOM     22  H5  UNL     1      23.750   2.552  30.726  0.00  0.00    +0.150 HD
BRANCH  20  23
ATOM     23  C4  UNL     1      21.632   3.159  32.366  0.00  0.00    +0.055 A 
ATOM     24  C5  UNL     1      22.551   4.219  32.341  0.00  0.00    +0.018 A 
ATOM     25  C6  UNL     1      22.374   5.327  33.171  0.00  0.00    +0.044 A 
ATOM     26  C7  UNL     1      21.274   5.372  34.041  0.00  0.00    +0.121 A 
ATOM     27  N3  UNL     1      20.400   4.326  34.059  0.00  0.00    -0.240 NA
ATOM     28  C12 UNL     1      20.550   3.239  33.258  0.00  0.00    +0.126 A 
BRANCH  26  29
ATOM     29  N2  UNL     1      21.052   6.497  34.915  0.00  0.00    -0.315 N 
ATOM     30  C8  UNL     1      20.058   6.534  35.976  0.00  0.00    +0.106 C 
ATOM     31  C9  UNL     1      20.081   7.960  36.513  0.00  0.00    +0.020 C 
ATOM     32  C10 UNL     1      21.383   8.576  36.008  0.00  0.00    +0.020 C 
ATOM     33  C11 UNL     1      21.810   7.731  34.815  0.00  0.00    +0.106 C 
ENDBRANCH  26  29
ENDBRANCH  20  23
ENDBRANCH   2  19
TORSDOF 5
ENDMDL
MODEL 4
REMARK VINA RESULT:    -7.323     10.919     15.690
REMARK INTER + INTRA:         -10.072
REMARK INTER:                  -9.164
REMARK INTRA:                  -0.908
REMARK UNBOUND:                -0.609
REMARK  Name = /home/qwerty/github/datacon2025hack/step_04_hit_selection/docking/ligands/lig_749.pdb
REMARK  6 active torsions:
REMARK  status: ('A' for Active; 'I' for Inactive)
REMARK    1  A    between atoms: C1_1  and  C2_2
REMARK    2  A    between atoms: C2_2  and  N1_3
REMARK    3  A    between atoms: C2_2  and  C13_17
REMARK    4  A    between atoms: C3_4  and  C4_6
REMARK    5  A    between atoms: C7_9  and  N2_10
REMARK    6  A    between atoms: C17_22  and  C18_23
REMARK                            x       y       z     vdW  Elec       q    Type
REMARK                         _______ _______ _______ _____ _____    ______ ____
ROOT
ATOM      1  C1  UNL     1      23.209  -1.091  28.922  0.00  0.00    +0.033 C 
ATOM      2  C2  UNL     1      22.513   0.234  28.594  0.00  0.00    +0.100 C 
ENDROOT
BRANCH   2   3
ATOM      3  C13 UNL     1      21.967   0.862  29.858  0.00  0.00    -0.025 A 
ATOM      4  C14 UNL     1      20.934   0.219  30.596  0.00  0.00    +0.007 A 
ATOM      5  C15 UNL     1      20.433   0.794  31.779  0.00  0.00    +0.028 A 
ATOM      6  C16 UNL     1      20.987   2.000  32.194  0.00  0.00    +0.066 A 
ATOM      7  N4  UNL     1      20.678   2.727  33.274  0.00  0.00    -0.338 N 
ATOM      8  C17 UNL     1      21.516   3.796  33.201  0.00  0.00    +0.141 A 
ATOM      9  N6  UNL     1      22.336   3.760  32.115  0.00  0.00    -0.228 NA
ATOM     10  C23 UNL     1      21.980   2.619  31.502  0.00  0.00    +0.090 A 
ATOM     11  C24 UNL     1      22.504   2.084  30.328  0.00  0.00    +0.035 A 
ATOM     12  H19 UNL     1      19.952   2.504  33.990  0.00  0.00    +0.167 HD
BRANCH   8  13
ATOM     13  C18 UNL     1      21.550   4.903  34.191  0.00  0.00    +0.035 A 
ATOM     14  C19 UNL     1      22.783   5.401  34.649  0.00  0.00    +0.014 A 
ATOM     15  C20 UNL     1      22.821   6.440  35.580  0.00  0.00    +0.020 A 
ATOM     16  C21 UNL     1      21.625   6.979  36.053  0.00  0.00    +0.111 A 
ATOM     17  N5  UNL     1      20.438   6.491  35.608  0.00  0.00    -0.263 NA
ATOM     18  C22 UNL     1      20.371   5.480  34.701  0.00  0.00    +0.122 A 
ENDBRANCH   8  13
ENDBRANCH   2   3
BRANCH   2  19
ATOM     19  N1  UNL     1      21.434   0.027  27.621  0.00  0.00    -0.305 N 
ATOM     20  C3  UNL     1      20.968   1.089  26.771  0.00  0.00    +0.246 C 
ATOM     21  O1  UNL     1      21.637   2.155  26.683  0.00  0.00    -0.270 OA
ATOM     22  H5  UNL     1      21.017  -0.925  27.520  0.00  0.00    +0.150 HD
BRANCH  20  23
ATOM     23  C4  UNL     1      19.718   0.949  25.988  0.00  0.00    +0.055 A 
ATOM     24  C5  UNL     1      18.477   0.881  26.639  0.00  0.00    +0.018 A 
ATOM     25  C6  UNL     1      17.300   0.740  25.902  0.00  0.00    +0.044 A 
ATOM     26  C7  UNL     1      17.365   0.656  24.503  0.00  0.00    +0.121 A 
ATOM     27  N3  UNL     1      18.581   0.710  23.892  0.00  0.00    -0.240 NA
ATOM     28  C12 UNL     1      19.740   0.851  24.587  0.00  0.00    +0.126 A 
BRANCH  26  29
ATOM     29  N2  UNL     1      16.174   0.511  23.702  0.00  0.00    -0.315 N 
ATOM     30  C8  UNL     1      14.855   0.209  24.233  0.00  0.00    +0.106 C 
ATOM     31  C9  UNL     1      13.961  -0.004  23.018  0.00  0.00    +0.020 C 
ATOM     32  C10 UNL     1      14.716   0.589  21.832  0.00  0.00    +0.020 C 
ATOM     33  C11 UNL     1      16.177   0.649  22.257  0.00  0.00    +0.106 C 
ENDBRANCH  26  29
ENDBRANCH  20  23
ENDBRANCH   2  19
TORSDOF 5
ENDMDL
MODEL 5
REMARK VINA RESULT:    -7.298     11.822     15.921
REMARK INTER + INTRA:         -10.040
REMARK INTER:                  -9.099
REMARK INTRA:                  -0.942
REMARK UNBOUND:                -0.609
REMARK  Name = /home/qwerty/github/datacon2025hack/step_04_hit_selection/docking/ligands/lig_749.pdb
REMARK  6 active torsions:
REMARK  status: ('A' for Active; 'I' for Inactive)
REMARK    1  A    between atoms: C1_1  and  C2_2
REMARK    2  A    between atoms: C2_2  and  N1_3
REMARK    3  A    between atoms: C2_2  and  C13_17
REMARK    4  A    between atoms: C3_4  and  C4_6
REMARK    5  A    between atoms: C7_9  and  N2_10
REMARK    6  A    between atoms: C17_22  and  C18_23
REMARK                            x       y       z     vdW  Elec       q    Type
REMARK                         _______ _______ _______ _____ _____    ______ ____
ROOT
ATOM      1  C1  UNL     1      23.182  -1.129  28.910  0.00  0.00    +0.033 C 
ATOM      2  C2  UNL     1      22.487   0.200  28.595  0.00  0.00    +0.100 C 
ENDROOT
BRANCH   2   3
ATOM      3  C13 UNL     1      21.946   0.818  29.866  0.00  0.00    -0.025 A 
ATOM      4  C14 UNL     1      22.543   1.990  30.410  0.00  0.00    +0.007 A 
ATOM      5  C15 UNL     1      22.035   2.575  31.584  0.00  0.00    +0.028 A 
ATOM      6  C16 UNL     1      20.934   1.970  32.181  0.00  0.00    +0.066 A 
ATOM      7  N4  UNL     1      20.282   2.340  33.290  0.00  0.00    -0.338 N 
ATOM      8  C17 UNL     1      19.296   1.412  33.417  0.00  0.00    +0.141 A 
ATOM      9  N6  UNL     1      19.310   0.478  32.427  0.00  0.00    -0.228 NA
ATOM     10  C23 UNL     1      20.350   0.856  31.665  0.00  0.00    +0.090 A 
ATOM     11  C24 UNL     1      20.821   0.247  30.505  0.00  0.00    +0.035 A 
ATOM     12  H19 UNL     1      20.505   3.157  33.900  0.00  0.00    +0.167 HD
BRANCH   8  13
ATOM     13  C18 UNL     1      18.296   1.397  34.515  0.00  0.00    +0.035 A 
ATOM     14  C19 UNL     1      18.384   2.334  35.560  0.00  0.00    +0.014 A 
ATOM     15  C20 UNL     1      17.448   2.324  36.596  0.00  0.00    +0.020 A 
ATOM     16  C21 UNL     1      16.426   1.375  36.585  0.00  0.00    +0.111 A 
ATOM     17  N5  UNL     1      16.349   0.472  35.573  0.00  0.00    -0.263 NA
ATOM     18  C22 UNL     1      17.247   0.459  34.552  0.00  0.00    +0.122 A 
ENDBRANCH   8  13
ENDBRANCH   2   3
BRANCH   2  19
ATOM     19  N1  UNL     1      21.405   0.002  27.624  0.00  0.00    -0.305 N 
ATOM     20  C3  UNL     1      20.969   1.058  26.752  0.00  0.00    +0.246 C 
ATOM     21  O1  UNL     1      21.666   2.105  26.645  0.00  0.00    -0.270 OA
ATOM     22  H5  UNL     1      20.963  -0.941  27.540  0.00  0.00    +0.150 HD
BRANCH  20  23
ATOM     23  C4  UNL     1      19.717   0.936  25.969  0.00  0.00    +0.055 A 
ATOM     24  C5  UNL     1      18.473   0.911  26.618  0.00  0.00    +0.018 A 
ATOM     25  C6  UNL     1      17.294   0.787  25.882  0.00  0.00    +0.044 A 
ATOM     26  C7  UNL     1      17.359   0.676  24.484  0.00  0.00    +0.121 A 
ATOM     27  N3  UNL     1      18.578   0.689  23.875  0.00  0.00    -0.240 NA
ATOM     28  C12 UNL     1      19.738   0.812  24.570  0.00  0.00    +0.126 A 
BRANCH  26  29
ATOM     29  N2  UNL     1      16.167   0.547  23.684  0.00  0.00    -0.315 N 
ATOM     30  C8  UNL     1      14.845   0.257  24.215  0.00  0.00    +0.106 C 
ATOM     31  C9  UNL     1      13.947   0.058  22.999  0.00  0.00    +0.020 C 
ATOM     32  C10 UNL     1      14.709   0.648  21.815  0.00  0.00    +0.020 C 
ATOM     33  C11 UNL     1      16.170   0.691  22.239  0.00  0.00    +0.106 C 
ENDBRANCH  26  29
ENDBRANCH  20  23
ENDBRANCH   2  19
TORSDOF 5
ENDMDL
MODEL 6
REMARK VINA RESULT:    -7.206      2.139      9.809
REMARK INTER + INTRA:          -9.921
REMARK INTER:                  -9.051
REMARK INTRA:                  -0.870
REMARK UNBOUND:                -0.609
REMARK  Name = /home/qwerty/github/datacon2025hack/step_04_hit_selection/docking/ligands/lig_749.pdb
REMARK  6 active torsions:
REMARK  status: ('A' for Active; 'I' for Inactive)
REMARK    1  A    between atoms: C1_1  and  C2_2
REMARK    2  A    between atoms: C2_2  and  N1_3
REMARK    3  A    between atoms: C2_2  and  C13_17
REMARK    4  A    between atoms: C3_4  and  C4_6
REMARK    5  A    between atoms: C7_9  and  N2_10
REMARK    6  A    between atoms: C17_22  and  C18_23
REMARK                            x       y       z     vdW  Elec       q    Type
REMARK                         _______ _______ _______ _____ _____    ______ ____
ROOT
ATOM      1  C1  UNL     1      15.359  15.945  36.782  0.00  0.00    +0.033 C 
ATOM      2  C2  UNL     1      14.961  14.529  36.351  0.00  0.00    +0.100 C 
ENDROOT
BRANCH   2   3
ATOM      3  C13 UNL     1      16.194  13.725  36.000  0.00  0.00    -0.025 A 
ATOM      4  C14 UNL     1      17.063  14.155  34.959  0.00  0.00    +0.007 A 
ATOM      5  C15 UNL     1      18.218  13.416  34.638  0.00  0.00    +0.028 A 
ATOM      6  C16 UNL     1      18.473  12.266  35.377  0.00  0.00    +0.066 A 
ATOM      7  N4  UNL     1      19.496  11.412  35.257  0.00  0.00    -0.338 N 
ATOM      8  C17 UNL     1      19.259  10.478  36.217  0.00  0.00    +0.141 A 
ATOM      9  N6  UNL     1      18.125  10.720  36.931  0.00  0.00    -0.228 NA
ATOM     10  C23 UNL     1      17.653  11.851  36.379  0.00  0.00    +0.090 A 
ATOM     11  C24 UNL     1      16.503  12.553  36.729  0.00  0.00    +0.035 A 
ATOM     12  H19 UNL     1      20.280  11.471  34.572  0.00  0.00    +0.167 HD
BRANCH   8  13
ATOM     13  C18 UNL     1      20.132   9.304  36.478  0.00  0.00    +0.035 A 
ATOM     14  C19 UNL     1      19.712   8.298  37.366  0.00  0.00    +0.014 A 
ATOM     15  C20 UNL     1      20.528   7.193  37.615  0.00  0.00    +0.020 A 
ATOM     16  C21 UNL     1      21.765   7.099  36.977  0.00  0.00    +0.111 A 
ATOM     17  N5  UNL     1      22.164   8.076  36.123  0.00  0.00    -0.263 NA
ATOM     18  C22 UNL     1      21.389   9.162  35.861  0.00  0.00    +0.122 A 
ENDBRANCH   8  13
ENDBRANCH   2   3
BRANCH   2  19
ATOM     19  N1  UNL     1      14.040  14.575  35.210  0.00  0.00    -0.305 N 
ATOM     20  C3  UNL     1      13.210  13.454  34.862  0.00  0.00    +0.246 C 
ATOM     21  O1  UNL     1      13.088  12.495  35.673  0.00  0.00    -0.270 OA
ATOM     22  H5  UNL     1      13.961  15.457  34.655  0.00  0.00    +0.150 HD
BRANCH  20  23
ATOM     23  C4  UNL     1      12.487  13.409  33.569  0.00  0.00    +0.055 A 
ATOM     24  C5  UNL     1      12.423  14.548  32.753  0.00  0.00    +0.018 A 
ATOM     25  C6  UNL     1      11.734  14.509  31.539  0.00  0.00    +0.044 A 
ATOM     26  C7  UNL     1      11.094  13.324  31.143  0.00  0.00    +0.121 A 
ATOM     27  N3  UNL     1      11.158  12.234  31.958  0.00  0.00    -0.240 NA
ATOM     28  C12 UNL     1      11.825  12.246  33.141  0.00  0.00    +0.126 A 
BRANCH  26  29
ATOM     29  N2  UNL     1      10.373  13.239  29.898  0.00  0.00    -0.315 N 
ATOM     30  C8  UNL     1       9.199  12.409  29.680  0.00  0.00    +0.106 C 
ATOM     31  C9  UNL     1       8.886  12.520  28.193  0.00  0.00    +0.020 C 
ATOM     32  C10 UNL     1       9.655  13.741  27.694  0.00  0.00    +0.020 C 
ATOM     33  C11 UNL     1      10.758  13.985  28.714  0.00  0.00    +0.106 C 
ENDBRANCH  26  29
ENDBRANCH  20  23
ENDBRANCH   2  19
TORSDOF 5
ENDMDL
MODEL 7
REMARK VINA RESULT:    -7.113     11.444     15.830
REMARK INTER + INTRA:          -9.801
REMARK INTER:                  -8.940
REMARK INTRA:                  -0.862
REMARK UNBOUND:                -0.609
REMARK  Name = /home/qwerty/github/datacon2025hack/step_04_hit_selection/docking/ligands/lig_749.pdb
REMARK  6 active torsions:
REMARK  status: ('A' for Active; 'I' for Inactive)
REMARK    1  A    between atoms: C1_1  and  C2_2
REMARK    2  A    between atoms: C2_2  and  N1_3
REMARK    3  A    between atoms: C2_2  and  C13_17
REMARK    4  A    between atoms: C3_4  and  C4_6
REMARK    5  A    between atoms: C7_9  and  N2_10
REMARK    6  A    between atoms: C17_22  and  C18_23
REMARK                            x       y       z     vdW  Elec       q    Type
REMARK                         _______ _______ _______ _____ _____    ______ ____
ROOT
ATOM      1  C1  UNL     1       7.538   4.789  20.439  0.00  0.00    +0.033 C 
ATOM      2  C2  UNL     1       8.560   5.891  20.737  0.00  0.00    +0.100 C 
ENDROOT
BRANCH   2   3
ATOM      3  C13 UNL     1       9.960   5.316  20.737  0.00  0.00    -0.025 A 
ATOM      4  C14 UNL     1      11.067   6.110  20.325  0.00  0.00    +0.007 A 
ATOM      5  C15 UNL     1      12.372   5.583  20.335  0.00  0.00    +0.028 A 
ATOM      6  C16 UNL     1      12.532   4.270  20.767  0.00  0.00    +0.066 A 
ATOM      7  N4  UNL     1      13.663   3.561  20.865  0.00  0.00    -0.338 N 
ATOM      8  C17 UNL     1      13.254   2.353  21.338  0.00  0.00    +0.141 A 
ATOM      9  N6  UNL     1      11.909   2.285  21.539  0.00  0.00    -0.228 NA
ATOM     10  C23 UNL     1      11.484   3.506  21.171  0.00  0.00    +0.090 A 
ATOM     11  C24 UNL     1      10.178   3.990  21.177  0.00  0.00    +0.035 A 
ATOM     12  H19 UNL     1      14.625   3.885  20.622  0.00  0.00    +0.167 HD
BRANCH   8  13
ATOM     13  C18 UNL     1      14.161   1.210  21.613  0.00  0.00    +0.035 A 
ATOM     14  C19 UNL     1      15.310   1.017  20.826  0.00  0.00    +0.014 A 
ATOM     15  C20 UNL     1      16.166  -0.056  21.079  0.00  0.00    +0.020 A 
ATOM     16  C21 UNL     1      15.869  -0.937  22.118  0.00  0.00    +0.111 A 
ATOM     17  N5  UNL     1      14.756  -0.746  22.873  0.00  0.00    -0.263 NA
ATOM     18  C22 UNL     1      13.906   0.291  22.649  0.00  0.00    +0.122 A 
ENDBRANCH   8  13
ENDBRANCH   2   3
BRANCH   2  19
ATOM     19  N1  UNL     1       8.272   6.531  22.026  0.00  0.00    -0.305 N 
ATOM     20  C3  UNL     1       8.334   7.958  22.192  0.00  0.00    +0.246 C 
ATOM     21  O1  UNL     1       8.408   8.701  21.175  0.00  0.00    -0.270 OA
ATOM     22  H5  UNL     1       7.981   5.937  22.834  0.00  0.00    +0.150 HD
BRANCH  20  23
ATOM     23  C4  UNL     1       8.302   8.573  23.540  0.00  0.00    +0.055 A 
ATOM     24  C5  UNL     1       8.709   7.839  24.665  0.00  0.00    +0.018 A 
ATOM     25  C6  UNL     1       8.670   8.414  25.935  0.00  0.00    +0.044 A 
ATOM     26  C7  UNL     1       8.211   9.732  26.085  0.00  0.00    +0.121 A 
ATOM     27  N3  UNL     1       7.807  10.422  24.982  0.00  0.00    -0.240 NA
ATOM     28  C12 UNL     1       7.839   9.884  23.735  0.00  0.00    +0.126 A 
BRANCH  26  29
ATOM     29  N2  UNL     1       8.155  10.366  27.379  0.00  0.00    -0.315 N 
ATOM     30  C8  UNL     1       8.671  11.694  27.669  0.00  0.00    +0.106 C 
ATOM     31  C9  UNL     1       8.536  11.868  29.177  0.00  0.00    +0.020 C 
ATOM     32  C10 UNL     1       7.565  10.784  29.638  0.00  0.00    +0.020 C 
ATOM     33  C11 UNL     1       7.571   9.726  28.544  0.00  0.00    +0.106 C 
ENDBRANCH  26  29
ENDBRANCH  20  23
ENDBRANCH   2  19
TORSDOF 5
ENDMDL
MODEL 8
REMARK VINA RESULT:    -7.083     11.660     14.940
REMARK INTER + INTRA:          -9.763
REMARK INTER:                  -8.895
REMARK INTRA:                  -0.868
REMARK UNBOUND:                -0.609
REMARK  Name = /home/qwerty/github/datacon2025hack/step_04_hit_selection/docking/ligands/lig_749.pdb
REMARK  6 active torsions:
REMARK  status: ('A' for Active; 'I' for Inactive)
REMARK    1  A    between atoms: C1_1  and  C2_2
REMARK    2  A    between atoms: C2_2  and  N1_3
REMARK    3  A    between atoms: C2_2  and  C13_17
REMARK    4  A    between atoms: C3_4  and  C4_6
REMARK    5  A    between atoms: C7_9  and  N2_10
REMARK    6  A    between atoms: C17_22  and  C18_23
REMARK                            x       y       z     vdW  Elec       q    Type
REMARK                         _______ _______ _______ _____ _____    ______ ____
ROOT
ATOM      1  C1  UNL     1      23.824  17.068  20.423  0.00  0.00    +0.033 C 
ATOM      2  C2  UNL     1      23.558  15.772  21.196  0.00  0.00    +0.100 C 
ENDROOT
BRANCH   2   3
ATOM      3  C13 UNL     1      22.411  15.014  20.564  0.00  0.00    -0.025 A 
ATOM      4  C14 UNL     1      21.453  15.693  19.760  0.00  0.00    +0.007 A 
ATOM      5  C15 UNL     1      20.392  14.990  19.160  0.00  0.00    +0.028 A 
ATOM      6  C16 UNL     1      20.324  13.617  19.379  0.00  0.00    +0.066 A 
ATOM      7  N4  UNL     1      19.418  12.747  18.917  0.00  0.00    -0.338 N 
ATOM      8  C17 UNL     1      19.821  11.552  19.426  0.00  0.00    +0.141 A 
ATOM      9  N6  UNL     1      20.946  11.646  20.187  0.00  0.00    -0.228 NA
ATOM     10  C23 UNL     1      21.238  12.958  20.138  0.00  0.00    +0.090 A 
ATOM     11  C24 UNL     1      22.303  13.616  20.748  0.00  0.00    +0.035 A 
ATOM     12  H19 UNL     1      18.597  12.965  18.311  0.00  0.00    +0.167 HD
BRANCH   8  13
ATOM     13  C18 UNL     1      19.122  10.263  19.191  0.00  0.00    +0.035 A 
ATOM     14  C19 UNL     1      19.820   9.172  18.643  0.00  0.00    +0.014 A 
ATOM     15  C20 UNL     1      19.167   7.958  18.420  0.00  0.00    +0.020 A 
ATOM     16  C21 UNL     1      17.816   7.839  18.744  0.00  0.00    +0.111 A 
ATOM     17  N5  UNL     1      17.148   8.897  19.271  0.00  0.00    -0.263 NA
ATOM     18  C22 UNL     1      17.759  10.090  19.500  0.00  0.00    +0.122 A 
ENDBRANCH   8  13
ENDBRANCH   2   3
BRANCH   2  19
ATOM     19  N1  UNL     1      23.264  16.060  22.605  0.00  0.00    -0.305 N 
ATOM     20  C3  UNL     1      23.773  15.235  23.667  0.00  0.00    +0.246 C 
ATOM     21  O1  UNL     1      24.674  14.388  23.420  0.00  0.00    -0.270 OA
ATOM     22  H5  UNL     1      22.698  16.904  22.844  0.00  0.00    +0.150 HD
BRANCH  20  23
ATOM     23  C4  UNL     1      23.263  15.372  25.052  0.00  0.00    +0.055 A 
ATOM     24  C5  UNL     1      22.419  16.438  25.396  0.00  0.00    +0.018 A 
ATOM     25  C6  UNL     1      21.945  16.572  26.702  0.00  0.00    +0.044 A 
ATOM     26  C7  UNL     1      22.329  15.637  27.676  0.00  0.00    +0.121 A 
ATOM     27  N3  UNL     1      23.161  14.617  27.325  0.00  0.00    -0.240 NA
ATOM     28  C12 UNL     1      23.631  14.464  26.059  0.00  0.00    +0.126 A 
BRANCH  26  29
ATOM     29  N2  UNL     1      21.864  15.736  29.037  0.00  0.00    -0.315 N 
ATOM     30  C8  UNL     1      21.506  16.981  29.698  0.00  0.00    +0.106 C 
ATOM     31  C9  UNL     1      21.233  16.612  31.151  0.00  0.00    +0.020 C 
ATOM     32  C10 UNL     1      21.048  15.097  31.171  0.00  0.00    +0.020 C 
ATOM     33  C11 UNL     1      21.709  14.580  29.901  0.00  0.00    +0.106 C 
ENDBRANCH  26  29
ENDBRANCH  20  23
ENDBRANCH   2  19
TORSDOF 5
ENDMDL
MODEL 9
REMARK VINA RESULT:    -7.083      5.156      8.129
REMARK INTER + INTRA:          -9.762
REMARK INTER:                  -8.894
REMARK INTRA:                  -0.868
REMARK UNBOUND:                -0.609
REMARK  Name = /home/qwerty/github/datacon2025hack/step_04_hit_selection/docking/ligands/lig_749.pdb
REMARK  6 active torsions:
REMARK  status: ('A' for Active; 'I' for Inactive)
REMARK    1  A    between atoms: C1_1  and  C2_2
REMARK    2  A    between atoms: C2_2  and  N1_3
REMARK    3  A    between atoms: C2_2  and  C13_17
REMARK    4  A    between atoms: C3_4  and  C4_6
REMARK    5  A    between atoms: C7_9  and  N2_10
REMARK    6  A    between atoms: C17_22  and  C18_23
REMARK                            x       y       z     vdW  Elec       q    Type
REMARK                         _______ _______ _______ _____ _____    ______ ____
ROOT
ATOM      1  C1  UNL     1       6.916  14.263  29.495  0.00  0.00    +0.033 C 
ATOM      2  C2  UNL     1       8.298  13.647  29.252  0.00  0.00    +0.100 C 
ENDROOT
BRANCH   2   3
ATOM      3  C13 UNL     1       8.155  12.216  28.781  0.00  0.00    -0.025 A 
ATOM      4  C14 UNL     1       7.642  11.217  29.655  0.00  0.00    +0.007 A 
ATOM      5  C15 UNL     1       7.497   9.887  29.217  0.00  0.00    +0.028 A 
ATOM      6  C16 UNL     1       7.865   9.596  27.908  0.00  0.00    +0.066 A 
ATOM      7  N4  UNL     1       7.816   8.419  27.273  0.00  0.00    -0.338 N 
ATOM      8  C17 UNL     1       8.285   8.697  26.027  0.00  0.00    +0.141 A 
ATOM      9  N6  UNL     1       8.624  10.005  25.863  0.00  0.00    -0.228 NA
ATOM     10  C23 UNL     1       8.348  10.545  27.062  0.00  0.00    +0.090 A 
ATOM     11  C24 UNL     1       8.507  11.871  27.455  0.00  0.00    +0.035 A 
ATOM     12  H19 UNL     1       7.491   7.510  27.671  0.00  0.00    +0.167 HD
BRANCH   8  13
ATOM     13  C18 UNL     1       8.425   7.692  24.942  0.00  0.00    +0.035 A 
ATOM     14  C19 UNL     1       8.338   6.320  25.235  0.00  0.00    +0.014 A 
ATOM     15  C20 UNL     1       8.469   5.372  24.219  0.00  0.00    +0.020 A 
ATOM     16  C21 UNL     1       8.689   5.799  22.910  0.00  0.00    +0.111 A 
ATOM     17  N5  UNL     1       8.774   7.126  22.634  0.00  0.00    -0.263 NA
ATOM     18  C22 UNL     1       8.649   8.071  23.604  0.00  0.00    +0.122 A 
ENDBRANCH   8  13
ENDBRANCH   2   3
BRANCH   2  19
ATOM     19  N1  UNL     1       9.113  13.704  30.471  0.00  0.00    -0.305 N 
ATOM     20  C3  UNL     1      10.549  13.749  30.419  0.00  0.00    +0.246 C 
ATOM     21  O1  UNL     1      11.126  13.978  29.320  0.00  0.00    -0.270 OA
ATOM     22  H5  UNL     1       8.637  13.747  31.399  0.00  0.00    +0.150 HD
BRANCH  20  23
ATOM     23  C4  UNL     1      11.366  13.542  31.638  0.00  0.00    +0.055 A 
ATOM     24  C5  UNL     1      12.068  14.612  32.212  0.00  0.00    +0.018 A 
ATOM     25  C6  UNL     1      12.844  14.416  33.355  0.00  0.00    +0.044 A 
ATOM     26  C7  UNL     1      12.928  13.135  33.924  0.00  0.00    +0.121 A 
ATOM     27  N3  UNL     1      12.249  12.107  33.343  0.00  0.00    -0.240 NA
ATOM     28  C12 UNL     1      11.484  12.275  32.232  0.00  0.00    +0.126 A 
BRANCH  26  29
ATOM     29  N2  UNL     1      13.717  12.887  35.104  0.00  0.00    -0.315 N 
ATOM     30  C8  UNL     1      14.140  11.570  35.552  0.00  0.00    +0.106 C 
ATOM     31  C9  UNL     1      14.802  11.788  36.907  0.00  0.00    +0.020 C 
ATOM     32  C10 UNL     1      15.096  13.283  36.994  0.00  0.00    +0.020 C 
ATOM     33  C11 UNL     1      14.172  13.949  35.984  0.00  0.00    +0.106 C 
ENDBRANCH  26  29
ENDBRANCH  20  23
ENDBRANCH   2  19
TORSDOF 5
ENDMDL
