MODEL 1
REMARK VINA RESULT:    -6.739      0.000      0.000
REMARK INTER + INTRA:          -7.885
REMARK INTER:                  -7.527
REMARK INTRA:                  -0.358
REMARK UNBOUND:                -0.358
REMARK  Name = /home/qwerty/github/datacon2025hack/step_04_hit_selection/docking/ligands/lig_153.pdb
REMARK  3 active torsions:
REMARK  status: ('A' for Active; 'I' for Inactive)
REMARK    1  A    between atoms: C1_2  and  C2_3
REMARK    2  A    between atoms: C16_19  and  O2_20
REMARK    3  A    between atoms: C17_21  and  O3_22
REMARK                            x       y       z     vdW  Elec       q    Type
REMARK                         _______ _______ _______ _____ _____    ______ ____
ROOT
ATOM      1  C2  UNL     1      12.753   4.565  21.785  0.00  0.00    +0.038 A 
ATOM      2  C3  UNL     1      12.983   4.993  20.450  0.00  0.00    +0.015 A 
ATOM      3  C4  UNL     1      13.788   4.236  19.579  0.00  0.00    +0.027 A 
ATOM      4  C5  UNL     1      14.339   3.052  20.063  0.00  0.00    +0.047 A 
ATOM      5  N1  UNL     1      15.134   2.190  19.398  0.00  0.00    -0.358 N 
ATOM      6  C6  UNL     1      15.414   1.208  20.285  0.00  0.00    +0.020 A 
ATOM      7  C7  UNL     1      14.773   1.429  21.492  0.00  0.00    -0.019 A 
ATOM      8  C8  UNL     1      14.105   2.624  21.347  0.00  0.00    +0.004 A 
ATOM      9  C9  UNL     1      13.317   3.349  22.236  0.00  0.00    +0.023 A 
ATOM     10  C10 UNL     1      14.930   0.563  22.705  0.00  0.00    +0.037 C 
ATOM     11  C11 UNL     1      15.470  -0.824  22.303  0.00  0.00    +0.005 C 
ATOM     12  C12 UNL     1      16.643  -0.715  21.305  0.00  0.00    +0.006 C 
ATOM     13  C13 UNL     1      16.216  -0.024  19.994  0.00  0.00    +0.053 C 
ATOM     14  H3  UNL     1      15.461   2.261  18.408  0.00  0.00    +0.166 HD
ENDROOT
BRANCH   1  16
ATOM     15  O1  UNL     1      12.398   5.873  23.729  0.00  0.00    -0.270 OA
ATOM     16  C1  UNL     1      11.896   5.368  22.688  0.00  0.00    +0.247 C 
ATOM     17  N2  UNL     1      10.509   5.603  22.386  0.00  0.00    -0.295 N 
ATOM     18  C14 UNL     1       9.936   6.926  22.667  0.00  0.00    +0.111 C 
ATOM     19  C15 UNL     1       8.484   7.026  22.174  0.00  0.00    +0.053 C 
ATOM     20  C16 UNL     1       8.325   6.347  20.803  0.00  0.00    +0.146 C 
ATOM     21  C17 UNL     1       8.701   4.838  20.859  0.00  0.00    +0.160 C 
ATOM     22  C18 UNL     1       9.621   4.483  22.046  0.00  0.00    +0.142 C 
BRANCH  20  23
ATOM     23  O2  UNL     1       9.139   6.995  19.854  0.00  0.00    -0.389 OA
ATOM     24  H18 UNL     1       9.694   7.653  20.351  0.00  0.00    +0.210 HD
ENDBRANCH  20  23
BRANCH  21  25
ATOM     25  O3  UNL     1       7.538   4.054  20.945  0.00  0.00    -0.388 OA
ATOM     26  H20 UNL     1       6.767   4.659  20.787  0.00  0.00    +0.210 HD
ENDBRANCH  21  25
ENDBRANCH   1  16
TORSDOF 3
ENDMDL
MODEL 2
REMARK VINA RESULT:    -6.480      8.494     10.431
REMARK INTER + INTRA:          -7.595
REMARK INTER:                  -7.172
REMARK INTRA:                  -0.423
REMARK UNBOUND:                -0.358
REMARK  Name = /home/qwerty/github/datacon2025hack/step_04_hit_selection/docking/ligands/lig_153.pdb
REMARK  3 active torsions:
REMARK  status: ('A' for Active; 'I' for Inactive)
REMARK    1  A    between atoms: C1_2  and  C2_3
REMARK    2  A    between atoms: C16_19  and  O2_20
REMARK    3  A    between atoms: C17_21  and  O3_22
REMARK                            x       y       z     vdW  Elec       q    Type
REMARK                         _______ _______ _______ _____ _____    ______ ____
ROOT
ATOM      1  C2  UNL     1      19.119   1.591  27.077  0.00  0.00    +0.038 A 
ATOM      2  C3  UNL     1      20.035   1.218  26.057  0.00  0.00    +0.015 A 
ATOM      3  C4  UNL     1      19.717   0.200  25.140  0.00  0.00    +0.027 A 
ATOM      4  C5  UNL     1      18.476  -0.420  25.256  0.00  0.00    +0.047 A 
ATOM      5  N1  UNL     1      17.982  -1.411  24.488  0.00  0.00    -0.358 N 
ATOM      6  C6  UNL     1      16.756  -1.677  24.994  0.00  0.00    +0.020 A 
ATOM      7  C7  UNL     1      16.462  -0.837  26.055  0.00  0.00    -0.019 A 
ATOM      8  C8  UNL     1      17.579  -0.051  26.230  0.00  0.00    +0.004 A 
ATOM      9  C9  UNL     1      17.861   0.949  27.155  0.00  0.00    +0.023 A 
ATOM     10  C10 UNL     1      15.212  -0.919  26.878  0.00  0.00    +0.037 C 
ATOM     11  C11 UNL     1      14.119  -1.688  26.111  0.00  0.00    +0.005 C 
ATOM     12  C12 UNL     1      14.671  -2.975  25.460  0.00  0.00    +0.006 C 
ATOM     13  C13 UNL     1      15.780  -2.666  24.434  0.00  0.00    +0.053 C 
ATOM     14  H3  UNL     1      18.444  -1.872  23.671  0.00  0.00    +0.166 HD
ENDROOT
BRANCH   1  16
ATOM     15  O1  UNL     1      19.689   3.833  27.594  0.00  0.00    -0.270 OA
ATOM     16  C1  UNL     1      19.464   2.671  28.030  0.00  0.00    +0.247 C 
ATOM     17  N2  UNL     1      19.523   2.425  29.447  0.00  0.00    -0.295 N 
ATOM     18  C14 UNL     1      19.012   3.449  30.367  0.00  0.00    +0.111 C 
ATOM     19  C15 UNL     1      19.049   2.966  31.825  0.00  0.00    +0.053 C 
ATOM     20  C16 UNL     1      18.609   1.495  31.922  0.00  0.00    +0.146 C 
ATOM     21  C17 UNL     1      19.534   0.559  31.092  0.00  0.00    +0.160 C 
ATOM     22  C18 UNL     1      20.303   1.298  29.975  0.00  0.00    +0.142 C 
BRANCH  20  23
ATOM     23  O2  UNL     1      17.284   1.363  31.467  0.00  0.00    -0.389 OA
ATOM     24  H18 UNL     1      17.003   2.257  31.133  0.00  0.00    +0.210 HD
ENDBRANCH  20  23
BRANCH  21  25
ATOM     25  O3  UNL     1      20.466  -0.070  31.934  0.00  0.00    -0.388 OA
ATOM     26  H20 UNL     1      20.127   0.022  32.863  0.00  0.00    +0.210 HD
ENDBRANCH  21  25
ENDBRANCH   1  16
TORSDOF 3
ENDMDL
MODEL 3
REMARK VINA RESULT:    -6.474     13.123     14.870
REMARK INTER + INTRA:          -7.588
REMARK INTER:                  -7.167
REMARK INTRA:                  -0.422
REMARK UNBOUND:                -0.358
REMARK  Name = /home/qwerty/github/datacon2025hack/step_04_hit_selection/docking/ligands/lig_153.pdb
REMARK  3 active torsions:
REMARK  status: ('A' for Active; 'I' for Inactive)
REMARK    1  A    between atoms: C1_2  and  C2_3
REMARK    2  A    between atoms: C16_19  and  O2_20
REMARK    3  A    between atoms: C17_21  and  O3_22
REMARK                            x       y       z     vdW  Elec       q    Type
REMARK                         _______ _______ _______ _____ _____    ______ ____
ROOT
ATOM      1  C2  UNL     1      23.224  13.038  22.298  0.00  0.00    +0.038 A 
ATOM      2  C3  UNL     1      24.476  13.701  22.405  0.00  0.00    +0.015 A 
ATOM      3  C4  UNL     1      24.736  14.584  23.469  0.00  0.00    +0.027 A 
ATOM      4  C5  UNL     1      23.734  14.777  24.417  0.00  0.00    +0.047 A 
ATOM      5  N1  UNL     1      23.779  15.575  25.502  0.00  0.00    -0.358 N 
ATOM      6  C6  UNL     1      22.575  15.430  26.100  0.00  0.00    +0.020 A 
ATOM      7  C7  UNL     1      21.785  14.520  25.418  0.00  0.00    -0.019 A 
ATOM      8  C8  UNL     1      22.528  14.124  24.328  0.00  0.00    +0.004 A 
ATOM      9  C9  UNL     1      22.236  13.247  23.289  0.00  0.00    +0.023 A 
ATOM     10  C10 UNL     1      20.370  14.187  25.783  0.00  0.00    +0.037 C 
ATOM     11  C11 UNL     1      20.089  14.585  27.245  0.00  0.00    +0.005 C 
ATOM     12  C12 UNL     1      20.633  15.993  27.571  0.00  0.00    +0.006 C 
ATOM     13  C13 UNL     1      22.163  16.071  27.391  0.00  0.00    +0.053 C 
ATOM     14  H3  UNL     1      24.576  16.174  25.818  0.00  0.00    +0.166 HD
ENDROOT
BRANCH   1  16
ATOM     15  O1  UNL     1      23.753  11.135  20.988  0.00  0.00    -0.270 OA
ATOM     16  C1  UNL     1      22.968  12.104  21.177  0.00  0.00    +0.247 C 
ATOM     17  N2  UNL     1      21.827  12.268  20.317  0.00  0.00    -0.295 N 
ATOM     18  C14 UNL     1      21.101  11.073  19.865  0.00  0.00    +0.111 C 
ATOM     19  C15 UNL     1      19.851  11.447  19.054  0.00  0.00    +0.053 C 
ATOM     20  C16 UNL     1      19.126  12.645  19.691  0.00  0.00    +0.146 C 
ATOM     21  C17 UNL     1      20.039  13.904  19.757  0.00  0.00    +0.160 C 
ATOM     22  C18 UNL     1      21.544  13.568  19.694  0.00  0.00    +0.142 C 
BRANCH  20  23
ATOM     23  O2  UNL     1      18.702  12.308  20.990  0.00  0.00    -0.389 OA
ATOM     24  H18 UNL     1      19.522  12.176  21.536  0.00  0.00    +0.210 HD
ENDBRANCH  20  23
BRANCH  21  25
ATOM     25  O3  UNL     1      19.731  14.779  18.702  0.00  0.00    -0.388 OA
ATOM     26  H20 UNL     1      20.219  14.453  17.902  0.00  0.00    +0.210 HD
ENDBRANCH  21  25
ENDBRANCH   1  16
TORSDOF 3
ENDMDL
MODEL 4
REMARK VINA RESULT:    -6.413     15.895     17.444
REMARK INTER + INTRA:          -7.521
REMARK INTER:                  -7.194
REMARK INTRA:                  -0.327
REMARK UNBOUND:                -0.358
REMARK  Name = /home/qwerty/github/datacon2025hack/step_04_hit_selection/docking/ligands/lig_153.pdb
REMARK  3 active torsions:
REMARK  status: ('A' for Active; 'I' for Inactive)
REMARK    1  A    between atoms: C1_2  and  C2_3
REMARK    2  A    between atoms: C16_19  and  O2_20
REMARK    3  A    between atoms: C17_21  and  O3_22
REMARK                            x       y       z     vdW  Elec       q    Type
REMARK                         _______ _______ _______ _____ _____    ______ ____
ROOT
ATOM      1  C2  UNL     1      17.126   9.916  35.721  0.00  0.00    +0.038 A 
ATOM      2  C3  UNL     1      16.618   9.611  37.013  0.00  0.00    +0.015 A 
ATOM      3  C4  UNL     1      17.392   8.888  37.939  0.00  0.00    +0.027 A 
ATOM      4  C5  UNL     1      18.671   8.494  37.555  0.00  0.00    +0.047 A 
ATOM      5  N1  UNL     1      19.565   7.797  38.285  0.00  0.00    -0.358 N 
ATOM      6  C6  UNL     1      20.645   7.656  37.484  0.00  0.00    +0.020 A 
ATOM      7  C7  UNL     1      20.450   8.287  36.267  0.00  0.00    -0.019 A 
ATOM      8  C8  UNL     1      19.173   8.802  36.314  0.00  0.00    +0.004 A 
ATOM      9  C9  UNL     1      18.435   9.512  35.372  0.00  0.00    +0.023 A 
ATOM     10  C10 UNL     1      21.428   8.259  35.132  0.00  0.00    +0.037 C 
ATOM     11  C11 UNL     1      22.832   7.884  35.648  0.00  0.00    +0.005 C 
ATOM     12  C12 UNL     1      22.784   6.688  36.624  0.00  0.00    +0.006 C 
ATOM     13  C13 UNL     1      21.936   7.004  37.874  0.00  0.00    +0.053 C 
ATOM     14  H3  UNL     1      19.450   7.446  39.263  0.00  0.00    +0.166 HD
ENDROOT
BRANCH   1  16
ATOM     15  O1  UNL     1      16.128  10.234  33.595  0.00  0.00    -0.270 OA
ATOM     16  C1  UNL     1      16.303  10.686  34.760  0.00  0.00    +0.247 C 
ATOM     17  N2  UNL     1      15.678  11.925  35.138  0.00  0.00    -0.295 N 
ATOM     18  C14 UNL     1      14.324  12.216  34.650  0.00  0.00    +0.111 C 
ATOM     19  C15 UNL     1      13.778  13.522  35.246  0.00  0.00    +0.053 C 
ATOM     20  C16 UNL     1      14.146  13.636  36.736  0.00  0.00    +0.146 C 
ATOM     21  C17 UNL     1      15.687  13.627  36.952  0.00  0.00    +0.160 C 
ATOM     22  C18 UNL     1      16.462  12.989  35.780  0.00  0.00    +0.142 C 
BRANCH  20  23
ATOM     23  O2  UNL     1      13.569  12.571  37.452  0.00  0.00    -0.389 OA
ATOM     24  H18 UNL     1      12.586  12.714  37.441  0.00  0.00    +0.210 HD
ENDBRANCH  20  23
BRANCH  21  25
ATOM     25  O3  UNL     1      16.157  14.938  37.137  0.00  0.00    -0.388 OA
ATOM     26  H20 UNL     1      15.835  15.474  36.366  0.00  0.00    +0.210 HD
ENDBRANCH  21  25
ENDBRANCH   1  16
TORSDOF 3
ENDMDL
MODEL 5
REMARK VINA RESULT:    -6.412     11.144     13.432
REMARK INTER + INTRA:          -7.519
REMARK INTER:                  -7.097
REMARK INTRA:                  -0.422
REMARK UNBOUND:                -0.358
REMARK  Name = /home/qwerty/github/datacon2025hack/step_04_hit_selection/docking/ligands/lig_153.pdb
REMARK  3 active torsions:
REMARK  status: ('A' for Active; 'I' for Inactive)
REMARK    1  A    between atoms: C1_2  and  C2_3
REMARK    2  A    between atoms: C16_19  and  O2_20
REMARK    3  A    between atoms: C17_21  and  O3_22
REMARK                            x       y       z     vdW  Elec       q    Type
REMARK                         _______ _______ _______ _____ _____    ______ ____
ROOT
ATOM      1  C2  UNL     1      20.582   3.146  29.531  0.00  0.00    +0.038 A 
ATOM      2  C3  UNL     1      20.857   2.013  30.343  0.00  0.00    +0.015 A 
ATOM      3  C4  UNL     1      21.670   2.125  31.486  0.00  0.00    +0.027 A 
ATOM      4  C5  UNL     1      22.186   3.380  31.800  0.00  0.00    +0.047 A 
ATOM      5  N1  UNL     1      22.982   3.700  32.840  0.00  0.00    -0.358 N 
ATOM      6  C6  UNL     1      23.218   5.025  32.712  0.00  0.00    +0.020 A 
ATOM      7  C7  UNL     1      22.549   5.549  31.619  0.00  0.00    -0.019 A 
ATOM      8  C8  UNL     1      21.908   4.482  31.028  0.00  0.00    +0.004 A 
ATOM      9  C9  UNL     1      21.111   4.408  29.890  0.00  0.00    +0.023 A 
ATOM     10  C10 UNL     1      22.657   6.972  31.163  0.00  0.00    +0.037 C 
ATOM     11  C11 UNL     1      23.181   7.860  32.308  0.00  0.00    +0.005 C 
ATOM     12  C12 UNL     1      24.382   7.214  33.032  0.00  0.00    +0.006 C 
ATOM     13  C13 UNL     1      24.004   5.864  33.674  0.00  0.00    +0.053 C 
ATOM     14  H3  UNL     1      23.336   3.061  33.588  0.00  0.00    +0.166 HD
ENDROOT
BRANCH   1  16
ATOM     15  O1  UNL     1      18.513   2.667  28.480  0.00  0.00    -0.270 OA
ATOM     16  C1  UNL     1      19.717   3.014  28.336  0.00  0.00    +0.247 C 
ATOM     17  N2  UNL     1      20.217   3.300  27.018  0.00  0.00    -0.295 N 
ATOM     18  C14 UNL     1      19.344   3.992  26.061  0.00  0.00    +0.111 C 
ATOM     19  C15 UNL     1      20.083   4.314  24.754  0.00  0.00    +0.053 C 
ATOM     20  C16 UNL     1      21.516   4.796  25.042  0.00  0.00    +0.146 C 
ATOM     21  C17 UNL     1      22.345   3.719  25.801  0.00  0.00    +0.160 C 
ATOM     22  C18 UNL     1      21.470   2.692  26.549  0.00  0.00    +0.142 C 
BRANCH  20  23
ATOM     23  O2  UNL     1      21.475   5.977  25.806  0.00  0.00    -0.389 OA
ATOM     24  H18 UNL     1      21.560   6.736  25.169  0.00  0.00    +0.210 HD
ENDBRANCH  20  23
BRANCH  21  25
ATOM     25  O3  UNL     1      23.176   3.029  24.903  0.00  0.00    -0.388 OA
ATOM     26  H20 UNL     1      22.891   3.285  23.987  0.00  0.00    +0.210 HD
ENDBRANCH  21  25
ENDBRANCH   1  16
TORSDOF 3
ENDMDL
MODEL 6
REMARK VINA RESULT:    -6.359      8.321     11.160
REMARK INTER + INTRA:          -7.461
REMARK INTER:                  -7.036
REMARK INTRA:                  -0.424
REMARK UNBOUND:                -0.358
REMARK  Name = /home/qwerty/github/datacon2025hack/step_04_hit_selection/docking/ligands/lig_153.pdb
REMARK  3 active torsions:
REMARK  status: ('A' for Active; 'I' for Inactive)
REMARK    1  A    between atoms: C1_2  and  C2_3
REMARK    2  A    between atoms: C16_19  and  O2_20
REMARK    3  A    between atoms: C17_21  and  O3_22
REMARK                            x       y       z     vdW  Elec       q    Type
REMARK                         _______ _______ _______ _____ _____    ______ ____
ROOT
ATOM      1  C2  UNL     1      10.237  11.009  28.201  0.00  0.00    +0.038 A 
ATOM      2  C3  UNL     1       8.887  10.816  28.600  0.00  0.00    +0.015 A 
ATOM      3  C4  UNL     1       7.902  10.456  27.662  0.00  0.00    +0.027 A 
ATOM      4  C5  UNL     1       8.295  10.285  26.337  0.00  0.00    +0.047 A 
ATOM      5  N1  UNL     1       7.514   9.947  25.291  0.00  0.00    -0.358 N 
ATOM      6  C6  UNL     1       8.345   9.913  24.224  0.00  0.00    +0.020 A 
ATOM      7  C7  UNL     1       9.648  10.194  24.597  0.00  0.00    -0.019 A 
ATOM      8  C8  UNL     1       9.602  10.453  25.949  0.00  0.00    +0.004 A 
ATOM      9  C9  UNL     1      10.601  10.811  26.849  0.00  0.00    +0.023 A 
ATOM     10  C10 UNL     1      10.797  10.303  23.642  0.00  0.00    +0.037 C 
ATOM     11  C11 UNL     1      10.457   9.595  22.316  0.00  0.00    +0.005 C 
ATOM     12  C12 UNL     1       9.038   9.952  21.822  0.00  0.00    +0.006 C 
ATOM     13  C13 UNL     1       7.955   9.518  22.832  0.00  0.00    +0.053 C 
ATOM     14  H3  UNL     1       6.488   9.748  25.302  0.00  0.00    +0.166 HD
ENDROOT
BRANCH   1  16
ATOM     15  O1  UNL     1      11.456  10.628  30.197  0.00  0.00    -0.270 OA
ATOM     16  C1  UNL     1      11.264  11.379  29.202  0.00  0.00    +0.247 C 
ATOM     17  N2  UNL     1      12.063  12.565  29.047  0.00  0.00    -0.295 N 
ATOM     18  C14 UNL     1      13.485  12.516  29.411  0.00  0.00    +0.111 C 
ATOM     19  C15 UNL     1      14.200  13.832  29.071  0.00  0.00    +0.053 C 
ATOM     20  C16 UNL     1      13.729  14.372  27.709  0.00  0.00    +0.146 C 
ATOM     21  C17 UNL     1      12.198  14.650  27.696  0.00  0.00    +0.160 C 
ATOM     22  C18 UNL     1      11.427  13.862  28.777  0.00  0.00    +0.142 C 
BRANCH  20  23
ATOM     23  O2  UNL     1      14.043  13.446  26.696  0.00  0.00    -0.389 OA
ATOM     24  H18 UNL     1      13.413  12.683  26.797  0.00  0.00    +0.210 HD
ENDBRANCH  20  23
BRANCH  21  25
ATOM     25  O3  UNL     1      11.954  16.020  27.884  0.00  0.00    -0.388 OA
ATOM     26  H20 UNL     1      12.499  16.507  27.212  0.00  0.00    +0.210 HD
ENDBRANCH  21  25
ENDBRANCH   1  16
TORSDOF 3
ENDMDL
MODEL 7
REMARK VINA RESULT:    -6.275      9.826     13.279
REMARK INTER + INTRA:          -7.367
REMARK INTER:                  -6.946
REMARK INTRA:                  -0.421
REMARK UNBOUND:                -0.358
REMARK  Name = /home/qwerty/github/datacon2025hack/step_04_hit_selection/docking/ligands/lig_153.pdb
REMARK  3 active torsions:
REMARK  status: ('A' for Active; 'I' for Inactive)
REMARK    1  A    between atoms: C1_2  and  C2_3
REMARK    2  A    between atoms: C16_19  and  O2_20
REMARK    3  A    between atoms: C17_21  and  O3_22
REMARK                            x       y       z     vdW  Elec       q    Type
REMARK                         _______ _______ _______ _____ _____    ______ ____
ROOT
ATOM      1  C2  UNL     1      10.770  11.661  29.092  0.00  0.00    +0.038 A 
ATOM      2  C3  UNL     1      10.876  13.017  28.679  0.00  0.00    +0.015 A 
ATOM      3  C4  UNL     1      11.086  14.043  29.618  0.00  0.00    +0.027 A 
ATOM      4  C5  UNL     1      11.200  13.687  30.960  0.00  0.00    +0.047 A 
ATOM      5  N1  UNL     1      11.399  14.509  32.009  0.00  0.00    -0.358 N 
ATOM      6  C6  UNL     1      11.431  13.701  33.093  0.00  0.00    +0.020 A 
ATOM      7  C7  UNL     1      11.287  12.373  32.730  0.00  0.00    -0.019 A 
ATOM      8  C8  UNL     1      11.117  12.376  31.363  0.00  0.00    +0.004 A 
ATOM      9  C9  UNL     1      10.906  11.336  30.462  0.00  0.00    +0.023 A 
ATOM     10  C10 UNL     1      11.210  11.233  33.700  0.00  0.00    +0.037 C 
ATOM     11  C11 UNL     1      11.796  11.653  35.062  0.00  0.00    +0.005 C 
ATOM     12  C12 UNL     1      11.287  13.043  35.501  0.00  0.00    +0.006 C 
ATOM     13  C13 UNL     1      11.696  14.144  34.500  0.00  0.00    +0.053 C 
ATOM     14  H3  UNL     1      11.511  15.548  31.990  0.00  0.00    +0.166 HD
ENDROOT
BRANCH   1  16
ATOM     15  O1  UNL     1      11.359  10.481  27.124  0.00  0.00    -0.270 OA
ATOM     16  C1  UNL     1      10.557  10.591  28.091  0.00  0.00    +0.247 C 
ATOM     17  N2  UNL     1       9.467   9.660  28.215  0.00  0.00    -0.295 N 
ATOM     18  C14 UNL     1       9.694   8.251  27.868  0.00  0.00    +0.111 C 
ATOM     19  C15 UNL     1       8.458   7.390  28.172  0.00  0.00    +0.053 C 
ATOM     20  C16 UNL     1       7.821   7.805  29.510  0.00  0.00    +0.146 C 
ATOM     21  C17 UNL     1       7.367   9.293  29.497  0.00  0.00    +0.160 C 
ATOM     22  C18 UNL     1       8.097  10.143  28.435  0.00  0.00    +0.142 C 
BRANCH  20  23
ATOM     23  O2  UNL     1       8.742   7.608  30.557  0.00  0.00    -0.389 OA
ATOM     24  H18 UNL     1       9.392   6.923  30.245  0.00  0.00    +0.210 HD
ENDBRANCH  20  23
BRANCH  21  25
ATOM     25  O3  UNL     1       5.985   9.374  29.261  0.00  0.00    -0.388 OA
ATOM     26  H20 UNL     1       5.762   8.673  28.595  0.00  0.00    +0.210 HD
ENDBRANCH  21  25
ENDBRANCH   1  16
TORSDOF 3
ENDMDL
MODEL 8
REMARK VINA RESULT:    -6.258      7.587      9.261
REMARK INTER + INTRA:          -7.347
REMARK INTER:                  -7.113
REMARK INTRA:                  -0.234
REMARK UNBOUND:                -0.358
REMARK  Name = /home/qwerty/github/datacon2025hack/step_04_hit_selection/docking/ligands/lig_153.pdb
REMARK  3 active torsions:
REMARK  status: ('A' for Active; 'I' for Inactive)
REMARK    1  A    between atoms: C1_2  and  C2_3
REMARK    2  A    between atoms: C16_19  and  O2_20
REMARK    3  A    between atoms: C17_21  and  O3_22
REMARK                            x       y       z     vdW  Elec       q    Type
REMARK                         _______ _______ _______ _____ _____    ______ ____
ROOT
ATOM      1  C2  UNL     1       9.319  10.097  25.921  0.00  0.00    +0.038 A 
ATOM      2  C3  UNL     1       7.934  10.050  25.609  0.00  0.00    +0.015 A 
ATOM      3  C4  UNL     1       7.496  10.044  24.272  0.00  0.00    +0.027 A 
ATOM      4  C5  UNL     1       8.461  10.072  23.268  0.00  0.00    +0.047 A 
ATOM      5  N1  UNL     1       8.255  10.075  21.936  0.00  0.00    -0.358 N 
ATOM      6  C6  UNL     1       9.489  10.116  21.386  0.00  0.00    +0.020 A 
ATOM      7  C7  UNL     1      10.472  10.104  22.361  0.00  0.00    -0.019 A 
ATOM      8  C8  UNL     1       9.803  10.099  23.565  0.00  0.00    +0.004 A 
ATOM      9  C9  UNL     1      10.271  10.110  24.875  0.00  0.00    +0.023 A 
ATOM     10  C10 UNL     1      11.941  10.210  22.085  0.00  0.00    +0.037 C 
ATOM     11  C11 UNL     1      12.235   9.838  20.618  0.00  0.00    +0.005 C 
ATOM     12  C12 UNL     1      11.241  10.509  19.646  0.00  0.00    +0.006 C 
ATOM     13  C13 UNL     1       9.788  10.068  19.918  0.00  0.00    +0.053 C 
ATOM     14  H3  UNL     1       7.338  10.046  21.435  0.00  0.00    +0.166 HD
ENDROOT
BRANCH   1  16
ATOM     15  O1  UNL     1      10.740  10.818  27.676  0.00  0.00    -0.270 OA
ATOM     16  C1  UNL     1       9.765  10.094  27.333  0.00  0.00    +0.247 C 
ATOM     17  N2  UNL     1       9.091   9.301  28.327  0.00  0.00    -0.295 N 
ATOM     18  C14 UNL     1       8.894   9.862  29.670  0.00  0.00    +0.111 C 
ATOM     19  C15 UNL     1       8.059   8.924  30.555  0.00  0.00    +0.053 C 
ATOM     20  C16 UNL     1       6.899   8.308  29.754  0.00  0.00    +0.146 C 
ATOM     21  C17 UNL     1       7.411   7.479  28.541  0.00  0.00    +0.160 C 
ATOM     22  C18 UNL     1       8.834   7.874  28.091  0.00  0.00    +0.142 C 
BRANCH  20  23
ATOM     23  O2  UNL     1       6.044   9.328  29.294  0.00  0.00    -0.389 OA
ATOM     24  H18 UNL     1       6.601  10.144  29.186  0.00  0.00    +0.210 HD
ENDBRANCH  20  23
BRANCH  21  25
ATOM     25  O3  UNL     1       7.405   6.110  28.854  0.00  0.00    -0.388 OA
ATOM     26  H20 UNL     1       7.069   5.629  28.054  0.00  0.00    +0.210 HD
ENDBRANCH  21  25
ENDBRANCH   1  16
TORSDOF 3
ENDMDL
MODEL 9
REMARK VINA RESULT:    -6.198     13.637     15.513
REMARK INTER + INTRA:          -7.280
REMARK INTER:                  -7.056
REMARK INTRA:                  -0.224
REMARK UNBOUND:                -0.358
REMARK  Name = /home/qwerty/github/datacon2025hack/step_04_hit_selection/docking/ligands/lig_153.pdb
REMARK  3 active torsions:
REMARK  status: ('A' for Active; 'I' for Inactive)
REMARK    1  A    between atoms: C1_2  and  C2_3
REMARK    2  A    between atoms: C16_19  and  O2_20
REMARK    3  A    between atoms: C17_21  and  O3_22
REMARK                            x       y       z     vdW  Elec       q    Type
REMARK                         _______ _______ _______ _____ _____    ______ ____
ROOT
ATOM      1  C2  UNL     1      22.641   5.566  33.651  0.00  0.00    +0.038 A 
ATOM      2  C3  UNL     1      21.502   5.594  34.499  0.00  0.00    +0.015 A 
ATOM      3  C4  UNL     1      20.445   4.683  34.318  0.00  0.00    +0.027 A 
ATOM      4  C5  UNL     1      20.557   3.749  33.292  0.00  0.00    +0.047 A 
ATOM      5  N1  UNL     1      19.664   2.798  32.951  0.00  0.00    -0.358 N 
ATOM      6  C6  UNL     1      20.216   2.153  31.898  0.00  0.00    +0.020 A 
ATOM      7  C7  UNL     1      21.465   2.669  31.595  0.00  0.00    -0.019 A 
ATOM      8  C8  UNL     1      21.665   3.705  32.480  0.00  0.00    +0.004 A 
ATOM      9  C9  UNL     1      22.727   4.592  32.628  0.00  0.00    +0.023 A 
ATOM     10  C10 UNL     1      22.308   2.220  30.441  0.00  0.00    +0.037 C 
ATOM     11  C11 UNL     1      21.855   0.828  29.959  0.00  0.00    +0.005 C 
ATOM     12  C12 UNL     1      20.318   0.733  29.843  0.00  0.00    +0.006 C 
ATOM     13  C13 UNL     1      19.627   0.963  31.203  0.00  0.00    +0.053 C 
ATOM     14  H3  UNL     1      18.744   2.599  33.406  0.00  0.00    +0.166 HD
ENDROOT
BRANCH   1  16
ATOM     15  O1  UNL     1      24.758   6.170  34.528  0.00  0.00    -0.270 OA
ATOM     16  C1  UNL     1      23.750   6.526  33.859  0.00  0.00    +0.247 C 
ATOM     17  N2  UNL     1      23.709   7.847  33.291  0.00  0.00    -0.295 N 
ATOM     18  C14 UNL     1      24.944   8.423  32.742  0.00  0.00    +0.111 C 
ATOM     19  C15 UNL     1      24.684   9.784  32.079  0.00  0.00    +0.053 C 
ATOM     20  C16 UNL     1      23.373   9.756  31.274  0.00  0.00    +0.146 C 
ATOM     21  C17 UNL     1      22.148   9.431  32.176  0.00  0.00    +0.160 C 
ATOM     22  C18 UNL     1      22.531   8.703  33.483  0.00  0.00    +0.142 C 
BRANCH  20  23
ATOM     23  O2  UNL     1      23.465   8.796  30.248  0.00  0.00    -0.389 OA
ATOM     24  H18 UNL     1      23.755   9.277  29.428  0.00  0.00    +0.210 HD
ENDBRANCH  20  23
BRANCH  21  25
ATOM     25  O3  UNL     1      21.464  10.612  32.506  0.00  0.00    -0.388 OA
ATOM     26  H20 UNL     1      21.099  10.983  31.661  0.00  0.00    +0.210 HD
ENDBRANCH  21  25
ENDBRANCH   1  16
TORSDOF 3
ENDMDL
