REMARK  Name = /home/qwerty/github/datacon2025hack/step_04_hit_selection/docking/ligands/lig_452.pdb
REMARK  10 active torsions:
REMARK  status: ('A' for Active; 'I' for Inactive)
REMARK    1  A    between atoms: C1_1  and  O1_2
REMARK    2  A    between atoms: O1_2  and  C2_3
REMARK    3  A    between atoms: C4_5  and  C5_6
REMARK    4  A    between atoms: C9_14  and  C10_15
REMARK    5  A    between atoms: C13_18  and  C14_19
REMARK    6  A    between atoms: C17_22  and  C18_23
REMARK    7  A    between atoms: C25_33  and  O3_34
REMARK    8  A    between atoms: O3_34  and  C26_35
REMARK    9  A    between atoms: C27_36  and  O4_37
REMARK   10  A    between atoms: O4_37  and  C28_38
REMARK                            x       y       z     vdW  Elec       q    Type
REMARK                         _______ _______ _______ _____ _____    ______ ____
ROOT
ATOM      1  C5  UNL     1      -3.486   1.171  -1.586  0.00  0.00    +0.247 C 
ATOM      2  O2  UNL     1      -3.044   1.311  -2.759  0.00  0.00    -0.270 OA
ATOM      3  N1  UNL     1      -2.565   0.927  -0.507  0.00  0.00    -0.295 N 
ATOM      4  C6  UNL     1      -1.331   1.715  -0.405  0.00  0.00    +0.127 C 
ATOM      5  C7  UNL     1      -0.139   0.802  -0.105  0.00  0.00    +0.126 C 
ATOM      6  N2  UNL     1      -0.420  -0.121   1.004  0.00  0.00    -0.307 N 
ATOM      7  C8  UNL     1       0.685  -0.795   1.637  0.00  0.00    +0.161 A 
ATOM      8  N3  UNL     1       1.953  -0.730   1.176  0.00  0.00    -0.223 NA
ATOM      9  C9  UNL     1       2.830  -1.410   1.965  0.00  0.00    +0.100 A 
ATOM     10  C21 UNL     1       2.250  -2.029   3.076  0.00  0.00    +0.078 A 
ATOM     11  S1  UNL     1       0.601  -1.703   3.052  0.00  0.00    -0.060 S 
ATOM     12  C22 UNL     1      -1.779  -0.219   1.559  0.00  0.00    +0.126 C 
ATOM     13  C23 UNL     1      -2.827  -0.167   0.441  0.00  0.00    +0.127 C 
ENDROOT
BRANCH   1  16
ATOM     14  C2  UNL     1      -7.240   0.905  -2.113  0.00  0.00    +0.166 A 
ATOM     15  C3  UNL     1      -5.848   0.811  -2.318  0.00  0.00    +0.062 A 
ATOM     16  C4  UNL     1      -4.944   1.259  -1.347  0.00  0.00    +0.044 A 
ATOM     17  C24 UNL     1      -5.435   1.822  -0.164  0.00  0.00    +0.062 A 
ATOM     18  C25 UNL     1      -6.809   1.897   0.077  0.00  0.00    +0.166 A 
ATOM     19  C27 UNL     1      -7.728   1.469  -0.903  0.00  0.00    +0.204 A 
BRANCH  14  21
ATOM     20  C1  UNL     1      -7.777  -0.151  -4.328  0.00  0.00    +0.277 C 
ATOM     21  O1  UNL     1      -8.141   0.455  -3.091  0.00  0.00    -0.491 OA
ENDBRANCH  14  21
BRANCH  18  22
ATOM     22  O3  UNL     1      -7.231   2.440   1.296  0.00  0.00    -0.491 OA
ATOM     23  C26 UNL     1      -8.051   1.733   2.220  0.00  0.00    +0.277 C 
ENDBRANCH  18  22
BRANCH  19  24
ATOM     24  O4  UNL     1      -9.096   1.657  -0.633  0.00  0.00    -0.488 OA
ATOM     25  C28 UNL     1     -10.191   1.235  -1.439  0.00  0.00    +0.277 C 
ENDBRANCH  19  24
ENDBRANCH   1  16
BRANCH   9  26
ATOM     26  C10 UNL     1       4.277  -1.422   1.650  0.00  0.00    +0.112 A 
ATOM     27  C11 UNL     1       5.213  -2.138   2.411  0.00  0.00    +0.034 A 
ATOM     28  C12 UNL     1       6.563  -2.073   2.075  0.00  0.00    +0.032 A 
ATOM     29  C13 UNL     1       6.967  -1.295   0.980  0.00  0.00    +0.093 A 
ATOM     30  N4  UNL     1       6.015  -0.625   0.274  0.00  0.00    -0.149 NA
ATOM     31  N5  UNL     1       4.722  -0.689   0.595  0.00  0.00    -0.147 NA
BRANCH  29  32
ATOM     32  C14 UNL     1       8.396  -1.154   0.595  0.00  0.00    +0.002 A 
ATOM     33  C15 UNL     1       8.832   0.016  -0.056  0.00  0.00    +0.010 A 
ATOM     34  C16 UNL     1      10.172   0.172  -0.421  0.00  0.00    +0.004 A 
ATOM     35  C17 UNL     1      11.100  -0.845  -0.162  0.00  0.00    -0.050 A 
ATOM     36  C18 UNL     1      12.546  -0.656  -0.517  0.00  0.00    +0.044 C 
ATOM     37  C19 UNL     1      10.676  -2.012   0.490  0.00  0.00    +0.004 A 
ATOM     38  C20 UNL     1       9.335  -2.170   0.857  0.00  0.00    +0.010 A 
ENDBRANCH  29  32
ENDBRANCH   9  26
TORSDOF 6
