MODEL 1
REMARK VINA RESULT:    -7.206      0.000      0.000
REMARK INTER + INTRA:         -11.036
REMARK INTER:                 -10.155
REMARK INTRA:                  -0.881
REMARK UNBOUND:                -0.881
REMARK  Name = /home/qwerty/github/datacon2025hack/step_04_hit_selection/docking/ligands/lig_162.pdb
REMARK  9 active torsions:
REMARK  status: ('A' for Active; 'I' for Inactive)
REMARK    1  A    between atoms: C1_1  and  O1_2
REMARK    2  A    between atoms: O1_2  and  C2_3
REMARK    3  A    between atoms: C2_3  and  C3_5
REMARK    4  A    between atoms: C5_7  and  N1_8
REMARK    5  A    between atoms: N2_11  and  C7_12
REMARK    6  A    between atoms: C7_12  and  C8_13
REMARK    7  A    between atoms: C7_12  and  C9_14
REMARK    8  A    between atoms: C12_17  and  N3_18
REMARK    9  A    between atoms: C13_19  and  C14_21
REMARK                            x       y       z     vdW  Elec       q    Type
REMARK                         _______ _______ _______ _____ _____    ______ ____
ROOT
ATOM      1  C7  UNL     1      23.534   8.021  32.560  0.00  0.00    +0.102 C 
ATOM      2  C8  UNL     1      24.884   8.745  32.631  0.00  0.00    +0.033 C 
ENDROOT
BRANCH   1   6
ATOM      3  N1  UNL     1      23.041   4.231  32.911  0.00  0.00    -0.269 N 
ATOM      4  C6  UNL     1      22.923   5.565  32.392  0.00  0.00    +0.304 C 
ATOM      5  O3  UNL     1      22.188   5.799  31.394  0.00  0.00    -0.252 OA
ATOM      6  N2  UNL     1      23.677   6.628  32.991  0.00  0.00    -0.293 N 
ATOM      7  H5  UNL     1      23.824   4.038  33.577  0.00  0.00    +0.156 HD
ATOM      8  H6  UNL     1      24.273   6.407  33.822  0.00  0.00    +0.151 HD
BRANCH   3  11
ATOM      9  C3  UNL     1      21.562   1.513  30.759  0.00  0.00    +0.096 A 
ATOM     10  C4  UNL     1      22.360   2.594  31.177  0.00  0.00    +0.041 A 
ATOM     11  C5  UNL     1      22.236   3.121  32.475  0.00  0.00    +0.036 A 
ATOM     12  C21 UNL     1      21.272   2.591  33.341  0.00  0.00    +0.026 A 
ATOM     13  C22 UNL     1      20.469   1.526  32.935  0.00  0.00    +0.041 A 
ATOM     14  C23 UNL     1      20.613   0.980  31.656  0.00  0.00    +0.137 A 
ATOM     15  F1  UNL     1      19.822  -0.069  31.308  0.00  0.00    -0.205 F 
BRANCH   9  16
ATOM     16  C2  UNL     1      21.733   0.960  29.392  0.00  0.00    +0.342 C 
ATOM     17  O2  UNL     1      20.850   1.151  28.509  0.00  0.00    -0.245 OA
BRANCH  16  19
ATOM     18  C1  UNL     1      22.835  -1.192  28.856  0.00  0.00    +0.280 C 
ATOM     19  O1  UNL     1      22.875   0.212  29.084  0.00  0.00    -0.464 OA
ENDBRANCH  16  19
ENDBRANCH   9  16
ENDBRANCH   3  11
ENDBRANCH   1   6
BRANCH   1  20
ATOM     20  C9  UNL     1      22.500   8.722  33.414  0.00  0.00    -0.027 A 
ATOM     21  C10 UNL     1      22.417   8.468  34.794  0.00  0.00    +0.007 A 
ATOM     22  C11 UNL     1      21.466   9.123  35.580  0.00  0.00    +0.023 A 
ATOM     23  C12 UNL     1      20.578  10.044  35.000  0.00  0.00    +0.034 A 
ATOM     24  C19 UNL     1      20.639  10.275  33.618  0.00  0.00    +0.023 A 
ATOM     25  C20 UNL     1      21.597   9.628  32.833  0.00  0.00    +0.007 A 
BRANCH  23  26
ATOM     26  N3  UNL     1      19.577  10.711  35.788  0.00  0.00    -0.282 N 
ATOM     27  C13 UNL     1      18.254  10.184  35.988  0.00  0.00    +0.248 C 
ATOM     28  O4  UNL     1      18.044   8.949  35.831  0.00  0.00    -0.270 OA
ATOM     29  H13 UNL     1      19.870  11.538  36.353  0.00  0.00    +0.155 HD
BRANCH  27  30
ATOM     30  C14 UNL     1      17.139  11.065  36.415  0.00  0.00    +0.040 A 
ATOM     31  C15 UNL     1      15.892  10.514  36.761  0.00  0.00    +0.033 A 
ATOM     32  C16 UNL     1      14.842  11.357  37.138  0.00  0.00    +0.111 A 
ATOM     33  N4  UNL     1      15.026  12.703  37.168  0.00  0.00    -0.263 NA
ATOM     34  C17 UNL     1      16.216  13.267  36.836  0.00  0.00    +0.111 A 
ATOM     35  C18 UNL     1      17.291  12.463  36.452  0.00  0.00    +0.033 A 
ENDBRANCH  27  30
ENDBRANCH  23  26
ENDBRANCH   1  20
TORSDOF 7
ENDMDL
MODEL 2
REMARK VINA RESULT:    -7.005      9.887     13.405
REMARK INTER + INTRA:         -10.752
REMARK INTER:                  -9.876
REMARK INTRA:                  -0.875
REMARK UNBOUND:                -0.881
REMARK  Name = /home/qwerty/github/datacon2025hack/step_04_hit_selection/docking/ligands/lig_162.pdb
REMARK  9 active torsions:
REMARK  status: ('A' for Active; 'I' for Inactive)
REMARK    1  A    between atoms: C1_1  and  O1_2
REMARK    2  A    between atoms: O1_2  and  C2_3
REMARK    3  A    between atoms: C2_3  and  C3_5
REMARK    4  A    between atoms: C5_7  and  N1_8
REMARK    5  A    between atoms: N2_11  and  C7_12
REMARK    6  A    between atoms: C7_12  and  C8_13
REMARK    7  A    between atoms: C7_12  and  C9_14
REMARK    8  A    between atoms: C12_17  and  N3_18
REMARK    9  A    between atoms: C13_19  and  C14_21
REMARK                            x       y       z     vdW  Elec       q    Type
REMARK                         _______ _______ _______ _____ _____    ______ ____
ROOT
ATOM      1  C7  UNL     1      15.477  -1.616  25.223  0.00  0.00    +0.102 C 
ATOM      2  C8  UNL     1      15.048  -3.084  25.119  0.00  0.00    +0.033 C 
ENDROOT
BRANCH   1   6
ATOM      3  N1  UNL     1      19.074  -0.324  24.873  0.00  0.00    -0.269 N 
ATOM      4  C6  UNL     1      17.747  -0.494  25.392  0.00  0.00    +0.304 C 
ATOM      5  O3  UNL     1      17.361   0.173  26.391  0.00  0.00    -0.252 OA
ATOM      6  N2  UNL     1      16.869  -1.457  24.793  0.00  0.00    -0.293 N 
ATOM      7  H5  UNL     1      19.431  -1.048  24.207  0.00  0.00    +0.156 HD
ATOM      8  H6  UNL     1      17.212  -1.992  23.961  0.00  0.00    +0.151 HD
BRANCH   3  11
ATOM      9  C3  UNL     1      21.446   1.678  27.013  0.00  0.00    +0.096 A 
ATOM     10  C4  UNL     1      20.561   0.667  26.593  0.00  0.00    +0.041 A 
ATOM     11  C5  UNL     1      19.987   0.699  25.310  0.00  0.00    +0.036 A 
ATOM     12  C21 UNL     1      20.266   1.776  24.461  0.00  0.00    +0.026 A 
ATOM     13  C22 UNL     1      21.135   2.788  24.868  0.00  0.00    +0.041 A 
ATOM     14  C23 UNL     1      21.731   2.742  26.131  0.00  0.00    +0.137 A 
ATOM     15  F1  UNL     1      22.584   3.740  26.481  0.00  0.00    -0.205 F 
BRANCH   9  16
ATOM     16  C2  UNL     1      22.058   1.604  28.363  0.00  0.00    +0.342 C 
ATOM     17  O2  UNL     1      21.329   1.521  29.391  0.00  0.00    -0.245 OA
BRANCH  16  19
ATOM     18  C1  UNL     1      24.181   0.625  29.178  0.00  0.00    +0.280 C 
ATOM     19  O1  UNL     1      23.451   1.638  28.497  0.00  0.00    -0.464 OA
ENDBRANCH  16  19
ENDBRANCH   9  16
ENDBRANCH   3  11
ENDBRANCH   1   6
BRANCH   1  20
ATOM     20  C9  UNL     1      14.576  -0.729  24.393  0.00  0.00    -0.027 A 
ATOM     21  C10 UNL     1      13.457  -0.102  24.969  0.00  0.00    +0.007 A 
ATOM     22  C11 UNL     1      12.631   0.722  24.200  0.00  0.00    +0.023 A 
ATOM     23  C12 UNL     1      12.909   0.934  22.839  0.00  0.00    +0.034 A 
ATOM     24  C19 UNL     1      14.007   0.286  22.256  0.00  0.00    +0.023 A 
ATOM     25  C20 UNL     1      14.840  -0.531  23.027  0.00  0.00    +0.007 A 
BRANCH  23  26
ATOM     26  N3  UNL     1      12.059   1.761  22.026  0.00  0.00    -0.282 N 
ATOM     27  C13 UNL     1      12.168   3.195  21.981  0.00  0.00    +0.248 C 
ATOM     28  O4  UNL     1      13.249   3.750  22.322  0.00  0.00    -0.270 OA
ATOM     29  H13 UNL     1      11.435   1.292  21.335  0.00  0.00    +0.155 HD
BRANCH  27  30
ATOM     30  C14 UNL     1      11.039   4.030  21.502  0.00  0.00    +0.040 A 
ATOM     31  C15 UNL     1       9.712   3.601  21.683  0.00  0.00    +0.033 A 
ATOM     32  C16 UNL     1       8.658   4.385  21.206  0.00  0.00    +0.111 A 
ATOM     33  N4  UNL     1       8.915   5.556  20.566  0.00  0.00    -0.263 NA
ATOM     34  C17 UNL     1      10.184   5.998  20.371  0.00  0.00    +0.111 A 
ATOM     35  C18 UNL     1      11.267   5.245  20.831  0.00  0.00    +0.033 A 
ENDBRANCH  27  30
ENDBRANCH  23  26
ENDBRANCH   1  20
TORSDOF 7
ENDMDL
MODEL 3
REMARK VINA RESULT:    -6.809     11.446     14.909
REMARK INTER + INTRA:         -10.476
REMARK INTER:                  -9.474
REMARK INTRA:                  -1.002
REMARK UNBOUND:                -0.881
REMARK  Name = /home/qwerty/github/datacon2025hack/step_04_hit_selection/docking/ligands/lig_162.pdb
REMARK  9 active torsions:
REMARK  status: ('A' for Active; 'I' for Inactive)
REMARK    1  A    between atoms: C1_1  and  O1_2
REMARK    2  A    between atoms: O1_2  and  C2_3
REMARK    3  A    between atoms: C2_3  and  C3_5
REMARK    4  A    between atoms: C5_7  and  N1_8
REMARK    5  A    between atoms: N2_11  and  C7_12
REMARK    6  A    between atoms: C7_12  and  C8_13
REMARK    7  A    between atoms: C7_12  and  C9_14
REMARK    8  A    between atoms: C12_17  and  N3_18
REMARK    9  A    between atoms: C13_19  and  C14_21
REMARK                            x       y       z     vdW  Elec       q    Type
REMARK                         _______ _______ _______ _____ _____    ______ ____
ROOT
ATOM      1  C7  UNL     1      10.556  13.163  29.042  0.00  0.00    +0.102 C 
ATOM      2  C8  UNL     1      10.192  14.113  27.895  0.00  0.00    +0.033 C 
ENDROOT
BRANCH   1   6
ATOM      3  N1  UNL     1      10.983  14.158  32.724  0.00  0.00    -0.269 N 
ATOM      4  C6  UNL     1      11.235  13.528  31.459  0.00  0.00    +0.304 C 
ATOM      5  O3  UNL     1      12.204  12.731  31.325  0.00  0.00    -0.252 OA
ATOM      6  N2  UNL     1      10.401  13.838  30.335  0.00  0.00    -0.293 N 
ATOM      7  H5  UNL     1      10.329  14.976  32.737  0.00  0.00    +0.156 HD
ATOM      8  H6  UNL     1       9.600  14.496  30.476  0.00  0.00    +0.151 HD
BRANCH   3  11
ATOM      9  C3  UNL     1      13.604  14.013  35.429  0.00  0.00    +0.096 A 
ATOM     10  C4  UNL     1      12.939  14.353  34.237  0.00  0.00    +0.041 A 
ATOM     11  C5  UNL     1      11.669  13.825  33.944  0.00  0.00    +0.036 A 
ATOM     12  C21 UNL     1      11.086  12.912  34.831  0.00  0.00    +0.026 A 
ATOM     13  C22 UNL     1      11.739  12.560  36.011  0.00  0.00    +0.041 A 
ATOM     14  C23 UNL     1      12.987  13.109  36.319  0.00  0.00    +0.137 A 
ATOM     15  F1  UNL     1      13.581  12.752  37.489  0.00  0.00    -0.205 F 
BRANCH   9  16
ATOM     16  C2  UNL     1      14.931  14.608  35.725  0.00  0.00    +0.342 C 
ATOM     17  O2  UNL     1      15.964  14.201  35.121  0.00  0.00    -0.245 OA
BRANCH  16  19
ATOM     18  C1  UNL     1      14.654  16.964  36.435  0.00  0.00    +0.280 C 
ATOM     19  O1  UNL     1      15.041  15.619  36.687  0.00  0.00    -0.464 OA
ENDBRANCH  16  19
ENDBRANCH   9  16
ENDBRANCH   3  11
ENDBRANCH   1   6
BRANCH   1  20
ATOM     20  C9  UNL     1       9.699  11.917  29.005  0.00  0.00    -0.027 A 
ATOM     21  C10 UNL     1      10.259  10.671  28.671  0.00  0.00    +0.007 A 
ATOM     22  C11 UNL     1       9.465   9.521  28.644  0.00  0.00    +0.023 A 
ATOM     23  C12 UNL     1       8.096   9.596  28.950  0.00  0.00    +0.034 A 
ATOM     24  C19 UNL     1       7.530  10.843  29.253  0.00  0.00    +0.023 A 
ATOM     25  C20 UNL     1       8.325  11.992  29.290  0.00  0.00    +0.007 A 
BRANCH  23  26
ATOM     26  N3  UNL     1       7.259   8.429  28.907  0.00  0.00    -0.282 N 
ATOM     27  C13 UNL     1       6.982   7.616  30.061  0.00  0.00    +0.248 C 
ATOM     28  O4  UNL     1       7.119   8.107  31.217  0.00  0.00    -0.270 OA
ATOM     29  H13 UNL     1       6.717   8.246  28.034  0.00  0.00    +0.155 HD
BRANCH  27  30
ATOM     30  C14 UNL     1       6.500   6.221  29.914  0.00  0.00    +0.040 A 
ATOM     31  C15 UNL     1       6.751   5.505  28.730  0.00  0.00    +0.033 A 
ATOM     32  C16 UNL     1       6.271   4.199  28.593  0.00  0.00    +0.111 A 
ATOM     33  N4  UNL     1       5.563   3.625  29.601  0.00  0.00    -0.263 NA
ATOM     34  C17 UNL     1       5.299   4.289  30.756  0.00  0.00    +0.111 A 
ATOM     35  C18 UNL     1       5.760   5.596  30.933  0.00  0.00    +0.033 A 
ENDBRANCH  27  30
ENDBRANCH  23  26
ENDBRANCH   1  20
TORSDOF 7
ENDMDL
MODEL 4
REMARK VINA RESULT:    -6.757     11.380     14.776
REMARK INTER + INTRA:         -10.402
REMARK INTER:                  -9.366
REMARK INTRA:                  -1.036
REMARK UNBOUND:                -0.881
REMARK  Name = /home/qwerty/github/datacon2025hack/step_04_hit_selection/docking/ligands/lig_162.pdb
REMARK  9 active torsions:
REMARK  status: ('A' for Active; 'I' for Inactive)
REMARK    1  A    between atoms: C1_1  and  O1_2
REMARK    2  A    between atoms: O1_2  and  C2_3
REMARK    3  A    between atoms: C2_3  and  C3_5
REMARK    4  A    between atoms: C5_7  and  N1_8
REMARK    5  A    between atoms: N2_11  and  C7_12
REMARK    6  A    between atoms: C7_12  and  C8_13
REMARK    7  A    between atoms: C7_12  and  C9_14
REMARK    8  A    between atoms: C12_17  and  N3_18
REMARK    9  A    between atoms: C13_19  and  C14_21
REMARK                            x       y       z     vdW  Elec       q    Type
REMARK                         _______ _______ _______ _____ _____    ______ ____
ROOT
ATOM      1  C7  UNL     1      10.576  13.189  28.964  0.00  0.00    +0.102 C 
ATOM      2  C8  UNL     1      10.220  14.147  27.820  0.00  0.00    +0.033 C 
ENDROOT
BRANCH   1   6
ATOM      3  N1  UNL     1      10.950  14.194  32.649  0.00  0.00    -0.269 N 
ATOM      4  C6  UNL     1      11.240  13.589  31.380  0.00  0.00    +0.304 C 
ATOM      5  O3  UNL     1      12.261  12.862  31.237  0.00  0.00    -0.252 OA
ATOM      6  N2  UNL     1      10.381  13.845  30.260  0.00  0.00    -0.293 N 
ATOM      7  H5  UNL     1      10.242  14.963  32.669  0.00  0.00    +0.156 HD
ATOM      8  H6  UNL     1       9.536  14.445  30.409  0.00  0.00    +0.151 HD
BRANCH   3  11
ATOM      9  C3  UNL     1      11.873  12.707  35.988  0.00  0.00    +0.096 A 
ATOM     10  C4  UNL     1      11.170  12.977  34.799  0.00  0.00    +0.041 A 
ATOM     11  C5  UNL     1      11.664  13.902  33.864  0.00  0.00    +0.036 A 
ATOM     12  C21 UNL     1      12.848  14.596  34.145  0.00  0.00    +0.026 A 
ATOM     13  C22 UNL     1      13.549  14.343  35.324  0.00  0.00    +0.041 A 
ATOM     14  C23 UNL     1      13.076  13.400  36.240  0.00  0.00    +0.137 A 
ATOM     15  F1  UNL     1      13.800  13.173  37.368  0.00  0.00    -0.205 F 
BRANCH   9  16
ATOM     16  C2  UNL     1      11.341  11.705  36.945  0.00  0.00    +0.342 C 
ATOM     17  O2  UNL     1      10.417  12.016  37.748  0.00  0.00    -0.245 OA
BRANCH  16  19
ATOM     18  C1  UNL     1      11.840   9.550  35.832  0.00  0.00    +0.280 C 
ATOM     19  O1  UNL     1      11.873  10.411  36.964  0.00  0.00    -0.464 OA
ENDBRANCH  16  19
ENDBRANCH   9  16
ENDBRANCH   3  11
ENDBRANCH   1   6
BRANCH   1  20
ATOM     20  C9  UNL     1       9.743  11.929  28.892  0.00  0.00    -0.027 A 
ATOM     21  C10 UNL     1       8.345  11.983  29.027  0.00  0.00    +0.007 A 
ATOM     22  C11 UNL     1       7.579  10.818  28.954  0.00  0.00    +0.023 A 
ATOM     23  C12 UNL     1       8.197   9.574  28.744  0.00  0.00    +0.034 A 
ATOM     24  C19 UNL     1       9.594   9.514  28.639  0.00  0.00    +0.023 A 
ATOM     25  C20 UNL     1      10.361  10.681  28.703  0.00  0.00    +0.007 A 
BRANCH  23  26
ATOM     26  N3  UNL     1       7.428   8.360  28.686  0.00  0.00    -0.282 N 
ATOM     27  C13 UNL     1       7.070   7.600  29.855  0.00  0.00    +0.248 C 
ATOM     28  O4  UNL     1       7.059   8.163  30.985  0.00  0.00    -0.270 OA
ATOM     29  H13 UNL     1       6.992   8.099  27.775  0.00  0.00    +0.155 HD
BRANCH  27  30
ATOM     30  C14 UNL     1       6.677   6.174  29.745  0.00  0.00    +0.040 A 
ATOM     31  C15 UNL     1       5.879   5.580  30.739  0.00  0.00    +0.033 A 
ATOM     32  C16 UNL     1       5.535   4.229  30.637  0.00  0.00    +0.111 A 
ATOM     33  N4  UNL     1       5.973   3.492  29.583  0.00  0.00    -0.263 NA
ATOM     34  C17 UNL     1       6.749   4.033  28.608  0.00  0.00    +0.111 A 
ATOM     35  C18 UNL     1       7.116   5.379  28.671  0.00  0.00    +0.033 A 
ENDBRANCH  27  30
ENDBRANCH  23  26
ENDBRANCH   1  20
TORSDOF 7
ENDMDL
MODEL 5
REMARK VINA RESULT:    -6.701     12.900     14.832
REMARK INTER + INTRA:         -10.324
REMARK INTER:                  -9.258
REMARK INTRA:                  -1.066
REMARK UNBOUND:                -0.881
REMARK  Name = /home/qwerty/github/datacon2025hack/step_04_hit_selection/docking/ligands/lig_162.pdb
REMARK  9 active torsions:
REMARK  status: ('A' for Active; 'I' for Inactive)
REMARK    1  A    between atoms: C1_1  and  O1_2
REMARK    2  A    between atoms: O1_2  and  C2_3
REMARK    3  A    between atoms: C2_3  and  C3_5
REMARK    4  A    between atoms: C5_7  and  N1_8
REMARK    5  A    between atoms: N2_11  and  C7_12
REMARK    6  A    between atoms: C7_12  and  C8_13
REMARK    7  A    between atoms: C7_12  and  C9_14
REMARK    8  A    between atoms: C12_17  and  N3_18
REMARK    9  A    between atoms: C13_19  and  C14_21
REMARK                            x       y       z     vdW  Elec       q    Type
REMARK                         _______ _______ _______ _____ _____    ______ ____
ROOT
ATOM      1  C7  UNL     1       8.566  10.889  28.311  0.00  0.00    +0.102 C 
ATOM      2  C8  UNL     1       7.541  11.095  29.432  0.00  0.00    +0.033 C 
ENDROOT
BRANCH   1   6
ATOM      3  N1  UNL     1       7.739  10.364  24.601  0.00  0.00    -0.269 N 
ATOM      4  C6  UNL     1       8.360  10.185  25.883  0.00  0.00    +0.304 C 
ATOM      5  O3  UNL     1       9.270   9.325  26.037  0.00  0.00    -0.252 OA
ATOM      6  N2  UNL     1       7.915  10.965  27.001  0.00  0.00    -0.293 N 
ATOM      7  H5  UNL     1       6.846  10.908  24.566  0.00  0.00    +0.156 HD
ATOM      8  H6  UNL     1       7.164  11.677  26.843  0.00  0.00    +0.151 HD
BRANCH   3  11
ATOM      9  C3  UNL     1       8.126   7.888  21.785  0.00  0.00    +0.096 A 
ATOM     10  C4  UNL     1       7.669   8.499  22.967  0.00  0.00    +0.041 A 
ATOM     11  C5  UNL     1       8.192   9.733  23.389  0.00  0.00    +0.036 A 
ATOM     12  C21 UNL     1       9.215  10.335  22.645  0.00  0.00    +0.026 A 
ATOM     13  C22 UNL     1       9.683   9.735  21.477  0.00  0.00    +0.041 A 
ATOM     14  C23 UNL     1       9.141   8.523  21.039  0.00  0.00    +0.137 A 
ATOM     15  F1  UNL     1       9.614   7.982  19.885  0.00  0.00    -0.205 F 
BRANCH   9  16
ATOM     16  C2  UNL     1       7.536   6.598  21.349  0.00  0.00    +0.342 C 
ATOM     17  O2  UNL     1       6.500   6.580  20.626  0.00  0.00    -0.245 OA
BRANCH  16  19
ATOM     18  C1  UNL     1       7.532   4.531  22.713  0.00  0.00    +0.280 C 
ATOM     19  O1  UNL     1       8.125   5.393  21.750  0.00  0.00    -0.464 OA
ENDBRANCH  16  19
ENDBRANCH   9  16
ENDBRANCH   3  11
ENDBRANCH   1   6
BRANCH   1  20
ATOM     20  C9  UNL     1       9.675  11.914  28.398  0.00  0.00    -0.027 A 
ATOM     21  C10 UNL     1       9.435  13.261  28.073  0.00  0.00    +0.007 A 
ATOM     22  C11 UNL     1      10.459  14.206  28.161  0.00  0.00    +0.023 A 
ATOM     23  C12 UNL     1      11.746  13.821  28.574  0.00  0.00    +0.034 A 
ATOM     24  C19 UNL     1      11.996  12.474  28.868  0.00  0.00    +0.023 A 
ATOM     25  C20 UNL     1      10.968  11.529  28.791  0.00  0.00    +0.007 A 
BRANCH  23  26
ATOM     26  N3  UNL     1      12.819  14.775  28.650  0.00  0.00    -0.282 N 
ATOM     27  C13 UNL     1      13.762  14.984  27.583  0.00  0.00    +0.248 C 
ATOM     28  O4  UNL     1      13.455  14.649  26.405  0.00  0.00    -0.270 OA
ATOM     29  H13 UNL     1      12.828  15.441  29.453  0.00  0.00    +0.155 HD
BRANCH  27  30
ATOM     30  C14 UNL     1      15.075  15.624  27.840  0.00  0.00    +0.040 A 
ATOM     31  C15 UNL     1      15.586  15.694  29.149  0.00  0.00    +0.033 A 
ATOM     32  C16 UNL     1      16.813  16.321  29.382  0.00  0.00    +0.111 A 
ATOM     33  N4  UNL     1      17.509  16.864  28.348  0.00  0.00    -0.263 NA
ATOM     34  C17 UNL     1      17.042  16.818  27.073  0.00  0.00    +0.111 A 
ATOM     35  C18 UNL     1      15.820  16.202  26.796  0.00  0.00    +0.033 A 
ENDBRANCH  27  30
ENDBRANCH  23  26
ENDBRANCH   1  20
TORSDOF 7
ENDMDL
MODEL 6
REMARK VINA RESULT:    -6.700     11.554     13.883
REMARK INTER + INTRA:         -10.323
REMARK INTER:                  -9.927
REMARK INTRA:                  -0.395
REMARK UNBOUND:                -0.881
REMARK  Name = /home/qwerty/github/datacon2025hack/step_04_hit_selection/docking/ligands/lig_162.pdb
REMARK  9 active torsions:
REMARK  status: ('A' for Active; 'I' for Inactive)
REMARK    1  A    between atoms: C1_1  and  O1_2
REMARK    2  A    between atoms: O1_2  and  C2_3
REMARK    3  A    between atoms: C2_3  and  C3_5
REMARK    4  A    between atoms: C5_7  and  N1_8
REMARK    5  A    between atoms: N2_11  and  C7_12
REMARK    6  A    between atoms: C7_12  and  C8_13
REMARK    7  A    between atoms: C7_12  and  C9_14
REMARK    8  A    between atoms: C12_17  and  N3_18
REMARK    9  A    between atoms: C13_19  and  C14_21
REMARK                            x       y       z     vdW  Elec       q    Type
REMARK                         _______ _______ _______ _____ _____    ______ ____
ROOT
ATOM      1  C7  UNL     1       8.488  12.834  29.112  0.00  0.00    +0.102 C 
ATOM      2  C8  UNL     1       7.432  13.781  29.694  0.00  0.00    +0.033 C 
ENDROOT
BRANCH   1   6
ATOM      3  N1  UNL     1       7.991  10.731  25.940  0.00  0.00    -0.269 N 
ATOM      4  C6  UNL     1       8.301  11.067  27.301  0.00  0.00    +0.304 C 
ATOM      5  O3  UNL     1       8.710  10.180  28.100  0.00  0.00    -0.252 OA
ATOM      6  N2  UNL     1       8.109  12.412  27.760  0.00  0.00    -0.293 N 
ATOM      7  H5  UNL     1       7.443  11.426  25.382  0.00  0.00    +0.156 HD
ATOM      8  H6  UNL     1       7.776  13.129  27.075  0.00  0.00    +0.151 HD
BRANCH   3  11
ATOM      9  C3  UNL     1       8.906   8.088  23.412  0.00  0.00    +0.096 A 
ATOM     10  C4  UNL     1       8.645   9.345  23.990  0.00  0.00    +0.041 A 
ATOM     11  C5  UNL     1       8.269   9.453  25.341  0.00  0.00    +0.036 A 
ATOM     12  C21 UNL     1       8.107   8.290  26.102  0.00  0.00    +0.026 A 
ATOM     13  C22 UNL     1       8.354   7.038  25.539  0.00  0.00    +0.041 A 
ATOM     14  C23 UNL     1       8.759   6.931  24.206  0.00  0.00    +0.137 A 
ATOM     15  F1  UNL     1       9.006   5.693  23.702  0.00  0.00    -0.205 F 
BRANCH   9  16
ATOM     16  C2  UNL     1       9.327   8.006  21.992  0.00  0.00    +0.342 C 
ATOM     17  O2  UNL     1       8.465   7.933  21.072  0.00  0.00    -0.245 OA
BRANCH  16  19
ATOM     18  C1  UNL     1      11.235   7.174  20.650  0.00  0.00    +0.280 C 
ATOM     19  O1  UNL     1      10.690   8.000  21.671  0.00  0.00    -0.464 OA
ENDBRANCH  16  19
ENDBRANCH   9  16
ENDBRANCH   3  11
ENDBRANCH   1   6
BRANCH   1  20
ATOM     20  C9  UNL     1       9.849  13.493  29.085  0.00  0.00    -0.027 A 
ATOM     21  C10 UNL     1      10.387  13.980  27.880  0.00  0.00    +0.007 A 
ATOM     22  C11 UNL     1      11.641  14.595  27.861  0.00  0.00    +0.023 A 
ATOM     23  C12 UNL     1      12.382  14.734  29.046  0.00  0.00    +0.034 A 
ATOM     24  C19 UNL     1      11.860  14.222  30.243  0.00  0.00    +0.023 A 
ATOM     25  C20 UNL     1      10.601  13.616  30.265  0.00  0.00    +0.007 A 
BRANCH  23  26
ATOM     26  N3  UNL     1      13.684  15.344  29.043  0.00  0.00    -0.282 N 
ATOM     27  C13 UNL     1      14.905  14.591  29.154  0.00  0.00    +0.248 C 
ATOM     28  O4  UNL     1      14.912  13.365  28.852  0.00  0.00    -0.270 OA
ATOM     29  H13 UNL     1      13.749  16.358  28.807  0.00  0.00    +0.155 HD
BRANCH  27  30
ATOM     30  C14 UNL     1      16.167  15.245  29.582  0.00  0.00    +0.040 A 
ATOM     31  C15 UNL     1      16.446  16.568  29.196  0.00  0.00    +0.033 A 
ATOM     32  C16 UNL     1      17.650  17.164  29.585  0.00  0.00    +0.111 A 
ATOM     33  N4  UNL     1      18.546  16.466  30.331  0.00  0.00    -0.263 NA
ATOM     34  C17 UNL     1      18.310  15.185  30.716  0.00  0.00    +0.111 A 
ATOM     35  C18 UNL     1      17.121  14.551  30.348  0.00  0.00    +0.033 A 
ENDBRANCH  27  30
ENDBRANCH  23  26
ENDBRANCH   1  20
TORSDOF 7
ENDMDL
MODEL 7
REMARK VINA RESULT:    -6.691     12.865     14.809
REMARK INTER + INTRA:         -10.309
REMARK INTER:                  -9.279
REMARK INTRA:                  -1.030
REMARK UNBOUND:                -0.881
REMARK  Name = /home/qwerty/github/datacon2025hack/step_04_hit_selection/docking/ligands/lig_162.pdb
REMARK  9 active torsions:
REMARK  status: ('A' for Active; 'I' for Inactive)
REMARK    1  A    between atoms: C1_1  and  O1_2
REMARK    2  A    between atoms: O1_2  and  C2_3
REMARK    3  A    between atoms: C2_3  and  C3_5
REMARK    4  A    between atoms: C5_7  and  N1_8
REMARK    5  A    between atoms: N2_11  and  C7_12
REMARK    6  A    between atoms: C7_12  and  C8_13
REMARK    7  A    between atoms: C7_12  and  C9_14
REMARK    8  A    between atoms: C12_17  and  N3_18
REMARK    9  A    between atoms: C13_19  and  C14_21
REMARK                            x       y       z     vdW  Elec       q    Type
REMARK                         _______ _______ _______ _____ _____    ______ ____
ROOT
ATOM      1  C7  UNL     1       8.592  10.868  28.197  0.00  0.00    +0.102 C 
ATOM      2  C8  UNL     1       7.539  11.088  29.290  0.00  0.00    +0.033 C 
ENDROOT
BRANCH   1   6
ATOM      3  N1  UNL     1       7.848  10.242  24.485  0.00  0.00    -0.269 N 
ATOM      4  C6  UNL     1       8.439  10.097  25.785  0.00  0.00    +0.304 C 
ATOM      5  O3  UNL     1       9.343   9.240  25.984  0.00  0.00    -0.252 OA
ATOM      6  N2  UNL     1       7.970  10.909  26.871  0.00  0.00    -0.293 N 
ATOM      7  H5  UNL     1       6.957  10.786  24.415  0.00  0.00    +0.156 HD
ATOM      8  H6  UNL     1       7.225  11.617  26.676  0.00  0.00    +0.151 HD
BRANCH   3  11
ATOM      9  C3  UNL     1       9.550   9.599  21.183  0.00  0.00    +0.096 A 
ATOM     10  C4  UNL     1       9.094  10.258  22.340  0.00  0.00    +0.041 A 
ATOM     11  C5  UNL     1       8.327   9.577  23.302  0.00  0.00    +0.036 A 
ATOM     12  C21 UNL     1       7.974   8.241  23.077  0.00  0.00    +0.026 A 
ATOM     13  C22 UNL     1       8.413   7.580  21.930  0.00  0.00    +0.041 A 
ATOM     14  C23 UNL     1       9.202   8.246  20.989  0.00  0.00    +0.137 A 
ATOM     15  F1  UNL     1       9.622   7.559  19.893  0.00  0.00    -0.205 F 
BRANCH   9  16
ATOM     16  C2  UNL     1      10.381  10.336  20.198  0.00  0.00    +0.342 C 
ATOM     17  O2  UNL     1       9.865  11.223  19.463  0.00  0.00    -0.245 OA
BRANCH  16  19
ATOM     18  C1  UNL     1      12.693  10.362  21.085  0.00  0.00    +0.280 C 
ATOM     19  O1  UNL     1      11.743  10.037  20.078  0.00  0.00    -0.464 OA
ENDBRANCH  16  19
ENDBRANCH   9  16
ENDBRANCH   3  11
ENDBRANCH   1   6
BRANCH   1  20
ATOM     20  C9  UNL     1       9.688  11.906  28.287  0.00  0.00    -0.027 A 
ATOM     21  C10 UNL     1       9.480  13.213  27.811  0.00  0.00    +0.007 A 
ATOM     22  C11 UNL     1      10.493  14.170  27.902  0.00  0.00    +0.023 A 
ATOM     23  C12 UNL     1      11.735  13.839  28.470  0.00  0.00    +0.034 A 
ATOM     24  C19 UNL     1      11.954  12.528  28.916  0.00  0.00    +0.023 A 
ATOM     25  C20 UNL     1      10.938  11.572  28.836  0.00  0.00    +0.007 A 
BRANCH  23  26
ATOM     26  N3  UNL     1      12.797  14.805  28.553  0.00  0.00    -0.282 N 
ATOM     27  C13 UNL     1      13.796  14.963  27.530  0.00  0.00    +0.248 C 
ATOM     28  O4  UNL     1      13.557  14.562  26.357  0.00  0.00    -0.270 OA
ATOM     29  H13 UNL     1      12.756  15.513  29.317  0.00  0.00    +0.155 HD
BRANCH  27  30
ATOM     30  C14 UNL     1      15.089  15.628  27.824  0.00  0.00    +0.040 A 
ATOM     31  C15 UNL     1      15.841  16.208  26.787  0.00  0.00    +0.033 A 
ATOM     32  C16 UNL     1      17.070  16.810  27.074  0.00  0.00    +0.111 A 
ATOM     33  N4  UNL     1      17.537  16.832  28.350  0.00  0.00    -0.263 NA
ATOM     34  C17 UNL     1      16.838  16.277  29.375  0.00  0.00    +0.111 A 
ATOM     35  C18 UNL     1      15.606  15.664  29.132  0.00  0.00    +0.033 A 
ENDBRANCH  27  30
ENDBRANCH  23  26
ENDBRANCH   1  20
TORSDOF 7
ENDMDL
MODEL 8
REMARK VINA RESULT:    -6.681      6.688     12.460
REMARK INTER + INTRA:         -10.296
REMARK INTER:                  -9.429
REMARK INTRA:                  -0.867
REMARK UNBOUND:                -0.881
REMARK  Name = /home/qwerty/github/datacon2025hack/step_04_hit_selection/docking/ligands/lig_162.pdb
REMARK  9 active torsions:
REMARK  status: ('A' for Active; 'I' for Inactive)
REMARK    1  A    between atoms: C1_1  and  O1_2
REMARK    2  A    between atoms: O1_2  and  C2_3
REMARK    3  A    between atoms: C2_3  and  C3_5
REMARK    4  A    between atoms: C5_7  and  N1_8
REMARK    5  A    between atoms: N2_11  and  C7_12
REMARK    6  A    between atoms: C7_12  and  C8_13
REMARK    7  A    between atoms: C7_12  and  C9_14
REMARK    8  A    between atoms: C12_17  and  N3_18
REMARK    9  A    between atoms: C13_19  and  C14_21
REMARK                            x       y       z     vdW  Elec       q    Type
REMARK                         _______ _______ _______ _____ _____    ______ ____
ROOT
ATOM      1  C7  UNL     1      11.644  11.445  36.201  0.00  0.00    +0.102 C 
ATOM      2  C8  UNL     1      10.911  11.541  37.544  0.00  0.00    +0.033 C 
ENDROOT
BRANCH   1   6
ATOM      3  N1  UNL     1      11.371  13.938  33.296  0.00  0.00    -0.269 N 
ATOM      4  C6  UNL     1      11.462  12.689  33.997  0.00  0.00    +0.304 C 
ATOM      5  O3  UNL     1      11.506  11.601  33.360  0.00  0.00    -0.252 OA
ATOM      6  N2  UNL     1      11.467  12.680  35.431  0.00  0.00    -0.293 N 
ATOM      7  H5  UNL     1      11.105  14.786  33.848  0.00  0.00    +0.156 HD
ATOM      8  H6  UNL     1      11.438  13.597  35.934  0.00  0.00    +0.151 HD
BRANCH   3  11
ATOM      9  C3  UNL     1      10.612  13.745  29.608  0.00  0.00    +0.096 A 
ATOM     10  C4  UNL     1      10.481  13.615  31.003  0.00  0.00    +0.041 A 
ATOM     11  C5  UNL     1      11.490  14.073  31.868  0.00  0.00    +0.036 A 
ATOM     12  C21 UNL     1      12.659  14.622  31.327  0.00  0.00    +0.026 A 
ATOM     13  C22 UNL     1      12.805  14.748  29.946  0.00  0.00    +0.041 A 
ATOM     14  C23 UNL     1      11.789  14.322  29.087  0.00  0.00    +0.137 A 
ATOM     15  F1  UNL     1      11.965  14.480  27.748  0.00  0.00    -0.205 F 
BRANCH   9  16
ATOM     16  C2  UNL     1       9.518  13.277  28.721  0.00  0.00    +0.342 C 
ATOM     17  O2  UNL     1       9.058  12.106  28.835  0.00  0.00    -0.245 OA
BRANCH  16  19
ATOM     18  C1  UNL     1       7.629  14.132  27.366  0.00  0.00    +0.280 C 
ATOM     19  O1  UNL     1       9.001  14.136  27.744  0.00  0.00    -0.464 OA
ENDBRANCH  16  19
ENDBRANCH   9  16
ENDBRANCH   3  11
ENDBRANCH   1   6
BRANCH   1  20
ATOM     20  C9  UNL     1      13.118  11.173  36.408  0.00  0.00    -0.027 A 
ATOM     21  C10 UNL     1      13.957  12.153  36.968  0.00  0.00    +0.007 A 
ATOM     22  C11 UNL     1      15.316  11.895  37.164  0.00  0.00    +0.023 A 
ATOM     23  C12 UNL     1      15.862  10.652  36.804  0.00  0.00    +0.034 A 
ATOM     24  C19 UNL     1      15.033   9.685  36.217  0.00  0.00    +0.023 A 
ATOM     25  C20 UNL     1      13.671   9.938  36.030  0.00  0.00    +0.007 A 
BRANCH  23  26
ATOM     26  N3  UNL     1      17.262  10.375  36.978  0.00  0.00    -0.282 N 
ATOM     27  C13 UNL     1      18.198  10.342  35.886  0.00  0.00    +0.248 C 
ATOM     28  O4  UNL     1      17.924  10.943  34.810  0.00  0.00    -0.270 OA
ATOM     29  H13 UNL     1      17.637  10.338  37.950  0.00  0.00    +0.155 HD
BRANCH  27  30
ATOM     30  C14 UNL     1      19.501   9.644  36.019  0.00  0.00    +0.040 A 
ATOM     31  C15 UNL     1      20.487   9.787  35.028  0.00  0.00    +0.033 A 
ATOM     32  C16 UNL     1      21.701   9.104  35.153  0.00  0.00    +0.111 A 
ATOM     33  N4  UNL     1      21.925   8.304  36.228  0.00  0.00    -0.263 NA
ATOM     34  C17 UNL     1      20.991   8.140  37.201  0.00  0.00    +0.111 A 
ATOM     35  C18 UNL     1      19.765   8.802  37.115  0.00  0.00    +0.033 A 
ENDBRANCH  27  30
ENDBRANCH  23  26
ENDBRANCH   1  20
TORSDOF 7
ENDMDL
MODEL 9
REMARK VINA RESULT:    -6.595      9.988     13.175
REMARK INTER + INTRA:         -10.174
REMARK INTER:                  -9.301
REMARK INTRA:                  -0.873
REMARK UNBOUND:                -0.881
REMARK  Name = /home/qwerty/github/datacon2025hack/step_04_hit_selection/docking/ligands/lig_162.pdb
REMARK  9 active torsions:
REMARK  status: ('A' for Active; 'I' for Inactive)
REMARK    1  A    between atoms: C1_1  and  O1_2
REMARK    2  A    between atoms: O1_2  and  C2_3
REMARK    3  A    between atoms: C2_3  and  C3_5
REMARK    4  A    between atoms: C5_7  and  N1_8
REMARK    5  A    between atoms: N2_11  and  C7_12
REMARK    6  A    between atoms: C7_12  and  C8_13
REMARK    7  A    between atoms: C7_12  and  C9_14
REMARK    8  A    between atoms: C12_17  and  N3_18
REMARK    9  A    between atoms: C13_19  and  C14_21
REMARK                            x       y       z     vdW  Elec       q    Type
REMARK                         _______ _______ _______ _____ _____    ______ ____
ROOT
ATOM      1  C7  UNL     1      16.660  -0.430  23.029  0.00  0.00    +0.102 C 
ATOM      2  C8  UNL     1      17.281  -1.231  21.878  0.00  0.00    +0.033 C 
ENDROOT
BRANCH   1   6
ATOM      3  N1  UNL     1      19.089   1.209  25.508  0.00  0.00    -0.269 N 
ATOM      4  C6  UNL     1      18.181   0.252  24.942  0.00  0.00    +0.304 C 
ATOM      5  O3  UNL     1      17.870  -0.789  25.583  0.00  0.00    -0.252 OA
ATOM      6  N2  UNL     1      17.656   0.466  23.625  0.00  0.00    -0.293 N 
ATOM      7  H5  UNL     1      19.500   1.926  24.867  0.00  0.00    +0.156 HD
ATOM      8  H6  UNL     1      17.925   1.342  23.119  0.00  0.00    +0.151 HD
BRANCH   3  11
ATOM      9  C3  UNL     1      21.342   0.707  28.489  0.00  0.00    +0.096 A 
ATOM     10  C4  UNL     1      20.884   0.757  27.159  0.00  0.00    +0.041 A 
ATOM     11  C5  UNL     1      19.571   1.161  26.863  0.00  0.00    +0.036 A 
ATOM     12  C21 UNL     1      18.697   1.471  27.912  0.00  0.00    +0.026 A 
ATOM     13  C22 UNL     1      19.135   1.417  29.235  0.00  0.00    +0.041 A 
ATOM     14  C23 UNL     1      20.450   1.046  29.528  0.00  0.00    +0.137 A 
ATOM     15  F1  UNL     1      20.841   1.023  30.830  0.00  0.00    -0.205 F 
BRANCH   9  16
ATOM     16  C2  UNL     1      22.742   0.302  28.770  0.00  0.00    +0.342 C 
ATOM     17  O2  UNL     1      23.648   1.174  28.890  0.00  0.00    -0.245 OA
BRANCH  16  19
ATOM     18  C1  UNL     1      24.401  -1.532  28.889  0.00  0.00    +0.280 C 
ATOM     19  O1  UNL     1      23.061  -1.055  28.891  0.00  0.00    -0.464 OA
ENDBRANCH  16  19
ENDBRANCH   9  16
ENDBRANCH   3  11
ENDBRANCH   1   6
BRANCH   1  20
ATOM     20  C9  UNL     1      15.468   0.369  22.551  0.00  0.00    -0.027 A 
ATOM     21  C10 UNL     1      14.525   0.869  23.466  0.00  0.00    +0.007 A 
ATOM     22  C11 UNL     1      13.429   1.612  23.021  0.00  0.00    +0.023 A 
ATOM     23  C12 UNL     1      13.254   1.868  21.650  0.00  0.00    +0.034 A 
ATOM     24  C19 UNL     1      14.177   1.343  20.734  0.00  0.00    +0.023 A 
ATOM     25  C20 UNL     1      15.279   0.608  21.179  0.00  0.00    +0.007 A 
BRANCH  23  26
ATOM     26  N3  UNL     1      12.121   2.611  21.170  0.00  0.00    -0.282 N 
ATOM     27  C13 UNL     1      11.979   4.032  21.351  0.00  0.00    +0.248 C 
ATOM     28  O4  UNL     1      13.003   4.738  21.568  0.00  0.00    -0.270 OA
ATOM     29  H13 UNL     1      11.446   2.124  20.542  0.00  0.00    +0.155 HD
BRANCH  27  30
ATOM     30  C14 UNL     1      10.651   4.684  21.249  0.00  0.00    +0.040 A 
ATOM     31  C15 UNL     1       9.526   4.103  21.862  0.00  0.00    +0.033 A 
ATOM     32  C16 UNL     1       8.275   4.714  21.737  0.00  0.00    +0.111 A 
ATOM     33  N4  UNL     1       8.146   5.864  21.025  0.00  0.00    -0.263 NA
ATOM     34  C17 UNL     1       9.211   6.449  20.417  0.00  0.00    +0.111 A 
ATOM     35  C18 UNL     1      10.479   5.872  20.515  0.00  0.00    +0.033 A 
ENDBRANCH  27  30
ENDBRANCH  23  26
ENDBRANCH   1  20
TORSDOF 7
ENDMDL
