REMARK  Name = /home/qwerty/github/datacon2025hack/step_04_hit_selection/docking/ligands/lig_509.pdb
REMARK  8 active torsions:
REMARK  status: ('A' for Active; 'I' for Inactive)
REMARK    1  A    between atoms: C1_1  and  O1_2
REMARK    2  A    between atoms: O1_2  and  C2_3
REMARK    3  A    between atoms: C2_3  and  C3_5
REMARK    4  A    between atoms: C6_8  and  S1_9
REMARK    5  A    between atoms: S1_9  and  N1_12
REMARK    6  A    between atoms: N1_12  and  C7_13
REMARK    7  A    between atoms: C12_19  and  C13_20
REMARK    8  A    between atoms: N4_22  and  C14_23
REMARK                            x       y       z     vdW  Elec       q    Type
REMARK                         _______ _______ _______ _____ _____    ______ ____
ROOT
ATOM      1  S1  UNL     1      -0.096   3.195  -1.483  0.00  0.00    +0.072 S 
ATOM      2  O3  UNL     1      -0.988   3.874  -0.481  0.00  0.00    -0.150 OA
ATOM      3  O4  UNL     1       0.605   4.241  -2.302  0.00  0.00    -0.150 OA
ENDROOT
BRANCH   1   7
ATOM      4  C3  UNL     1       3.003   0.568   0.625  0.00  0.00    +0.059 A 
ATOM      5  C4  UNL     1       2.329   1.578   1.333  0.00  0.00    +0.017 A 
ATOM      6  C5  UNL     1       1.392   2.391   0.688  0.00  0.00    +0.029 A 
ATOM      7  C6  UNL     1       1.114   2.205  -0.672  0.00  0.00    +0.109 A 
ATOM      8  C15 UNL     1       1.787   1.206  -1.384  0.00  0.00    +0.029 A 
ATOM      9  C16 UNL     1       2.724   0.391  -0.742  0.00  0.00    +0.017 A 
BRANCH   4  10
ATOM     10  C2  UNL     1       3.989  -0.295   1.312  0.00  0.00    +0.339 C 
ATOM     11  O2  UNL     1       4.593  -1.201   0.673  0.00  0.00    -0.245 OA
BRANCH  10  13
ATOM     12  C1  UNL     1       5.187  -0.902   3.393  0.00  0.00    +0.280 C 
ATOM     13  O1  UNL     1       4.252  -0.106   2.674  0.00  0.00    -0.464 OA
ENDBRANCH  10  13
ENDBRANCH   4  10
ENDBRANCH   1   7
BRANCH   1  14
ATOM     14  N1  UNL     1      -1.067   2.203  -2.525  0.00  0.00    -0.215 N 
ATOM     15  H6  UNL     1      -1.107   2.471  -3.534  0.00  0.00    +0.174 HD
BRANCH  14  16
ATOM     16  C7  UNL     1      -1.714   0.992  -2.097  0.00  0.00    +0.067 A 
ATOM     17  C8  UNL     1      -2.275   0.122  -3.072  0.00  0.00    +0.137 A 
ATOM     18  N2  UNL     1      -2.879  -1.049  -2.705  0.00  0.00    -0.234 NA
ATOM     19  C9  UNL     1      -2.945  -1.364  -1.389  0.00  0.00    +0.158 A 
ATOM     20  C10 UNL     1      -2.430  -0.564  -0.420  0.00  0.00    +0.043 A 
ATOM     21  C11 UNL     1      -1.803   0.636  -0.729  0.00  0.00    +0.039 A 
ATOM     22  C12 UNL     1      -2.661  -1.242   0.761  0.00  0.00    +0.069 A 
ATOM     23  C13 UNL     1      -2.219  -0.830   2.126  0.00  0.00    +0.068 C 
ATOM     24  N3  UNL     1      -3.280  -2.417   0.477  0.00  0.00    -0.174 NA
ATOM     25  N4  UNL     1      -3.466  -2.472  -0.839  0.00  0.00    -0.249 N 
ATOM     26  C14 UNL     1      -4.039  -3.613  -1.541  0.00  0.00    +0.174 C 
ENDBRANCH  14  16
ENDBRANCH   1  14
TORSDOF 5
