MODEL 1
REMARK VINA RESULT:    -6.923      0.000      0.000
REMARK INTER + INTRA:          -8.259
REMARK INTER:                  -7.733
REMARK INTRA:                  -0.526
REMARK UNBOUND:                -0.526
REMARK  Name = /home/qwerty/github/datacon2025hack/step_04_hit_selection/docking/ligands/lig_348.pdb
REMARK  4 active torsions:
REMARK  status: ('A' for Active; 'I' for Inactive)
REMARK    1  A    between atoms: C1_1  and  C2_2
REMARK    2  A    between atoms: C13_15  and  C14_16
REMARK    3  A    between atoms: C17_19  and  O2_20
REMARK    4  A    between atoms: C18_21  and  O3_22
REMARK                            x       y       z     vdW  Elec       q    Type
REMARK                         _______ _______ _______ _____ _____    ______ ____
ROOT
ATOM      1  C1  UNL     1      18.764   1.150  29.507  0.00  0.00    +0.044 C 
ATOM      2  C2  UNL     1      19.662   1.660  30.594  0.00  0.00    -0.050 A 
ATOM      3  C3  UNL     1      19.832   0.907  31.785  0.00  0.00    +0.005 A 
ATOM      4  C4  UNL     1      20.642   1.388  32.829  0.00  0.00    +0.026 A 
ATOM      5  C5  UNL     1      21.257   2.626  32.661  0.00  0.00    +0.047 A 
ATOM      6  N1  UNL     1      22.060   3.262  33.539  0.00  0.00    -0.357 N 
ATOM      7  C6  UNL     1      22.396   4.424  32.937  0.00  0.00    +0.039 A 
ATOM      8  C7  UNL     1      21.813   4.524  31.692  0.00  0.00    +0.051 A 
ATOM      9  C8  UNL     1      21.081   3.368  31.516  0.00  0.00    +0.011 A 
ATOM     10  C9  UNL     1      20.286   2.919  30.463  0.00  0.00    +0.014 A 
ATOM     11  C10 UNL     1      22.028   5.687  30.836  0.00  0.00    +0.188 C 
ATOM     12  O1  UNL     1      21.484   5.783  29.703  0.00  0.00    -0.287 OA
ATOM     13  C11 UNL     1      22.918   6.747  31.340  0.00  0.00    +0.048 C 
ATOM     14  C12 UNL     1      23.493   6.663  32.556  0.00  0.00    -0.009 C 
ATOM     15  C13 UNL     1      23.265   5.508  33.527  0.00  0.00    +0.089 C 
ATOM     16  H6  UNL     1      22.352   2.932  34.486  0.00  0.00    +0.166 HD
ENDROOT
BRANCH  15  17
ATOM     17  C14 UNL     1      22.649   6.026  34.806  0.00  0.00    -0.031 A 
ATOM     18  C15 UNL     1      21.271   6.281  34.875  0.00  0.00    +0.008 A 
ATOM     19  C16 UNL     1      20.703   6.767  36.053  0.00  0.00    +0.049 A 
ATOM     20  C17 UNL     1      21.492   7.009  37.183  0.00  0.00    +0.158 A 
ATOM     21  C18 UNL     1      22.883   6.757  37.125  0.00  0.00    +0.159 A 
ATOM     22  C19 UNL     1      23.446   6.269  35.939  0.00  0.00    +0.053 A 
BRANCH  20  23
ATOM     23  O2  UNL     1      20.861   7.496  38.329  0.00  0.00    -0.503 OA
ATOM     24  H13 UNL     1      20.583   8.459  38.455  0.00  0.00    +0.292 HD
ENDBRANCH  20  23
BRANCH  21  25
ATOM     25  O3  UNL     1      23.736   6.975  38.209  0.00  0.00    -0.503 OA
ATOM     26  H14 UNL     1      23.896   7.880  38.628  0.00  0.00    +0.292 HD
ENDBRANCH  21  25
ENDBRANCH  15  17
TORSDOF 3
ENDMDL
MODEL 2
REMARK VINA RESULT:    -6.884      3.494      6.294
REMARK INTER + INTRA:          -8.215
REMARK INTER:                  -7.596
REMARK INTRA:                  -0.620
REMARK UNBOUND:                -0.526
REMARK  Name = /home/qwerty/github/datacon2025hack/step_04_hit_selection/docking/ligands/lig_348.pdb
REMARK  4 active torsions:
REMARK  status: ('A' for Active; 'I' for Inactive)
REMARK    1  A    between atoms: C1_1  and  C2_2
REMARK    2  A    between atoms: C13_15  and  C14_16
REMARK    3  A    between atoms: C17_19  and  O2_20
REMARK    4  A    between atoms: C18_21  and  O3_22
REMARK                            x       y       z     vdW  Elec       q    Type
REMARK                         _______ _______ _______ _____ _____    ______ ____
ROOT
ATOM      1  C1  UNL     1      18.023   6.168  37.741  0.00  0.00    +0.044 C 
ATOM      2  C2  UNL     1      19.277   6.741  37.153  0.00  0.00    -0.050 A 
ATOM      3  C3  UNL     1      19.717   8.033  37.541  0.00  0.00    +0.005 A 
ATOM      4  C4  UNL     1      20.872   8.599  36.970  0.00  0.00    +0.026 A 
ATOM      5  C5  UNL     1      21.556   7.859  36.009  0.00  0.00    +0.047 A 
ATOM      6  N1  UNL     1      22.670   8.224  35.343  0.00  0.00    -0.357 N 
ATOM      7  C6  UNL     1      22.945   7.190  34.517  0.00  0.00    +0.039 A 
ATOM      8  C7  UNL     1      22.016   6.182  34.658  0.00  0.00    +0.051 A 
ATOM      9  C8  UNL     1      21.123   6.613  35.618  0.00  0.00    +0.011 A 
ATOM     10  C9  UNL     1      19.985   6.023  36.163  0.00  0.00    +0.014 A 
ATOM     11  C10 UNL     1      22.097   4.950  33.879  0.00  0.00    +0.188 C 
ATOM     12  O1  UNL     1      21.239   4.035  34.000  0.00  0.00    -0.287 OA
ATOM     13  C11 UNL     1      23.231   4.808  32.948  0.00  0.00    +0.048 C 
ATOM     14  C12 UNL     1      24.145   5.786  32.800  0.00  0.00    -0.009 C 
ATOM     15  C13 UNL     1      24.089   7.122  33.535  0.00  0.00    +0.089 C 
ATOM     16  H6  UNL     1      23.203   9.118  35.438  0.00  0.00    +0.166 HD
ENDROOT
BRANCH  15  17
ATOM     17  C14 UNL     1      23.983   8.253  32.538  0.00  0.00    -0.031 A 
ATOM     18  C15 UNL     1      24.994   9.221  32.454  0.00  0.00    +0.008 A 
ATOM     19  C16 UNL     1      24.893  10.270  31.540  0.00  0.00    +0.049 A 
ATOM     20  C17 UNL     1      23.784  10.377  30.693  0.00  0.00    +0.158 A 
ATOM     21  C18 UNL     1      22.756   9.407  30.769  0.00  0.00    +0.159 A 
ATOM     22  C19 UNL     1      22.866   8.357  31.689  0.00  0.00    +0.053 A 
BRANCH  20  23
ATOM     23  O2  UNL     1      23.744  11.451  29.802  0.00  0.00    -0.503 OA
ATOM     24  H13 UNL     1      23.203  12.290  29.953  0.00  0.00    +0.292 HD
ENDBRANCH  20  23
BRANCH  21  25
ATOM     25  O3  UNL     1      21.620   9.447  29.959  0.00  0.00    -0.503 OA
ATOM     26  H14 UNL     1      20.697   9.685  30.294  0.00  0.00    +0.292 HD
ENDBRANCH  21  25
ENDBRANCH  15  17
TORSDOF 3
ENDMDL
MODEL 3
REMARK VINA RESULT:    -6.744      7.402     12.990
REMARK INTER + INTRA:          -8.058
REMARK INTER:                  -7.660
REMARK INTRA:                  -0.398
REMARK UNBOUND:                -0.526
REMARK  Name = /home/qwerty/github/datacon2025hack/step_04_hit_selection/docking/ligands/lig_348.pdb
REMARK  4 active torsions:
REMARK  status: ('A' for Active; 'I' for Inactive)
REMARK    1  A    between atoms: C1_1  and  C2_2
REMARK    2  A    between atoms: C13_15  and  C14_16
REMARK    3  A    between atoms: C17_19  and  O2_20
REMARK    4  A    between atoms: C18_21  and  O3_22
REMARK                            x       y       z     vdW  Elec       q    Type
REMARK                         _______ _______ _______ _____ _____    ______ ____
ROOT
ATOM      1  C1  UNL     1      20.416   2.721  28.995  0.00  0.00    +0.044 C 
ATOM      2  C2  UNL     1      20.176   2.084  27.660  0.00  0.00    -0.050 A 
ATOM      3  C3  UNL     1      21.059   2.343  26.580  0.00  0.00    +0.005 A 
ATOM      4  C4  UNL     1      20.827   1.781  25.311  0.00  0.00    +0.026 A 
ATOM      5  C5  UNL     1      19.702   0.978  25.149  0.00  0.00    +0.047 A 
ATOM      6  N1  UNL     1      19.301   0.357  24.021  0.00  0.00    -0.357 N 
ATOM      7  C6  UNL     1      18.160  -0.287  24.355  0.00  0.00    +0.039 A 
ATOM      8  C7  UNL     1      17.842  -0.076  25.679  0.00  0.00    +0.051 A 
ATOM      9  C8  UNL     1      18.833   0.736  26.189  0.00  0.00    +0.011 A 
ATOM     10  C9  UNL     1      19.035   1.277  27.457  0.00  0.00    +0.014 A 
ATOM     11  C10 UNL     1      16.655  -0.673  26.286  0.00  0.00    +0.188 C 
ATOM     12  O1  UNL     1      16.358  -0.469  27.493  0.00  0.00    -0.287 OA
ATOM     13  C11 UNL     1      15.817  -1.536  25.435  0.00  0.00    +0.048 C 
ATOM     14  C12 UNL     1      16.116  -1.748  24.139  0.00  0.00    -0.009 C 
ATOM     15  C13 UNL     1      17.304  -1.111  23.424  0.00  0.00    +0.089 C 
ATOM     16  H6  UNL     1      19.767   0.376  23.086  0.00  0.00    +0.166 HD
ENDROOT
BRANCH  15  17
ATOM     17  C14 UNL     1      16.815  -0.254  22.278  0.00  0.00    -0.031 A 
ATOM     18  C15 UNL     1      16.598   1.119  22.462  0.00  0.00    +0.008 A 
ATOM     19  C16 UNL     1      16.139   1.908  21.407  0.00  0.00    +0.049 A 
ATOM     20  C17 UNL     1      15.886   1.347  20.151  0.00  0.00    +0.158 A 
ATOM     21  C18 UNL     1      16.099  -0.037  19.952  0.00  0.00    +0.159 A 
ATOM     22  C19 UNL     1      16.561  -0.823  21.016  0.00  0.00    +0.053 A 
BRANCH  20  23
ATOM     23  O2  UNL     1      15.427   2.193  19.139  0.00  0.00    -0.503 OA
ATOM     24  H13 UNL     1      15.854   2.265  18.226  0.00  0.00    +0.292 HD
ENDBRANCH  20  23
BRANCH  21  25
ATOM     25  O3  UNL     1      15.868  -0.669  18.730  0.00  0.00    -0.503 OA
ATOM     26  H14 UNL     1      15.946  -0.210  17.833  0.00  0.00    +0.292 HD
ENDBRANCH  21  25
ENDBRANCH  15  17
TORSDOF 3
ENDMDL
MODEL 4
REMARK VINA RESULT:    -6.582     13.165     13.970
REMARK INTER + INTRA:          -7.878
REMARK INTER:                  -7.294
REMARK INTRA:                  -0.584
REMARK UNBOUND:                -0.526
REMARK  Name = /home/qwerty/github/datacon2025hack/step_04_hit_selection/docking/ligands/lig_348.pdb
REMARK  4 active torsions:
REMARK  status: ('A' for Active; 'I' for Inactive)
REMARK    1  A    between atoms: C1_1  and  C2_2
REMARK    2  A    between atoms: C13_15  and  C14_16
REMARK    3  A    between atoms: C17_19  and  O2_20
REMARK    4  A    between atoms: C18_21  and  O3_22
REMARK                            x       y       z     vdW  Elec       q    Type
REMARK                         _______ _______ _______ _____ _____    ______ ____
ROOT
ATOM      1  C1  UNL     1       8.260  10.786  26.323  0.00  0.00    +0.044 C 
ATOM      2  C2  UNL     1       8.951  10.844  27.652  0.00  0.00    -0.050 A 
ATOM      3  C3  UNL     1       8.723   9.829  28.616  0.00  0.00    +0.005 A 
ATOM      4  C4  UNL     1       9.336   9.889  29.881  0.00  0.00    +0.026 A 
ATOM      5  C5  UNL     1      10.158  10.978  30.157  0.00  0.00    +0.047 A 
ATOM      6  N1  UNL     1      10.826  11.223  31.303  0.00  0.00    -0.357 N 
ATOM      7  C6  UNL     1      11.468  12.395  31.097  0.00  0.00    +0.039 A 
ATOM      8  C7  UNL     1      11.210  12.886  29.835  0.00  0.00    +0.051 A 
ATOM      9  C8  UNL     1      10.368  11.974  29.232  0.00  0.00    +0.011 A 
ATOM     10  C9  UNL     1       9.778  11.944  27.970  0.00  0.00    +0.014 A 
ATOM     11  C10 UNL     1      11.796  14.138  29.365  0.00  0.00    +0.188 C 
ATOM     12  O1  UNL     1      11.549  14.592  28.216  0.00  0.00    -0.287 OA
ATOM     13  C11 UNL     1      12.700  14.853  30.284  0.00  0.00    +0.048 C 
ATOM     14  C12 UNL     1      12.959  14.384  31.521  0.00  0.00    -0.009 C 
ATOM     15  C13 UNL     1      12.336  13.116  32.098  0.00  0.00    +0.089 C 
ATOM     16  H6  UNL     1      10.837  10.639  32.169  0.00  0.00    +0.166 HD
ENDROOT
BRANCH  15  17
ATOM     17  C14 UNL     1      11.530  13.456  33.332  0.00  0.00    -0.031 A 
ATOM     18  C15 UNL     1      11.643  12.671  34.489  0.00  0.00    +0.008 A 
ATOM     19  C16 UNL     1      10.893  12.979  35.625  0.00  0.00    +0.049 A 
ATOM     20  C17 UNL     1      10.017  14.070  35.631  0.00  0.00    +0.158 A 
ATOM     21  C18 UNL     1       9.894  14.868  34.469  0.00  0.00    +0.159 A 
ATOM     22  C19 UNL     1      10.650  14.553  33.333  0.00  0.00    +0.053 A 
BRANCH  20  23
ATOM     23  O2  UNL     1       9.296  14.323  36.800  0.00  0.00    -0.503 OA
ATOM     24  H13 UNL     1       8.492  13.787  37.093  0.00  0.00    +0.292 HD
ENDBRANCH  20  23
BRANCH  21  25
ATOM     25  O3  UNL     1       9.041  15.971  34.398  0.00  0.00    -0.503 OA
ATOM     26  H14 UNL     1       8.427  16.259  35.146  0.00  0.00    +0.292 HD
ENDBRANCH  21  25
ENDBRANCH  15  17
TORSDOF 3
ENDMDL
MODEL 5
REMARK VINA RESULT:    -6.556     10.728     13.684
REMARK INTER + INTRA:          -7.848
REMARK INTER:                  -7.331
REMARK INTRA:                  -0.517
REMARK UNBOUND:                -0.526
REMARK  Name = /home/qwerty/github/datacon2025hack/step_04_hit_selection/docking/ligands/lig_348.pdb
REMARK  4 active torsions:
REMARK  status: ('A' for Active; 'I' for Inactive)
REMARK    1  A    between atoms: C1_1  and  C2_2
REMARK    2  A    between atoms: C13_15  and  C14_16
REMARK    3  A    between atoms: C17_19  and  O2_20
REMARK    4  A    between atoms: C18_21  and  O3_22
REMARK                            x       y       z     vdW  Elec       q    Type
REMARK                         _______ _______ _______ _____ _____    ______ ____
ROOT
ATOM      1  C1  UNL     1      19.920  13.547  19.375  0.00  0.00    +0.044 C 
ATOM      2  C2  UNL     1      20.062  12.055  19.414  0.00  0.00    -0.050 A 
ATOM      3  C3  UNL     1      18.939  11.228  19.156  0.00  0.00    +0.005 A 
ATOM      4  C4  UNL     1      19.047   9.827  19.224  0.00  0.00    +0.026 A 
ATOM      5  C5  UNL     1      20.283   9.284  19.565  0.00  0.00    +0.047 A 
ATOM      6  N1  UNL     1      20.591   7.977  19.690  0.00  0.00    -0.357 N 
ATOM      7  C6  UNL     1      21.895   7.951  20.044  0.00  0.00    +0.039 A 
ATOM      8  C7  UNL     1      22.408   9.226  20.142  0.00  0.00    +0.051 A 
ATOM      9  C8  UNL     1      21.371  10.083  19.833  0.00  0.00    +0.011 A 
ATOM     10  C9  UNL     1      21.298  11.473  19.773  0.00  0.00    +0.014 A 
ATOM     11  C10 UNL     1      23.802   9.466  20.503  0.00  0.00    +0.188 C 
ATOM     12  O1  UNL     1      24.266  10.633  20.605  0.00  0.00    -0.287 OA
ATOM     13  C11 UNL     1      24.656   8.288  20.737  0.00  0.00    +0.048 C 
ATOM     14  C12 UNL     1      24.167   7.036  20.647  0.00  0.00    -0.009 C 
ATOM     15  C13 UNL     1      22.709   6.713  20.333  0.00  0.00    +0.089 C 
ATOM     16  H6  UNL     1      19.956   7.159  19.553  0.00  0.00    +0.166 HD
ENDROOT
BRANCH  15  17
ATOM     17  C14 UNL     1      22.094   5.946  21.482  0.00  0.00    -0.031 A 
ATOM     18  C15 UNL     1      21.160   4.929  21.235  0.00  0.00    +0.008 A 
ATOM     19  C16 UNL     1      20.586   4.226  22.295  0.00  0.00    +0.049 A 
ATOM     20  C17 UNL     1      20.929   4.522  23.619  0.00  0.00    +0.158 A 
ATOM     21  C18 UNL     1      21.869   5.546  23.881  0.00  0.00    +0.159 A 
ATOM     22  C19 UNL     1      22.441   6.247  22.811  0.00  0.00    +0.053 A 
BRANCH  20  23
ATOM     23  O2  UNL     1      20.317   3.781  24.632  0.00  0.00    -0.503 OA
ATOM     24  H13 UNL     1      20.790   3.473  25.470  0.00  0.00    +0.292 HD
ENDBRANCH  20  23
BRANCH  21  25
ATOM     25  O3  UNL     1      22.259   5.899  25.173  0.00  0.00    -0.503 OA
ATOM     26  H14 UNL     1      23.156   6.305  25.401  0.00  0.00    +0.292 HD
ENDBRANCH  21  25
ENDBRANCH  15  17
TORSDOF 3
ENDMDL
MODEL 6
REMARK VINA RESULT:    -6.542     12.027     14.717
REMARK INTER + INTRA:          -7.833
REMARK INTER:                  -7.222
REMARK INTRA:                  -0.611
REMARK UNBOUND:                -0.526
REMARK  Name = /home/qwerty/github/datacon2025hack/step_04_hit_selection/docking/ligands/lig_348.pdb
REMARK  4 active torsions:
REMARK  status: ('A' for Active; 'I' for Inactive)
REMARK    1  A    between atoms: C1_1  and  C2_2
REMARK    2  A    between atoms: C13_15  and  C14_16
REMARK    3  A    between atoms: C17_19  and  O2_20
REMARK    4  A    between atoms: C18_21  and  O3_22
REMARK                            x       y       z     vdW  Elec       q    Type
REMARK                         _______ _______ _______ _____ _____    ______ ____
ROOT
ATOM      1  C1  UNL     1       8.896   4.006  22.757  0.00  0.00    +0.044 C 
ATOM      2  C2  UNL     1       9.944   2.987  22.425  0.00  0.00    -0.050 A 
ATOM      3  C3  UNL     1       9.762   1.632  22.803  0.00  0.00    +0.005 A 
ATOM      4  C4  UNL     1      10.753   0.671  22.530  0.00  0.00    +0.026 A 
ATOM      5  C5  UNL     1      11.917   1.095  21.894  0.00  0.00    +0.047 A 
ATOM      6  N1  UNL     1      12.980   0.338  21.554  0.00  0.00    -0.357 N 
ATOM      7  C6  UNL     1      13.854   1.193  20.976  0.00  0.00    +0.039 A 
ATOM      8  C7  UNL     1      13.351   2.476  20.952  0.00  0.00    +0.051 A 
ATOM      9  C8  UNL     1      12.105   2.412  21.541  0.00  0.00    +0.011 A 
ATOM     10  C9  UNL     1      11.143   3.388  21.795  0.00  0.00    +0.014 A 
ATOM     11  C10 UNL     1      14.104   3.583  20.371  0.00  0.00    +0.188 C 
ATOM     12  O1  UNL     1      13.648   4.758  20.360  0.00  0.00    -0.287 OA
ATOM     13  C11 UNL     1      15.421   3.277  19.784  0.00  0.00    +0.048 C 
ATOM     14  C12 UNL     1      15.925   2.028  19.804  0.00  0.00    -0.009 C 
ATOM     15  C13 UNL     1      15.221   0.835  20.446  0.00  0.00    +0.089 C 
ATOM     16  H6  UNL     1      13.106  -0.686  21.711  0.00  0.00    +0.166 HD
ENDROOT
BRANCH  15  17
ATOM     17  C14 UNL     1      16.077   0.272  21.558  0.00  0.00    -0.031 A 
ATOM     18  C15 UNL     1      16.456  -1.079  21.544  0.00  0.00    +0.008 A 
ATOM     19  C16 UNL     1      17.238  -1.601  22.574  0.00  0.00    +0.049 A 
ATOM     20  C17 UNL     1      17.657  -0.793  23.637  0.00  0.00    +0.158 A 
ATOM     21  C18 UNL     1      17.280   0.571  23.662  0.00  0.00    +0.159 A 
ATOM     22  C19 UNL     1      16.494   1.088  22.624  0.00  0.00    +0.053 A 
BRANCH  20  23
ATOM     23  O2  UNL     1      18.438  -1.379  24.635  0.00  0.00    -0.503 OA
ATOM     24  H13 UNL     1      19.401  -1.655  24.509  0.00  0.00    +0.292 HD
ENDBRANCH  20  23
BRANCH  21  25
ATOM     25  O3  UNL     1      17.657   1.439  24.688  0.00  0.00    -0.503 OA
ATOM     26  H14 UNL     1      17.180   2.304  24.899  0.00  0.00    +0.292 HD
ENDBRANCH  21  25
ENDBRANCH  15  17
TORSDOF 3
ENDMDL
MODEL 7
REMARK VINA RESULT:    -6.513     13.854     15.833
REMARK INTER + INTRA:          -7.800
REMARK INTER:                  -7.391
REMARK INTRA:                  -0.409
REMARK UNBOUND:                -0.526
REMARK  Name = /home/qwerty/github/datacon2025hack/step_04_hit_selection/docking/ligands/lig_348.pdb
REMARK  4 active torsions:
REMARK  status: ('A' for Active; 'I' for Inactive)
REMARK    1  A    between atoms: C1_1  and  C2_2
REMARK    2  A    between atoms: C13_15  and  C14_16
REMARK    3  A    between atoms: C17_19  and  O2_20
REMARK    4  A    between atoms: C18_21  and  O3_22
REMARK                            x       y       z     vdW  Elec       q    Type
REMARK                         _______ _______ _______ _____ _____    ______ ____
ROOT
ATOM      1  C1  UNL     1      17.252  -1.310  22.443  0.00  0.00    +0.044 C 
ATOM      2  C2  UNL     1      16.158  -0.506  21.808  0.00  0.00    -0.050 A 
ATOM      3  C3  UNL     1      16.295  -0.052  20.470  0.00  0.00    +0.005 A 
ATOM      4  C4  UNL     1      15.293   0.733  19.872  0.00  0.00    +0.026 A 
ATOM      5  C5  UNL     1      14.175   1.058  20.636  0.00  0.00    +0.047 A 
ATOM      6  N1  UNL     1      13.116   1.801  20.253  0.00  0.00    -0.357 N 
ATOM      7  C6  UNL     1      12.305   1.846  21.333  0.00  0.00    +0.039 A 
ATOM      8  C7  UNL     1      12.843   1.141  22.388  0.00  0.00    +0.051 A 
ATOM      9  C8  UNL     1      14.045   0.634  21.939  0.00  0.00    +0.011 A 
ATOM     10  C9  UNL     1      15.019  -0.145  22.560  0.00  0.00    +0.014 A 
ATOM     11  C10 UNL     1      12.152   1.032  23.669  0.00  0.00    +0.188 C 
ATOM     12  O1  UNL     1      12.652   0.397  24.637  0.00  0.00    -0.287 OA
ATOM     13  C11 UNL     1      10.837   1.685  23.791  0.00  0.00    +0.048 C 
ATOM     14  C12 UNL     1      10.300   2.379  22.768  0.00  0.00    -0.009 C 
ATOM     15  C13 UNL     1      10.991   2.584  21.423  0.00  0.00    +0.089 C 
ATOM     16  H6  UNL     1      12.960   2.253  19.325  0.00  0.00    +0.166 HD
ENDROOT
BRANCH  15  17
ATOM     17  C14 UNL     1      11.210   4.060  21.178  0.00  0.00    -0.031 A 
ATOM     18  C15 UNL     1      12.416   4.669  21.556  0.00  0.00    +0.008 A 
ATOM     19  C16 UNL     1      12.616   6.033  21.337  0.00  0.00    +0.049 A 
ATOM     20  C17 UNL     1      11.621   6.816  20.741  0.00  0.00    +0.158 A 
ATOM     21  C18 UNL     1      10.400   6.213  20.357  0.00  0.00    +0.159 A 
ATOM     22  C19 UNL     1      10.207   4.844  20.580  0.00  0.00    +0.053 A 
BRANCH  20  23
ATOM     23  O2  UNL     1      11.885   8.174  20.552  0.00  0.00    -0.503 OA
ATOM     24  H13 UNL     1      12.444   8.540  19.795  0.00  0.00    +0.292 HD
ENDBRANCH  20  23
BRANCH  21  25
ATOM     25  O3  UNL     1       9.361   6.928  19.759  0.00  0.00    -0.503 OA
ATOM     26  H14 UNL     1       8.610   6.501  19.236  0.00  0.00    +0.292 HD
ENDBRANCH  21  25
ENDBRANCH  15  17
TORSDOF 3
ENDMDL
MODEL 8
REMARK VINA RESULT:    -6.508     11.933     14.970
REMARK INTER + INTRA:          -7.795
REMARK INTER:                  -7.159
REMARK INTRA:                  -0.636
REMARK UNBOUND:                -0.526
REMARK  Name = /home/qwerty/github/datacon2025hack/step_04_hit_selection/docking/ligands/lig_348.pdb
REMARK  4 active torsions:
REMARK  status: ('A' for Active; 'I' for Inactive)
REMARK    1  A    between atoms: C1_1  and  C2_2
REMARK    2  A    between atoms: C13_15  and  C14_16
REMARK    3  A    between atoms: C17_19  and  O2_20
REMARK    4  A    between atoms: C18_21  and  O3_22
REMARK                            x       y       z     vdW  Elec       q    Type
REMARK                         _______ _______ _______ _____ _____    ______ ____
ROOT
ATOM      1  C1  UNL     1      10.125   6.591  20.280  0.00  0.00    +0.044 C 
ATOM      2  C2  UNL     1      10.703   5.230  20.522  0.00  0.00    -0.050 A 
ATOM      3  C3  UNL     1       9.897   4.206  21.085  0.00  0.00    +0.005 A 
ATOM      4  C4  UNL     1      10.435   2.934  21.352  0.00  0.00    +0.026 A 
ATOM      5  C5  UNL     1      11.780   2.719  21.059  0.00  0.00    +0.047 A 
ATOM      6  N1  UNL     1      12.481   1.582  21.245  0.00  0.00    -0.357 N 
ATOM      7  C6  UNL     1      13.734   1.865  20.825  0.00  0.00    +0.039 A 
ATOM      8  C7  UNL     1      13.826   3.165  20.378  0.00  0.00    +0.051 A 
ATOM      9  C8  UNL     1      12.569   3.713  20.528  0.00  0.00    +0.011 A 
ATOM     10  C9  UNL     1      12.067   4.983  20.251  0.00  0.00    +0.014 A 
ATOM     11  C10 UNL     1      15.078   3.712  19.864  0.00  0.00    +0.188 C 
ATOM     12  O1  UNL     1      15.164   4.905  19.468  0.00  0.00    -0.287 OA
ATOM     13  C11 UNL     1      16.244   2.812  19.815  0.00  0.00    +0.048 C 
ATOM     14  C12 UNL     1      16.168   1.540  20.250  0.00  0.00    -0.009 C 
ATOM     15  C13 UNL     1      14.911   0.920  20.854  0.00  0.00    +0.089 C 
ATOM     16  H6  UNL     1      12.134   0.679  21.639  0.00  0.00    +0.166 HD
ENDROOT
BRANCH  15  17
ATOM     17  C14 UNL     1      15.187   0.481  22.275  0.00  0.00    -0.031 A 
ATOM     18  C15 UNL     1      15.631   1.408  23.229  0.00  0.00    +0.008 A 
ATOM     19  C16 UNL     1      15.893   1.001  24.538  0.00  0.00    +0.049 A 
ATOM     20  C17 UNL     1      15.720  -0.333  24.922  0.00  0.00    +0.158 A 
ATOM     21  C18 UNL     1      15.273  -1.278  23.968  0.00  0.00    +0.159 A 
ATOM     22  C19 UNL     1      15.012  -0.862  22.656  0.00  0.00    +0.053 A 
BRANCH  20  23
ATOM     23  O2  UNL     1      16.000  -0.673  26.246  0.00  0.00    -0.503 OA
ATOM     24  H13 UNL     1      16.072  -0.003  26.998  0.00  0.00    +0.292 HD
ENDBRANCH  20  23
BRANCH  21  25
ATOM     25  O3  UNL     1      15.077  -2.625  24.274  0.00  0.00    -0.503 OA
ATOM     26  H14 UNL     1      15.805  -3.324  24.235  0.00  0.00    +0.292 HD
ENDBRANCH  21  25
ENDBRANCH  15  17
TORSDOF 3
ENDMDL
MODEL 9
REMARK VINA RESULT:    -6.397     13.987     15.356
REMARK INTER + INTRA:          -7.672
REMARK INTER:                  -7.078
REMARK INTRA:                  -0.594
REMARK UNBOUND:                -0.526
REMARK  Name = /home/qwerty/github/datacon2025hack/step_04_hit_selection/docking/ligands/lig_348.pdb
REMARK  4 active torsions:
REMARK  status: ('A' for Active; 'I' for Inactive)
REMARK    1  A    between atoms: C1_1  and  C2_2
REMARK    2  A    between atoms: C13_15  and  C14_16
REMARK    3  A    between atoms: C17_19  and  O2_20
REMARK    4  A    between atoms: C18_21  and  O3_22
REMARK                            x       y       z     vdW  Elec       q    Type
REMARK                         _______ _______ _______ _____ _____    ______ ____
ROOT
ATOM      1  C1  UNL     1       9.090   5.354  23.749  0.00  0.00    +0.044 C 
ATOM      2  C2  UNL     1       8.648   6.582  24.487  0.00  0.00    -0.050 A 
ATOM      3  C3  UNL     1       8.557   7.824  23.807  0.00  0.00    +0.005 A 
ATOM      4  C4  UNL     1       8.179   8.993  24.493  0.00  0.00    +0.026 A 
ATOM      5  C5  UNL     1       7.912   8.892  25.856  0.00  0.00    +0.047 A 
ATOM      6  N1  UNL     1       7.545   9.887  26.689  0.00  0.00    -0.357 N 
ATOM      7  C6  UNL     1       7.416   9.306  27.903  0.00  0.00    +0.039 A 
ATOM      8  C7  UNL     1       7.697   7.958  27.839  0.00  0.00    +0.051 A 
ATOM      9  C8  UNL     1       8.016   7.693  26.524  0.00  0.00    +0.011 A 
ATOM     10  C9  UNL     1       8.386   6.518  25.873  0.00  0.00    +0.014 A 
ATOM     11  C10 UNL     1       7.621   7.103  29.020  0.00  0.00    +0.188 C 
ATOM     12  O1  UNL     1       7.891   5.874  28.964  0.00  0.00    -0.287 OA
ATOM     13  C11 UNL     1       7.204   7.729  30.288  0.00  0.00    +0.048 C 
ATOM     14  C12 UNL     1       6.928   9.046  30.363  0.00  0.00    -0.009 C 
ATOM     15  C13 UNL     1       7.044  10.009  29.185  0.00  0.00    +0.089 C 
ATOM     16  H6  UNL     1       7.402  10.894  26.451  0.00  0.00    +0.166 HD
ENDROOT
BRANCH  15  17
ATOM     17  C14 UNL     1       8.061  11.083  29.499  0.00  0.00    -0.031 A 
ATOM     18  C15 UNL     1       7.756  12.434  29.276  0.00  0.00    +0.008 A 
ATOM     19  C16 UNL     1       8.696  13.425  29.558  0.00  0.00    +0.049 A 
ATOM     20  C17 UNL     1       9.958  13.093  30.065  0.00  0.00    +0.158 A 
ATOM     21  C18 UNL     1      10.278  11.733  30.293  0.00  0.00    +0.159 A 
ATOM     22  C19 UNL     1       9.328  10.744  30.008  0.00  0.00    +0.053 A 
BRANCH  20  23
ATOM     23  O2  UNL     1      10.852  14.133  30.325  0.00  0.00    -0.503 OA
ATOM     24  H13 UNL     1      11.505  14.498  29.646  0.00  0.00    +0.292 HD
ENDBRANCH  20  23
BRANCH  21  25
ATOM     25  O3  UNL     1      11.514  11.323  30.795  0.00  0.00    -0.503 OA
ATOM     26  H14 UNL     1      11.647  10.931  31.716  0.00  0.00    +0.292 HD
ENDBRANCH  21  25
ENDBRANCH  15  17
TORSDOF 3
ENDMDL
