REMARK  Name = /home/qwerty/github/datacon2025hack/step_04_hit_selection/docking/ligands/lig_530.pdb
REMARK  5 active torsions:
REMARK  status: ('A' for Active; 'I' for Inactive)
REMARK    1  A    between atoms: N1_3  and  C2_4
REMARK    2  A    between atoms: C5_7  and  O2_8
REMARK    3  A    between atoms: O2_8  and  C6_9
REMARK    4  A    between atoms: N2_15  and  C9_16
REMARK    5  A    between atoms: C14_23  and  O3_24
REMARK                            x       y       z     vdW  Elec       q    Type
REMARK                         _______ _______ _______ _____ _____    ______ ____
ROOT
ATOM      1  O1  UNL     1       0.799   0.513  -0.643  0.00  0.00    -0.252 OA
ATOM      2  C1  UNL     1       0.802   0.578   0.617  0.00  0.00    +0.308 C 
ATOM      3  N1  UNL     1      -0.434   0.689   1.339  0.00  0.00    -0.269 N 
ATOM      4  N2  UNL     1       2.046   0.618   1.332  0.00  0.00    -0.266 N 
ATOM      5  H1  UNL     1      -0.390   1.038   2.324  0.00  0.00    +0.156 HD
ATOM      6  H6  UNL     1       2.035   0.971   2.315  0.00  0.00    +0.156 HD
ENDROOT
BRANCH   4   7
ATOM      7  C9  UNL     1       3.319   0.380   0.712  0.00  0.00    +0.079 A 
ATOM      8  C10 UNL     1       4.383   1.254   0.981  0.00  0.00    +0.068 A 
ATOM      9  C11 UNL     1       5.637   1.046   0.399  0.00  0.00    +0.160 A 
ATOM     10  F3  UNL     1       6.653   1.907   0.655  0.00  0.00    -0.202 F 
ATOM     11  C12 UNL     1       5.842  -0.047  -0.447  0.00  0.00    +0.162 A 
ATOM     12  F4  UNL     1       7.057  -0.250  -1.014  0.00  0.00    -0.202 F 
ATOM     13  C13 UNL     1       4.797  -0.940  -0.701  0.00  0.00    +0.088 A 
ATOM     14  C14 UNL     1       3.538  -0.742  -0.114  0.00  0.00    +0.141 A 
BRANCH  14  15
ATOM     15  O3  UNL     1       2.518  -1.668  -0.330  0.00  0.00    -0.505 OA
ATOM     16  H9  UNL     1       2.656  -2.484  -0.914  0.00  0.00    +0.292 HD
ENDBRANCH  14  15
ENDBRANCH   4   7
BRANCH   3  17
ATOM     17  C2  UNL     1      -1.729   0.448   0.764  0.00  0.00    +0.036 A 
ATOM     18  C3  UNL     1      -1.923  -0.537  -0.220  0.00  0.00    +0.027 A 
ATOM     19  C4  UNL     1      -3.196  -0.769  -0.747  0.00  0.00    +0.049 A 
ATOM     20  C5  UNL     1      -4.303  -0.030  -0.290  0.00  0.00    +0.145 A 
ATOM     21  C7  UNL     1      -4.112   0.937   0.709  0.00  0.00    +0.084 A 
ATOM     22 CL1  UNL     1      -5.470   1.873   1.315  0.00  0.00    -0.080 Cl
ATOM     23  C8  UNL     1      -2.836   1.167   1.235  0.00  0.00    +0.047 A 
BRANCH  20  24
ATOM     24  O2  UNL     1      -5.598  -0.230  -0.796  0.00  0.00    -0.433 OA
BRANCH  24  25
ATOM     25  C6  UNL     1      -5.936  -1.154  -1.826  0.00  0.00    +0.541 C 
ATOM     26  F1  UNL     1      -7.305  -1.147  -2.007  0.00  0.00    -0.166 F 
ATOM     27  F2  UNL     1      -5.324  -0.785  -3.011  0.00  0.00    -0.166 F 
ENDBRANCH  24  25
ENDBRANCH  20  24
ENDBRANCH   3  17
TORSDOF 5
