MODEL 1
REMARK VINA RESULT:    -5.968      0.000      0.000
REMARK INTER + INTRA:          -8.345
REMARK INTER:                  -7.713
REMARK INTRA:                  -0.632
REMARK UNBOUND:                -0.632
REMARK  Name = /home/qwerty/github/datacon2025hack/step_04_hit_selection/docking/ligands/lig_784.pdb
REMARK  8 active torsions:
REMARK  status: ('A' for Active; 'I' for Inactive)
REMARK    1  A    between atoms: C1_1  and  C2_2
REMARK    2  A    between atoms: C2_2  and  N1_3
REMARK    3  A    between atoms: C5_8  and  C6_9
REMARK    4  A    between atoms: N2_11  and  C7_12
REMARK    5  A    between atoms: C14_19  and  O4_20
REMARK    6  A    between atoms: O4_20  and  C15_21
REMARK    7  A    between atoms: C17_23  and  C18_24
REMARK    8  A    between atoms: N4_28  and  C21_29
REMARK                            x       y       z     vdW  Elec       q    Type
REMARK                         _______ _______ _______ _____ _____    ______ ____
ROOT
ATOM      1  N1  UNL     1      10.547   4.755  23.605  0.00  0.00    -0.287 N 
ATOM      2  C3  UNL     1       9.931   3.476  23.853  0.00  0.00    +0.242 C 
ATOM      3  O1  UNL     1       9.507   3.177  25.004  0.00  0.00    -0.273 OA
ATOM      4  C4  UNL     1       9.853   2.450  22.752  0.00  0.00    +0.256 C 
ATOM      5  O2  UNL     1       9.882   3.028  21.454  0.00  0.00    -0.356 OA
ATOM      6  C5  UNL     1      10.968   3.933  21.295  0.00  0.00    +0.232 C 
ATOM      7  C17 UNL     1      10.770   5.172  22.211  0.00  0.00    +0.180 C 
ENDROOT
BRANCH   7   8
ATOM      8  C18 UNL     1       9.581   5.977  21.732  0.00  0.00    +0.133 A 
ATOM      9  N3  UNL     1       8.309   5.678  22.074  0.00  0.00    -0.239 NA
ATOM     10  C19 UNL     1       7.561   6.588  21.418  0.00  0.00    +0.130 A 
ATOM     11  C20 UNL     1       8.378   7.416  20.685  0.00  0.00    +0.106 A 
ATOM     12  N4  UNL     1       9.649   7.018  20.875  0.00  0.00    -0.336 N 
ATOM     13  C21 UNL     1      10.842   7.628  20.300  0.00  0.00    +0.150 C 
ENDBRANCH   7   8
BRANCH   6  14
ATOM     14  C6  UNL     1      12.303   3.210  21.403  0.00  0.00    +0.248 C 
ATOM     15  O3  UNL     1      13.230   3.793  22.016  0.00  0.00    -0.273 OA
ATOM     16  N2  UNL     1      12.537   1.908  20.829  0.00  0.00    -0.283 N 
ATOM     17  H9  UNL     1      11.856   1.526  20.133  0.00  0.00    +0.155 HD
BRANCH  16  18
ATOM     18  C7  UNL     1      13.748   1.158  21.029  0.00  0.00    +0.034 A 
ATOM     19  C8  UNL     1      14.703   1.102  19.993  0.00  0.00    +0.023 A 
ATOM     20  C9  UNL     1      15.895   0.380  20.157  0.00  0.00    +0.006 A 
ATOM     21  C10 UNL     1      16.118  -0.282  21.364  0.00  0.00    -0.042 A 
ATOM     22  C11 UNL     1      15.189  -0.249  22.372  0.00  0.00    -0.040 A 
ATOM     23  C12 UNL     1      13.986   0.445  22.225  0.00  0.00    +0.027 A 
ATOM     24  C13 UNL     1      15.613  -1.052  23.541  0.00  0.00    +0.067 C 
ATOM     25  C14 UNL     1      17.079  -1.422  23.224  0.00  0.00    +0.126 C 
ATOM     26  C16 UNL     1      17.295  -1.109  21.722  0.00  0.00    +0.067 C 
BRANCH  25  27
ATOM     27  O4  UNL     1      17.296  -2.792  23.511  0.00  0.00    -0.379 OA
ATOM     28  C15 UNL     1      16.921  -3.084  24.842  0.00  0.00    +0.194 C 
ENDBRANCH  25  27
ENDBRANCH  16  18
ENDBRANCH   6  14
BRANCH   1  30
ATOM     29  C1  UNL     1      12.083   6.368  24.668  0.00  0.00    +0.024 C 
ATOM     30  C2  UNL     1      10.698   5.733  24.695  0.00  0.00    +0.105 C 
ENDBRANCH   1  30
TORSDOF 5
ENDMDL
MODEL 2
REMARK VINA RESULT:    -5.892     14.630     16.867
REMARK INTER + INTRA:          -8.247
REMARK INTER:                  -7.615
REMARK INTRA:                  -0.631
REMARK UNBOUND:                -0.632
REMARK  Name = /home/qwerty/github/datacon2025hack/step_04_hit_selection/docking/ligands/lig_784.pdb
REMARK  8 active torsions:
REMARK  status: ('A' for Active; 'I' for Inactive)
REMARK    1  A    between atoms: C1_1  and  C2_2
REMARK    2  A    between atoms: C2_2  and  N1_3
REMARK    3  A    between atoms: C5_8  and  C6_9
REMARK    4  A    between atoms: N2_11  and  C7_12
REMARK    5  A    between atoms: C14_19  and  O4_20
REMARK    6  A    between atoms: O4_20  and  C15_21
REMARK    7  A    between atoms: C17_23  and  C18_24
REMARK    8  A    between atoms: N4_28  and  C21_29
REMARK                            x       y       z     vdW  Elec       q    Type
REMARK                         _______ _______ _______ _____ _____    ______ ____
ROOT
ATOM      1  N1  UNL     1      16.852  12.156  33.865  0.00  0.00    -0.287 N 
ATOM      2  C3  UNL     1      18.064  12.921  33.716  0.00  0.00    +0.242 C 
ATOM      3  O1  UNL     1      18.365  13.440  32.604  0.00  0.00    -0.273 OA
ATOM      4  C4  UNL     1      19.024  13.047  34.870  0.00  0.00    +0.256 C 
ATOM      5  O2  UNL     1      18.395  12.880  36.134  0.00  0.00    -0.356 OA
ATOM      6  C5  UNL     1      17.611  11.695  36.189  0.00  0.00    +0.232 C 
ATOM      7  C17 UNL     1      16.400  11.808  35.223  0.00  0.00    +0.180 C 
ENDROOT
BRANCH   7   8
ATOM      8  C18 UNL     1      15.447  12.873  35.721  0.00  0.00    +0.133 A 
ATOM      9  N3  UNL     1      15.563  14.175  35.385  0.00  0.00    -0.239 NA
ATOM     10  C19 UNL     1      14.568  14.787  36.058  0.00  0.00    +0.130 A 
ATOM     11  C20 UNL     1      13.872  13.860  36.797  0.00  0.00    +0.106 A 
ATOM     12  N4  UNL     1      14.437  12.657  36.592  0.00  0.00    -0.336 N 
ATOM     13  C21 UNL     1      14.005  11.389  37.167  0.00  0.00    +0.150 C 
ENDBRANCH   7   8
BRANCH   6  14
ATOM     14  C6  UNL     1      18.483  10.455  36.048  0.00  0.00    +0.248 C 
ATOM     15  O3  UNL     1      18.093   9.557  35.263  0.00  0.00    -0.273 OA
ATOM     16  N2  UNL     1      19.714  10.276  36.779  0.00  0.00    -0.283 N 
ATOM     17  H9  UNL     1      19.922  10.902  37.590  0.00  0.00    +0.155 HD
BRANCH  16  18
ATOM     18  C7  UNL     1      20.611   9.173  36.564  0.00  0.00    +0.034 A 
ATOM     19  C8  UNL     1      20.657   8.128  37.511  0.00  0.00    +0.023 A 
ATOM     20  C9  UNL     1      21.521   7.037  37.331  0.00  0.00    +0.006 A 
ATOM     21  C10 UNL     1      22.334   7.004  36.198  0.00  0.00    -0.042 A 
ATOM     22  C11 UNL     1      22.310   8.023  35.280  0.00  0.00    -0.040 A 
ATOM     23  C12 UNL     1      21.475   9.129  35.448  0.00  0.00    +0.027 A 
ATOM     24  C13 UNL     1      23.281   7.802  34.184  0.00  0.00    +0.067 C 
ATOM     25  C14 UNL     1      23.774   6.355  34.412  0.00  0.00    +0.126 C 
ATOM     26  C16 UNL     1      23.321   5.958  35.840  0.00  0.00    +0.067 C 
BRANCH  25  27
ATOM     27  O4  UNL     1      25.183   6.307  34.275  0.00  0.00    -0.379 OA
ATOM     28  C15 UNL     1      25.539   5.862  32.982  0.00  0.00    +0.194 C 
ENDBRANCH  25  27
ENDBRANCH  16  18
ENDBRANCH   6  14
BRANCH   1  30
ATOM     29  C1  UNL     1      15.350  10.559  32.730  0.00  0.00    +0.024 C 
ATOM     30  C2  UNL     1      15.947  11.961  32.720  0.00  0.00    +0.105 C 
ENDBRANCH   1  30
TORSDOF 5
ENDMDL
MODEL 3
REMARK VINA RESULT:    -5.855      5.296      8.108
REMARK INTER + INTRA:          -8.199
REMARK INTER:                  -7.818
REMARK INTRA:                  -0.380
REMARK UNBOUND:                -0.632
REMARK  Name = /home/qwerty/github/datacon2025hack/step_04_hit_selection/docking/ligands/lig_784.pdb
REMARK  8 active torsions:
REMARK  status: ('A' for Active; 'I' for Inactive)
REMARK    1  A    between atoms: C1_1  and  C2_2
REMARK    2  A    between atoms: C2_2  and  N1_3
REMARK    3  A    between atoms: C5_8  and  C6_9
REMARK    4  A    between atoms: N2_11  and  C7_12
REMARK    5  A    between atoms: C14_19  and  O4_20
REMARK    6  A    between atoms: O4_20  and  C15_21
REMARK    7  A    between atoms: C17_23  and  C18_24
REMARK    8  A    between atoms: N4_28  and  C21_29
REMARK                            x       y       z     vdW  Elec       q    Type
REMARK                         _______ _______ _______ _____ _____    ______ ____
ROOT
ATOM      1  N1  UNL     1      15.226   0.813  24.155  0.00  0.00    -0.287 N 
ATOM      2  C3  UNL     1      14.981  -0.595  24.336  0.00  0.00    +0.242 C 
ATOM      3  O1  UNL     1      13.877  -1.003  24.794  0.00  0.00    -0.273 OA
ATOM      4  C4  UNL     1      16.071  -1.594  24.049  0.00  0.00    +0.256 C 
ATOM      5  O2  UNL     1      17.028  -1.116  23.113  0.00  0.00    -0.356 OA
ATOM      6  C5  UNL     1      17.528   0.168  23.468  0.00  0.00    +0.232 C 
ATOM      7  C17 UNL     1      16.399   1.229  23.368  0.00  0.00    +0.180 C 
ENDROOT
BRANCH   7   8
ATOM      8  C18 UNL     1      15.993   1.409  21.921  0.00  0.00    +0.133 A 
ATOM      9  N3  UNL     1      15.157   0.561  21.285  0.00  0.00    -0.239 NA
ATOM     10  C19 UNL     1      15.089   1.037  20.025  0.00  0.00    +0.130 A 
ATOM     11  C20 UNL     1      15.885   2.152  19.909  0.00  0.00    +0.106 A 
ATOM     12  N4  UNL     1      16.463   2.374  21.102  0.00  0.00    -0.336 N 
ATOM     13  C21 UNL     1      17.372   3.466  21.433  0.00  0.00    +0.150 C 
ENDBRANCH   7   8
BRANCH   6  14
ATOM     14  C6  UNL     1      18.298   0.111  24.780  0.00  0.00    +0.248 C 
ATOM     15  O3  UNL     1      18.783  -0.996  25.121  0.00  0.00    -0.273 OA
ATOM     16  N2  UNL     1      18.478   1.260  25.633  0.00  0.00    -0.283 N 
ATOM     17  H9  UNL     1      17.893   2.112  25.473  0.00  0.00    +0.155 HD
BRANCH  16  18
ATOM     18  C7  UNL     1      19.307   1.254  26.809  0.00  0.00    +0.034 A 
ATOM     19  C8  UNL     1      20.706   1.150  26.664  0.00  0.00    +0.023 A 
ATOM     20  C9  UNL     1      21.543   1.143  27.790  0.00  0.00    +0.006 A 
ATOM     21  C10 UNL     1      20.966   1.240  29.056  0.00  0.00    -0.042 A 
ATOM     22  C11 UNL     1      19.606   1.324  29.209  0.00  0.00    -0.040 A 
ATOM     23  C12 UNL     1      18.751   1.312  28.105  0.00  0.00    +0.027 A 
ATOM     24  C13 UNL     1      19.213   1.375  30.636  0.00  0.00    +0.067 C 
ATOM     25  C14 UNL     1      20.554   1.550  31.383  0.00  0.00    +0.126 C 
ATOM     26  C16 UNL     1      21.671   1.228  30.360  0.00  0.00    +0.067 C 
BRANCH  25  27
ATOM     27  O4  UNL     1      20.594   0.676  32.497  0.00  0.00    -0.379 OA
ATOM     28  C15 UNL     1      19.364  -0.005  32.635  0.00  0.00    +0.194 C 
ENDBRANCH  25  27
ENDBRANCH  16  18
ENDBRANCH   6  14
BRANCH   1  30
ATOM     29  C1  UNL     1      14.528   2.493  25.824  0.00  0.00    +0.024 C 
ATOM     30  C2  UNL     1      14.193   1.802  24.508  0.00  0.00    +0.105 C 
ENDBRANCH   1  30
TORSDOF 5
ENDMDL
MODEL 4
REMARK VINA RESULT:    -5.821      2.778      8.986
REMARK INTER + INTRA:          -8.155
REMARK INTER:                  -7.627
REMARK INTRA:                  -0.528
REMARK UNBOUND:                -0.632
REMARK  Name = /home/qwerty/github/datacon2025hack/step_04_hit_selection/docking/ligands/lig_784.pdb
REMARK  8 active torsions:
REMARK  status: ('A' for Active; 'I' for Inactive)
REMARK    1  A    between atoms: C1_1  and  C2_2
REMARK    2  A    between atoms: C2_2  and  N1_3
REMARK    3  A    between atoms: C5_8  and  C6_9
REMARK    4  A    between atoms: N2_11  and  C7_12
REMARK    5  A    between atoms: C14_19  and  O4_20
REMARK    6  A    between atoms: O4_20  and  C15_21
REMARK    7  A    between atoms: C17_23  and  C18_24
REMARK    8  A    between atoms: N4_28  and  C21_29
REMARK                            x       y       z     vdW  Elec       q    Type
REMARK                         _______ _______ _______ _____ _____    ______ ____
ROOT
ATOM      1  N1  UNL     1      15.477   2.895  22.310  0.00  0.00    -0.287 N 
ATOM      2  C3  UNL     1      15.885   3.920  21.383  0.00  0.00    +0.242 C 
ATOM      3  O1  UNL     1      16.827   4.711  21.670  0.00  0.00    -0.273 OA
ATOM      4  C4  UNL     1      15.139   4.106  20.087  0.00  0.00    +0.256 C 
ATOM      5  O2  UNL     1      14.480   2.923  19.653  0.00  0.00    -0.356 OA
ATOM      6  C5  UNL     1      13.679   2.350  20.679  0.00  0.00    +0.232 C 
ATOM      7  C17 UNL     1      14.579   1.830  21.833  0.00  0.00    +0.180 C 
ENDROOT
BRANCH   7   8
ATOM      8  C18 UNL     1      15.404   0.658  21.349  0.00  0.00    +0.133 A 
ATOM      9  N3  UNL     1      15.979   0.622  20.128  0.00  0.00    -0.239 NA
ATOM     10  C19 UNL     1      16.574  -0.587  20.071  0.00  0.00    +0.130 A 
ATOM     11  C20 UNL     1      16.347  -1.269  21.243  0.00  0.00    +0.106 A 
ATOM     12  N4  UNL     1      15.599  -0.486  22.040  0.00  0.00    -0.336 N 
ATOM     13  C21 UNL     1      15.140  -0.809  23.386  0.00  0.00    +0.150 C 
ENDBRANCH   7   8
BRANCH   6  14
ATOM     14  C6  UNL     1      12.539   3.281  21.068  0.00  0.00    +0.248 C 
ATOM     15  O3  UNL     1      12.350   3.488  22.292  0.00  0.00    -0.273 OA
ATOM     16  N2  UNL     1      11.681   3.916  20.098  0.00  0.00    -0.283 N 
ATOM     17  H9  UNL     1      11.686   3.574  19.110  0.00  0.00    +0.155 HD
BRANCH  16  18
ATOM     18  C7  UNL     1      10.684   4.895  20.441  0.00  0.00    +0.034 A 
ATOM     19  C8  UNL     1       9.359   4.474  20.677  0.00  0.00    +0.023 A 
ATOM     20  C9  UNL     1       8.362   5.404  21.014  0.00  0.00    +0.006 A 
ATOM     21  C10 UNL     1       8.707   6.752  21.111  0.00  0.00    -0.042 A 
ATOM     22  C11 UNL     1       9.989   7.174  20.866  0.00  0.00    -0.040 A 
ATOM     23  C12 UNL     1      10.992   6.271  20.509  0.00  0.00    +0.027 A 
ATOM     24  C13 UNL     1      10.119   8.644  20.984  0.00  0.00    +0.067 C 
ATOM     25  C14 UNL     1       8.763   9.089  21.579  0.00  0.00    +0.126 C 
ATOM     26  C16 UNL     1       7.803   7.882  21.431  0.00  0.00    +0.067 C 
BRANCH  25  27
ATOM     27  O4  UNL     1       8.289  10.226  20.880  0.00  0.00    -0.379 OA
ATOM     28  C15 UNL     1       7.794  11.192  21.786  0.00  0.00    +0.194 C 
ENDBRANCH  25  27
ENDBRANCH  16  18
ENDBRANCH   6  14
BRANCH   1  30
ATOM     29  C1  UNL     1      15.133   2.704  24.747  0.00  0.00    +0.024 C 
ATOM     30  C2  UNL     1      16.149   2.757  23.612  0.00  0.00    +0.105 C 
ENDBRANCH   1  30
TORSDOF 5
ENDMDL
MODEL 5
REMARK VINA RESULT:    -5.806     11.176     15.338
REMARK INTER + INTRA:          -8.135
REMARK INTER:                  -7.455
REMARK INTRA:                  -0.680
REMARK UNBOUND:                -0.632
REMARK  Name = /home/qwerty/github/datacon2025hack/step_04_hit_selection/docking/ligands/lig_784.pdb
REMARK  8 active torsions:
REMARK  status: ('A' for Active; 'I' for Inactive)
REMARK    1  A    between atoms: C1_1  and  C2_2
REMARK    2  A    between atoms: C2_2  and  N1_3
REMARK    3  A    between atoms: C5_8  and  C6_9
REMARK    4  A    between atoms: N2_11  and  C7_12
REMARK    5  A    between atoms: C14_19  and  O4_20
REMARK    6  A    between atoms: O4_20  and  C15_21
REMARK    7  A    between atoms: C17_23  and  C18_24
REMARK    8  A    between atoms: N4_28  and  C21_29
REMARK                            x       y       z     vdW  Elec       q    Type
REMARK                         _______ _______ _______ _____ _____    ______ ____
ROOT
ATOM      1  N1  UNL     1      11.577  12.955  35.070  0.00  0.00    -0.287 N 
ATOM      2  C3  UNL     1      10.562  13.972  34.961  0.00  0.00    +0.242 C 
ATOM      3  O1  UNL     1       9.618  14.034  35.798  0.00  0.00    -0.273 OA
ATOM      4  C4  UNL     1      10.576  14.931  33.799  0.00  0.00    +0.256 C 
ATOM      5  O2  UNL     1      11.872  15.102  33.239  0.00  0.00    -0.356 OA
ATOM      6  C5  UNL     1      12.496  13.859  32.943  0.00  0.00    +0.232 C 
ATOM      7  C17 UNL     1      12.796  13.085  34.255  0.00  0.00    +0.180 C 
ENDROOT
BRANCH   7   8
ATOM      8  C18 UNL     1      13.854  13.817  35.050  0.00  0.00    +0.133 A 
ATOM      9  N3  UNL     1      13.557  14.757  35.973  0.00  0.00    -0.239 NA
ATOM     10  C19 UNL     1      14.757  15.190  36.412  0.00  0.00    +0.130 A 
ATOM     11  C20 UNL     1      15.759  14.523  35.749  0.00  0.00    +0.106 A 
ATOM     12  N4  UNL     1      15.186  13.668  34.883  0.00  0.00    -0.336 N 
ATOM     13  C21 UNL     1      15.879  12.749  33.988  0.00  0.00    +0.150 C 
ENDBRANCH   7   8
BRANCH   6  14
ATOM     14  C6  UNL     1      11.729  13.105  31.865  0.00  0.00    +0.248 C 
ATOM     15  O3  UNL     1      11.392  11.922  32.113  0.00  0.00    -0.273 OA
ATOM     16  N2  UNL     1      11.391  13.690  30.591  0.00  0.00    -0.283 N 
ATOM     17  H9  UNL     1      11.859  14.577  30.295  0.00  0.00    +0.155 HD
BRANCH  16  18
ATOM     18  C7  UNL     1      10.560  13.038  29.614  0.00  0.00    +0.034 A 
ATOM     19  C8  UNL     1       9.164  13.238  29.654  0.00  0.00    +0.023 A 
ATOM     20  C9  UNL     1       8.325  12.618  28.715  0.00  0.00    +0.006 A 
ATOM     21  C10 UNL     1       8.898  11.800  27.741  0.00  0.00    -0.042 A 
ATOM     22  C11 UNL     1      10.251  11.586  27.703  0.00  0.00    -0.040 A 
ATOM     23  C12 UNL     1      11.104  12.174  28.639  0.00  0.00    +0.027 A 
ATOM     24  C13 UNL     1      10.633  10.654  26.617  0.00  0.00    +0.067 C 
ATOM     25  C14 UNL     1       9.331  10.482  25.802  0.00  0.00    +0.126 C 
ATOM     26  C16 UNL     1       8.186  11.045  26.682  0.00  0.00    +0.067 C 
BRANCH  25  27
ATOM     27  O4  UNL     1       9.137   9.111  25.502  0.00  0.00    -0.379 OA
ATOM     28  C15 UNL     1       7.914   8.655  26.044  0.00  0.00    +0.194 C 
ENDBRANCH  25  27
ENDBRANCH  16  18
ENDBRANCH   6  14
BRANCH   1  30
ATOM     29  C1  UNL     1      11.296  10.562  35.609  0.00  0.00    +0.024 C 
ATOM     30  C2  UNL     1      11.526  11.965  36.159  0.00  0.00    +0.105 C 
ENDBRANCH   1  30
TORSDOF 5
ENDMDL
MODEL 6
REMARK VINA RESULT:    -5.805     11.143     15.234
REMARK INTER + INTRA:          -8.135
REMARK INTER:                  -7.707
REMARK INTRA:                  -0.427
REMARK UNBOUND:                -0.632
REMARK  Name = /home/qwerty/github/datacon2025hack/step_04_hit_selection/docking/ligands/lig_784.pdb
REMARK  8 active torsions:
REMARK  status: ('A' for Active; 'I' for Inactive)
REMARK    1  A    between atoms: C1_1  and  C2_2
REMARK    2  A    between atoms: C2_2  and  N1_3
REMARK    3  A    between atoms: C5_8  and  C6_9
REMARK    4  A    between atoms: N2_11  and  C7_12
REMARK    5  A    between atoms: C14_19  and  O4_20
REMARK    6  A    between atoms: O4_20  and  C15_21
REMARK    7  A    between atoms: C17_23  and  C18_24
REMARK    8  A    between atoms: N4_28  and  C21_29
REMARK                            x       y       z     vdW  Elec       q    Type
REMARK                         _______ _______ _______ _____ _____    ______ ____
ROOT
ATOM      1  N1  UNL     1      11.428  12.607  35.822  0.00  0.00    -0.287 N 
ATOM      2  C3  UNL     1      10.742  13.781  35.344  0.00  0.00    +0.242 C 
ATOM      3  O1  UNL     1       9.885  14.365  36.065  0.00  0.00    -0.273 OA
ATOM      4  C4  UNL     1      10.987  14.282  33.944  0.00  0.00    +0.256 C 
ATOM      5  O2  UNL     1      12.257  13.897  33.433  0.00  0.00    -0.356 OA
ATOM      6  C5  UNL     1      12.490  12.501  33.574  0.00  0.00    +0.232 C 
ATOM      7  C17 UNL     1      12.604  12.126  35.077  0.00  0.00    +0.180 C 
ENDROOT
BRANCH   7   8
ATOM      8  C18 UNL     1      13.855  12.743  35.665  0.00  0.00    +0.133 A 
ATOM      9  N3  UNL     1      13.876  13.977  36.211  0.00  0.00    -0.239 NA
ATOM     10  C19 UNL     1      15.162  14.166  36.569  0.00  0.00    +0.130 A 
ATOM     11  C20 UNL     1      15.903  13.059  36.229  0.00  0.00    +0.106 A 
ATOM     12  N4  UNL     1      15.078  12.170  35.648  0.00  0.00    -0.336 N 
ATOM     13  C21 UNL     1      15.442  10.849  35.149  0.00  0.00    +0.150 C 
ENDBRANCH   7   8
BRANCH   6  14
ATOM     14  C6  UNL     1      11.503  11.695  32.742  0.00  0.00    +0.248 C 
ATOM     15  O3  UNL     1      10.837  10.808  33.330  0.00  0.00    -0.273 OA
ATOM     16  N2  UNL     1      11.316  11.906  31.328  0.00  0.00    -0.283 N 
ATOM     17  H9  UNL     1      12.018  12.472  30.798  0.00  0.00    +0.155 HD
BRANCH  16  18
ATOM     18  C7  UNL     1      10.300  11.243  30.554  0.00  0.00    +0.034 A 
ATOM     19  C8  UNL     1       9.288  12.013  29.944  0.00  0.00    +0.023 A 
ATOM     20  C9  UNL     1       8.283  11.397  29.181  0.00  0.00    +0.006 A 
ATOM     21  C10 UNL     1       8.304  10.010  29.037  0.00  0.00    -0.042 A 
ATOM     22  C11 UNL     1       9.274   9.251  29.640  0.00  0.00    -0.040 A 
ATOM     23  C12 UNL     1      10.272   9.837  30.421  0.00  0.00    +0.027 A 
ATOM     24  C13 UNL     1       9.079   7.805  29.390  0.00  0.00    +0.067 C 
ATOM     25  C14 UNL     1       7.957   7.761  28.327  0.00  0.00    +0.126 C 
ATOM     26  C16 UNL     1       7.328   9.177  28.296  0.00  0.00    +0.067 C 
BRANCH  25  27
ATOM     27  O4  UNL     1       7.007   6.771  28.679  0.00  0.00    -0.379 OA
ATOM     28  C15 UNL     1       6.887   6.679  30.084  0.00  0.00    +0.194 C 
ENDBRANCH  25  27
ENDBRANCH  16  18
ENDBRANCH   6  14
BRANCH   1  30
ATOM     29  C1  UNL     1      11.163  10.541  37.147  0.00  0.00    +0.024 C 
ATOM     30  C2  UNL     1      11.136  12.065  37.159  0.00  0.00    +0.105 C 
ENDBRANCH   1  30
TORSDOF 5
ENDMDL
MODEL 7
REMARK VINA RESULT:    -5.726     14.532     18.461
REMARK INTER + INTRA:          -8.032
REMARK INTER:                  -7.477
REMARK INTRA:                  -0.555
REMARK UNBOUND:                -0.632
REMARK  Name = /home/qwerty/github/datacon2025hack/step_04_hit_selection/docking/ligands/lig_784.pdb
REMARK  8 active torsions:
REMARK  status: ('A' for Active; 'I' for Inactive)
REMARK    1  A    between atoms: C1_1  and  C2_2
REMARK    2  A    between atoms: C2_2  and  N1_3
REMARK    3  A    between atoms: C5_8  and  C6_9
REMARK    4  A    between atoms: N2_11  and  C7_12
REMARK    5  A    between atoms: C14_19  and  O4_20
REMARK    6  A    between atoms: O4_20  and  C15_21
REMARK    7  A    between atoms: C17_23  and  C18_24
REMARK    8  A    between atoms: N4_28  and  C21_29
REMARK                            x       y       z     vdW  Elec       q    Type
REMARK                         _______ _______ _______ _____ _____    ______ ____
ROOT
ATOM      1  N1  UNL     1      19.229   6.873  35.554  0.00  0.00    -0.287 N 
ATOM      2  C3  UNL     1      18.733   6.676  36.892  0.00  0.00    +0.242 C 
ATOM      3  O1  UNL     1      18.126   5.614  37.205  0.00  0.00    -0.273 OA
ATOM      4  C4  UNL     1      18.871   7.771  37.918  0.00  0.00    +0.256 C 
ATOM      5  O2  UNL     1      19.950   8.656  37.641  0.00  0.00    -0.356 OA
ATOM      6  C5  UNL     1      19.913   9.144  36.306  0.00  0.00    +0.232 C 
ATOM      7  C17 UNL     1      20.164   7.983  35.305  0.00  0.00    +0.180 C 
ENDROOT
BRANCH   7   8
ATOM      8  C18 UNL     1      21.585   7.483  35.447  0.00  0.00    +0.133 A 
ATOM      9  N3  UNL     1      21.978   6.671  36.451  0.00  0.00    -0.239 NA
ATOM     10  C19 UNL     1      23.300   6.498  36.247  0.00  0.00    +0.130 A 
ATOM     11  C20 UNL     1      23.693   7.209  35.138  0.00  0.00    +0.106 A 
ATOM     12  N4  UNL     1      22.612   7.839  34.645  0.00  0.00    -0.336 N 
ATOM     13  C21 UNL     1      22.571   8.690  33.462  0.00  0.00    +0.150 C 
ENDBRANCH   7   8
BRANCH   6  14
ATOM     14  C6  UNL     1      18.674   9.995  36.068  0.00  0.00    +0.248 C 
ATOM     15  O3  UNL     1      18.189  10.003  34.911  0.00  0.00    -0.273 OA
ATOM     16  N2  UNL     1      18.055  10.783  37.105  0.00  0.00    -0.283 N 
ATOM     17  H9  UNL     1      18.577  10.960  37.994  0.00  0.00    +0.155 HD
BRANCH  16  18
ATOM     18  C7  UNL     1      16.814  11.491  36.931  0.00  0.00    +0.034 A 
ATOM     19  C8  UNL     1      16.837  12.893  36.779  0.00  0.00    +0.023 A 
ATOM     20  C9  UNL     1      15.644  13.612  36.607  0.00  0.00    +0.006 A 
ATOM     21  C10 UNL     1      14.436  12.915  36.588  0.00  0.00    -0.042 A 
ATOM     22  C11 UNL     1      14.402  11.555  36.752  0.00  0.00    -0.040 A 
ATOM     23  C12 UNL     1      15.572  10.819  36.947  0.00  0.00    +0.027 A 
ATOM     24  C13 UNL     1      13.016  11.032  36.742  0.00  0.00    +0.067 C 
ATOM     25  C14 UNL     1      12.166  12.246  36.306  0.00  0.00    +0.126 C 
ATOM     26  C16 UNL     1      13.078  13.491  36.440  0.00  0.00    +0.067 C 
BRANCH  25  27
ATOM     27  O4  UNL     1      11.019  12.343  37.132  0.00  0.00    -0.379 OA
ATOM     28  C15 UNL     1      10.890  11.190  37.937  0.00  0.00    +0.194 C 
ENDBRANCH  25  27
ENDBRANCH  16  18
ENDBRANCH   6  14
BRANCH   1  30
ATOM     29  C1  UNL     1      17.930   6.245  33.551  0.00  0.00    +0.024 C 
ATOM     30  C2  UNL     1      19.029   5.839  34.525  0.00  0.00    +0.105 C 
ENDBRANCH   1  30
TORSDOF 5
ENDMDL
MODEL 8
REMARK VINA RESULT:    -5.702      6.187     10.561
REMARK INTER + INTRA:          -8.001
REMARK INTER:                  -7.627
REMARK INTRA:                  -0.374
REMARK UNBOUND:                -0.632
REMARK  Name = /home/qwerty/github/datacon2025hack/step_04_hit_selection/docking/ligands/lig_784.pdb
REMARK  8 active torsions:
REMARK  status: ('A' for Active; 'I' for Inactive)
REMARK    1  A    between atoms: C1_1  and  C2_2
REMARK    2  A    between atoms: C2_2  and  N1_3
REMARK    3  A    between atoms: C5_8  and  C6_9
REMARK    4  A    between atoms: N2_11  and  C7_12
REMARK    5  A    between atoms: C14_19  and  O4_20
REMARK    6  A    between atoms: O4_20  and  C15_21
REMARK    7  A    between atoms: C17_23  and  C18_24
REMARK    8  A    between atoms: N4_28  and  C21_29
REMARK                            x       y       z     vdW  Elec       q    Type
REMARK                         _______ _______ _______ _____ _____    ______ ____
ROOT
ATOM      1  N1  UNL     1      10.527   7.712  22.273  0.00  0.00    -0.287 N 
ATOM      2  C3  UNL     1      10.338   8.714  21.255  0.00  0.00    +0.242 C 
ATOM      3  O1  UNL     1      11.282   9.024  20.475  0.00  0.00    -0.273 OA
ATOM      4  C4  UNL     1       9.031   9.455  21.157  0.00  0.00    +0.256 C 
ATOM      5  O2  UNL     1       7.938   8.725  21.700  0.00  0.00    -0.356 OA
ATOM      6  C5  UNL     1       8.212   8.248  23.011  0.00  0.00    +0.232 C 
ATOM      7  C17 UNL     1       9.342   7.183  22.969  0.00  0.00    +0.180 C 
ENDROOT
BRANCH   7   8
ATOM      8  C18 UNL     1       8.851   5.945  22.251  0.00  0.00    +0.133 A 
ATOM      9  N3  UNL     1       8.935   5.794  20.912  0.00  0.00    -0.239 NA
ATOM     10  C19 UNL     1       8.358   4.599  20.670  0.00  0.00    +0.130 A 
ATOM     11  C20 UNL     1       7.925   4.048  21.853  0.00  0.00    +0.106 A 
ATOM     12  N4  UNL     1       8.225   4.905  22.844  0.00  0.00    -0.336 N 
ATOM     13  C21 UNL     1       7.961   4.712  24.266  0.00  0.00    +0.150 C 
ENDBRANCH   7   8
BRANCH   6  14
ATOM     14  C6  UNL     1       8.398   9.402  23.986  0.00  0.00    +0.248 C 
ATOM     15  O3  UNL     1       7.697  10.428  23.809  0.00  0.00    -0.273 OA
ATOM     16  N2  UNL     1       9.339   9.362  25.077  0.00  0.00    -0.283 N 
ATOM     17  H9  UNL     1      10.075   8.619  25.091  0.00  0.00    +0.155 HD
BRANCH  16  18
ATOM     18  C7  UNL     1       9.437  10.390  26.080  0.00  0.00    +0.034 A 
ATOM     19  C8  UNL     1       8.280  10.769  26.792  0.00  0.00    +0.023 A 
ATOM     20  C9  UNL     1       8.342  11.767  27.776  0.00  0.00    +0.006 A 
ATOM     21  C10 UNL     1       9.569  12.377  28.038  0.00  0.00    -0.042 A 
ATOM     22  C11 UNL     1      10.696  12.027  27.340  0.00  0.00    -0.040 A 
ATOM     23  C12 UNL     1      10.656  11.053  26.342  0.00  0.00    +0.027 A 
ATOM     24  C13 UNL     1      11.871  12.829  27.752  0.00  0.00    +0.067 C 
ATOM     25  C14 UNL     1      11.378  13.595  29.000  0.00  0.00    +0.126 C 
ATOM     26  C16 UNL     1       9.835  13.458  29.017  0.00  0.00    +0.067 C 
BRANCH  25  27
ATOM     27  O4  UNL     1      11.785  14.949  28.917  0.00  0.00    -0.379 OA
ATOM     28  C15 UNL     1      12.398  15.206  27.670  0.00  0.00    +0.194 C 
ENDBRANCH  25  27
ENDBRANCH  16  18
ENDBRANCH   6  14
BRANCH   1  30
ATOM     29  C1  UNL     1      12.151   6.808  23.897  0.00  0.00    +0.024 C 
ATOM     30  C2  UNL     1      11.827   7.038  22.426  0.00  0.00    +0.105 C 
ENDBRANCH   1  30
TORSDOF 5
ENDMDL
MODEL 9
REMARK VINA RESULT:    -5.635     14.621     18.552
REMARK INTER + INTRA:          -7.914
REMARK INTER:                  -7.354
REMARK INTRA:                  -0.560
REMARK UNBOUND:                -0.632
REMARK  Name = /home/qwerty/github/datacon2025hack/step_04_hit_selection/docking/ligands/lig_784.pdb
REMARK  8 active torsions:
REMARK  status: ('A' for Active; 'I' for Inactive)
REMARK    1  A    between atoms: C1_1  and  C2_2
REMARK    2  A    between atoms: C2_2  and  N1_3
REMARK    3  A    between atoms: C5_8  and  C6_9
REMARK    4  A    between atoms: N2_11  and  C7_12
REMARK    5  A    between atoms: C14_19  and  O4_20
REMARK    6  A    between atoms: O4_20  and  C15_21
REMARK    7  A    between atoms: C17_23  and  C18_24
REMARK    8  A    between atoms: N4_28  and  C21_29
REMARK                            x       y       z     vdW  Elec       q    Type
REMARK                         _______ _______ _______ _____ _____    ______ ____
ROOT
ATOM      1  N1  UNL     1      19.502   6.795  35.006  0.00  0.00    -0.287 N 
ATOM      2  C3  UNL     1      19.024   5.946  36.068  0.00  0.00    +0.242 C 
ATOM      3  O1  UNL     1      18.410   4.874  35.807  0.00  0.00    -0.273 OA
ATOM      4  C4  UNL     1      19.188   6.368  37.505  0.00  0.00    +0.256 C 
ATOM      5  O2  UNL     1      20.272   7.268  37.697  0.00  0.00    -0.356 OA
ATOM      6  C5  UNL     1      20.221   8.367  36.796  0.00  0.00    +0.232 C 
ATOM      7  C17 UNL     1      20.444   7.877  35.340  0.00  0.00    +0.180 C 
ENDROOT
BRANCH   7   8
ATOM      8  C18 UNL     1      21.862   7.371  35.182  0.00  0.00    +0.133 A 
ATOM      9  N3  UNL     1      22.467   6.591  36.103  0.00  0.00    -0.239 NA
ATOM     10  C19 UNL     1      23.712   6.402  35.618  0.00  0.00    +0.130 A 
ATOM     11  C20 UNL     1      23.850   7.071  34.425  0.00  0.00    +0.106 A 
ATOM     12  N4  UNL     1      22.686   7.692  34.161  0.00  0.00    -0.336 N 
ATOM     13  C21 UNL     1      22.385   8.502  32.987  0.00  0.00    +0.150 C 
ENDBRANCH   7   8
BRANCH   6  14
ATOM     14  C6  UNL     1      18.987   9.223  37.047  0.00  0.00    +0.248 C 
ATOM     15  O3  UNL     1      18.740   9.551  38.233  0.00  0.00    -0.273 OA
ATOM     16  N2  UNL     1      18.105   9.654  35.990  0.00  0.00    -0.283 N 
ATOM     17  H9  UNL     1      18.174   9.201  35.050  0.00  0.00    +0.155 HD
BRANCH  16  18
ATOM     18  C7  UNL     1      17.010  10.566  36.193  0.00  0.00    +0.034 A 
ATOM     19  C8  UNL     1      15.718  10.049  36.418  0.00  0.00    +0.023 A 
ATOM     20  C9  UNL     1      14.628  10.911  36.620  0.00  0.00    +0.006 A 
ATOM     21  C10 UNL     1      14.848  12.288  36.593  0.00  0.00    -0.042 A 
ATOM     22  C11 UNL     1      16.098  12.801  36.358  0.00  0.00    -0.040 A 
ATOM     23  C12 UNL     1      17.193  11.965  36.133  0.00  0.00    +0.027 A 
ATOM     24  C13 UNL     1      16.092  14.281  36.331  0.00  0.00    +0.067 C 
ATOM     25  C14 UNL     1      14.675  14.654  36.825  0.00  0.00    +0.126 C 
ATOM     26  C16 UNL     1      13.833  13.355  36.762  0.00  0.00    +0.067 C 
BRANCH  25  27
ATOM     27  O4  UNL     1      14.137  15.670  35.997  0.00  0.00    -0.379 OA
ATOM     28  C15 UNL     1      14.625  16.937  36.387  0.00  0.00    +0.194 C 
ENDBRANCH  25  27
ENDBRANCH  16  18
ENDBRANCH   6  14
BRANCH   1  30
ATOM     29  C1  UNL     1      18.549   7.544  32.856  0.00  0.00    +0.024 C 
ATOM     30  C2  UNL     1      19.276   6.429  33.598  0.00  0.00    +0.105 C 
ENDBRANCH   1  30
TORSDOF 5
ENDMDL
