REMARK  Name = /home/qwerty/github/datacon2025hack/step_04_hit_selection/docking/ligands/lig_795.pdb
REMARK  7 active torsions:
REMARK  status: ('A' for Active; 'I' for Inactive)
REMARK    1  A    between atoms: C1_1  and  O1_2
REMARK    2  A    between atoms: O1_2  and  C2_3
REMARK    3  A    between atoms: C5_6  and  C6_7
REMARK    4  A    between atoms: C6_7  and  N1_8
REMARK    5  A    between atoms: C7_9  and  C8_11
REMARK    6  A    between atoms: C16_23  and  O5_24
REMARK    7  A    between atoms: O5_24  and  C17_25
REMARK                            x       y       z     vdW  Elec       q    Type
REMARK                         _______ _______ _______ _____ _____    ______ ____
ROOT
ATOM      1  N1  UNL     1       0.497   1.383  -0.932  0.00  0.00    -0.306 N 
ATOM      2  C7  UNL     1       1.244   1.155   0.275  0.00  0.00    +0.244 C 
ATOM      3  O2  UNL     1       0.843   1.662   1.359  0.00  0.00    -0.270 OA
ATOM      4  H8  UNL     1       0.740   0.862  -1.803  0.00  0.00    +0.149 HD
ENDROOT
BRANCH   2   5
ATOM      5  C8  UNL     1       2.468   0.319   0.275  0.00  0.00    +0.038 A 
ATOM      6  C9  UNL     1       2.885  -0.318   1.473  0.00  0.00    +0.014 A 
ATOM      7  C10 UNL     1       4.043  -1.113   1.503  0.00  0.00    +0.014 A 
ATOM      8  C11 UNL     1       4.773  -1.251   0.327  0.00  0.00    +0.048 A 
ATOM      9  C12 UNL     1       4.387  -0.629  -0.845  0.00  0.00    +0.045 A 
ATOM     10  C13 UNL     1       3.243   0.164  -0.899  0.00  0.00    +0.037 A 
ATOM     11  N2  UNL     1       5.290  -0.894  -1.920  0.00  0.00    -0.278 N 
ATOM     12  C14 UNL     1       6.288  -1.739  -1.352  0.00  0.00    +0.289 C 
ATOM     13  O3  UNL     1       7.272  -2.196  -1.991  0.00  0.00    -0.266 OA
ATOM     14  C15 UNL     1       5.997  -1.984   0.054  0.00  0.00    +0.249 C 
ATOM     15  O4  UNL     1       6.667  -2.681   0.861  0.00  0.00    -0.282 OA
ATOM     16  H12 UNL     1       5.233  -0.546  -2.902  0.00  0.00    +0.155 HD
ENDBRANCH   2   5
BRANCH   1  17
ATOM     17  C6  UNL     1      -0.668   2.264  -0.974  0.00  0.00    +0.160 C 
BRANCH  17  21
ATOM     18  C2  UNL     1      -4.008   0.271   0.834  0.00  0.00    +0.181 A 
ATOM     19  C3  UNL     1      -3.442   1.391   1.470  0.00  0.00    +0.053 A 
ATOM     20  C4  UNL     1      -2.359   2.052   0.890  0.00  0.00    +0.029 A 
ATOM     21  C5  UNL     1      -1.845   1.594  -0.329  0.00  0.00    +0.062 A 
ATOM     22  N3  UNL     1      -2.404   0.507  -0.926  0.00  0.00    -0.213 NA
ATOM     23  C16 UNL     1      -3.461  -0.158  -0.383  0.00  0.00    +0.258 A 
BRANCH  18  25
ATOM     24  C1  UNL     1      -5.740  -0.099   2.598  0.00  0.00    +0.277 C 
ATOM     25  O1  UNL     1      -5.097  -0.431   1.372  0.00  0.00    -0.490 OA
ENDBRANCH  18  25
BRANCH  23  26
ATOM     26  O5  UNL     1      -4.008  -1.272  -1.029  0.00  0.00    -0.477 OA
ATOM     27  C17 UNL     1      -3.505  -1.770  -2.262  0.00  0.00    +0.279 C 
ENDBRANCH  23  26
ENDBRANCH  17  21
ENDBRANCH   1  17
TORSDOF 5
