MODEL 1
REMARK VINA RESULT:    -7.035      0.000      0.000
REMARK INTER + INTRA:          -8.784
REMARK INTER:                  -8.474
REMARK INTRA:                  -0.310
REMARK UNBOUND:                -0.310
REMARK  Name = /home/qwerty/github/datacon2025hack/step_04_hit_selection/docking/ligands/lig_637.pdb
REMARK  4 active torsions:
REMARK  status: ('A' for Active; 'I' for Inactive)
REMARK    1  A    between atoms: C1_2  and  O2_3
REMARK    2  A    between atoms: C1_2  and  C2_4
REMARK    3  A    between atoms: C5_7  and  C6_8
REMARK    4  A    between atoms: N1_10  and  C7_11
REMARK                            x       y       z     vdW  Elec       q    Type
REMARK                         _______ _______ _______ _____ _____    ______ ____
ROOT
ATOM      1  C6  UNL     1      22.731  10.814  30.424  0.00  0.00    +0.248 C 
ATOM      2  O3  UNL     1      21.540  10.776  30.012  0.00  0.00    -0.270 OA
ATOM      3  N1  UNL     1      23.543  11.976  30.169  0.00  0.00    -0.281 N 
ATOM      4  H4  UNL     1      24.479  12.055  30.623  0.00  0.00    +0.155 HD
ENDROOT
BRANCH   3   5
ATOM      5  C7  UNL     1      23.113  13.091  29.369  0.00  0.00    +0.035 A 
ATOM      6  C8  UNL     1      22.201  14.007  29.906  0.00  0.00    +0.039 A 
ATOM      7  C9  UNL     1      21.773  15.116  29.169  0.00  0.00    +0.027 A 
ATOM      8 BR1  UNL     1      20.505  16.295  30.000  0.00  0.00    -0.050 Br
ATOM      9  C10 UNL     1      22.278  15.333  27.868  0.00  0.00    -0.004 A 
ATOM     10  C11 UNL     1      21.877  16.437  27.089  0.00  0.00    +0.009 A 
ATOM     11  C12 UNL     1      22.403  16.629  25.809  0.00  0.00    +0.001 A 
ATOM     12  C13 UNL     1      23.335  15.730  25.289  0.00  0.00    +0.001 A 
ATOM     13  C14 UNL     1      23.746  14.630  26.044  0.00  0.00    +0.008 A 
ATOM     14  C15 UNL     1      23.223  14.421  27.331  0.00  0.00    -0.015 A 
ATOM     15  C16 UNL     1      23.638  13.315  28.086  0.00  0.00    +0.032 A 
ENDBRANCH   3   5
BRANCH   1  19
ATOM     16  C2  UNL     1      24.243   7.413  32.598  0.00  0.00    +0.059 A 
ATOM     17  C3  UNL     1      23.081   7.309  31.816  0.00  0.00    +0.016 A 
ATOM     18  C4  UNL     1      22.597   8.417  31.115  0.00  0.00    +0.014 A 
ATOM     19  C5  UNL     1      23.266   9.651  31.173  0.00  0.00    +0.037 A 
ATOM     20  C17 UNL     1      24.421   9.758  31.968  0.00  0.00    +0.014 A 
ATOM     21  C18 UNL     1      24.905   8.650  32.671  0.00  0.00    +0.016 A 
BRANCH  16  23
ATOM     22  O1  UNL     1      25.539   5.424  32.784  0.00  0.00    -0.245 OA
ATOM     23  C1  UNL     1      24.752   6.239  33.339  0.00  0.00    +0.337 C 
BRANCH  23  24
ATOM     24  O2  UNL     1      24.367   6.021  34.661  0.00  0.00    -0.477 OA
ATOM     25  H1  UNL     1      23.475   5.593  34.878  0.00  0.00    +0.295 HD
ENDBRANCH  23  24
ENDBRANCH  16  23
ENDBRANCH   1  19
TORSDOF 4
ENDMDL
MODEL 2
REMARK VINA RESULT:    -6.607     12.127     14.416
REMARK INTER + INTRA:          -8.268
REMARK INTER:                  -8.079
REMARK INTRA:                  -0.189
REMARK UNBOUND:                -0.310
REMARK  Name = /home/qwerty/github/datacon2025hack/step_04_hit_selection/docking/ligands/lig_637.pdb
REMARK  4 active torsions:
REMARK  status: ('A' for Active; 'I' for Inactive)
REMARK    1  A    between atoms: C1_2  and  O2_3
REMARK    2  A    between atoms: C1_2  and  C2_4
REMARK    3  A    between atoms: C5_7  and  C6_8
REMARK    4  A    between atoms: N1_10  and  C7_11
REMARK                            x       y       z     vdW  Elec       q    Type
REMARK                         _______ _______ _______ _____ _____    ______ ____
ROOT
ATOM      1  C6  UNL     1      14.198   9.833  20.852  0.00  0.00    +0.248 C 
ATOM      2  O3  UNL     1      14.848   9.184  21.716  0.00  0.00    -0.270 OA
ATOM      3  N1  UNL     1      14.879  10.401  19.717  0.00  0.00    -0.281 N 
ATOM      4  H4  UNL     1      14.319  10.821  18.943  0.00  0.00    +0.155 HD
ENDROOT
BRANCH   3   5
ATOM      5  C7  UNL     1      16.306  10.366  19.542  0.00  0.00    +0.035 A 
ATOM      6  C8  UNL     1      16.947   9.131  19.392  0.00  0.00    +0.039 A 
ATOM      7  C9  UNL     1      18.329   9.053  19.198  0.00  0.00    +0.027 A 
ATOM      8 BR1  UNL     1      19.103   7.304  19.024  0.00  0.00    -0.050 Br
ATOM      9  C10 UNL     1      19.098  10.237  19.135  0.00  0.00    -0.004 A 
ATOM     10  C11 UNL     1      20.493  10.208  18.941  0.00  0.00    +0.009 A 
ATOM     11  C12 UNL     1      21.223  11.398  18.873  0.00  0.00    +0.001 A 
ATOM     12  C13 UNL     1      20.577  12.628  18.993  0.00  0.00    +0.001 A 
ATOM     13  C14 UNL     1      19.195  12.679  19.186  0.00  0.00    +0.008 A 
ATOM     14  C15 UNL     1      18.447  11.492  19.261  0.00  0.00    -0.015 A 
ATOM     15  C16 UNL     1      17.060  11.547  19.455  0.00  0.00    +0.032 A 
ENDBRANCH   3   5
BRANCH   1  19
ATOM     16  C2  UNL     1       9.945  10.263  21.405  0.00  0.00    +0.059 A 
ATOM     17  C3  UNL     1      10.794  10.044  22.501  0.00  0.00    +0.016 A 
ATOM     18  C4  UNL     1      12.172   9.903  22.313  0.00  0.00    +0.014 A 
ATOM     19  C5  UNL     1      12.733   9.989  21.028  0.00  0.00    +0.037 A 
ATOM     20  C17 UNL     1      11.880  10.194  19.929  0.00  0.00    +0.014 A 
ATOM     21  C18 UNL     1      10.501  10.333  20.117  0.00  0.00    +0.016 A 
BRANCH  16  23
ATOM     22  O1  UNL     1       7.876   9.665  22.422  0.00  0.00    -0.245 OA
ATOM     23  C1  UNL     1       8.487  10.410  21.607  0.00  0.00    +0.337 C 
BRANCH  23  24
ATOM     24  O2  UNL     1       7.773  11.374  20.898  0.00  0.00    -0.477 OA
ATOM     25  H1  UNL     1       7.098  11.106  20.192  0.00  0.00    +0.295 HD
ENDBRANCH  23  24
ENDBRANCH  16  23
ENDBRANCH   1  19
TORSDOF 4
ENDMDL
MODEL 3
REMARK VINA RESULT:    -6.408      9.593     12.932
REMARK INTER + INTRA:          -8.028
REMARK INTER:                  -7.640
REMARK INTRA:                  -0.389
REMARK UNBOUND:                -0.310
REMARK  Name = /home/qwerty/github/datacon2025hack/step_04_hit_selection/docking/ligands/lig_637.pdb
REMARK  4 active torsions:
REMARK  status: ('A' for Active; 'I' for Inactive)
REMARK    1  A    between atoms: C1_2  and  O2_3
REMARK    2  A    between atoms: C1_2  and  C2_4
REMARK    3  A    between atoms: C5_7  and  C6_8
REMARK    4  A    between atoms: N1_10  and  C7_11
REMARK                            x       y       z     vdW  Elec       q    Type
REMARK                         _______ _______ _______ _____ _____    ______ ____
ROOT
ATOM      1  C6  UNL     1      21.329   4.151  25.171  0.00  0.00    +0.248 C 
ATOM      2  O3  UNL     1      21.442   4.971  26.122  0.00  0.00    -0.270 OA
ATOM      3  N1  UNL     1      21.105   2.755  25.449  0.00  0.00    -0.281 N 
ATOM      4  H4  UNL     1      20.882   2.106  24.663  0.00  0.00    +0.155 HD
ENDROOT
BRANCH   3   5
ATOM      5  C7  UNL     1      21.099   2.196  26.774  0.00  0.00    +0.035 A 
ATOM      6  C8  UNL     1      22.313   1.834  27.369  0.00  0.00    +0.039 A 
ATOM      7  C9  UNL     1      22.354   1.307  28.664  0.00  0.00    +0.027 A 
ATOM      8 BR1  UNL     1      24.074   0.827  29.371  0.00  0.00    -0.050 Br
ATOM      9  C10 UNL     1      21.157   1.149  29.397  0.00  0.00    -0.004 A 
ATOM     10  C11 UNL     1      21.149   0.623  30.704  0.00  0.00    +0.009 A 
ATOM     11  C12 UNL     1      19.949   0.490  31.406  0.00  0.00    +0.001 A 
ATOM     12  C13 UNL     1      18.743   0.880  30.822  0.00  0.00    +0.001 A 
ATOM     13  C14 UNL     1      18.729   1.403  29.528  0.00  0.00    +0.008 A 
ATOM     14  C15 UNL     1      19.927   1.540  28.806  0.00  0.00    -0.015 A 
ATOM     15  C16 UNL     1      19.908   2.066  27.507  0.00  0.00    +0.032 A 
ENDBRANCH   3   5
BRANCH   1  19
ATOM     16  C2  UNL     1      21.592   5.562  21.107  0.00  0.00    +0.059 A 
ATOM     17  C3  UNL     1      20.803   4.447  21.432  0.00  0.00    +0.016 A 
ATOM     18  C4  UNL     1      20.725   3.994  22.752  0.00  0.00    +0.014 A 
ATOM     19  C5  UNL     1      21.425   4.651  23.778  0.00  0.00    +0.037 A 
ATOM     20  C17 UNL     1      22.226   5.759  23.450  0.00  0.00    +0.014 A 
ATOM     21  C18 UNL     1      22.306   6.211  22.128  0.00  0.00    +0.016 A 
BRANCH  16  23
ATOM     22  O1  UNL     1      21.119   7.118  19.367  0.00  0.00    -0.245 OA
ATOM     23  C1  UNL     1      21.674   6.037  19.709  0.00  0.00    +0.337 C 
BRANCH  23  24
ATOM     24  O2  UNL     1      22.365   5.295  18.754  0.00  0.00    -0.477 OA
ATOM     25  H1  UNL     1      23.368   5.167  18.821  0.00  0.00    +0.295 HD
ENDBRANCH  23  24
ENDBRANCH  16  23
ENDBRANCH   1  19
TORSDOF 4
ENDMDL
MODEL 4
REMARK VINA RESULT:    -6.406      7.993      9.964
REMARK INTER + INTRA:          -8.026
REMARK INTER:                  -7.626
REMARK INTRA:                  -0.400
REMARK UNBOUND:                -0.310
REMARK  Name = /home/qwerty/github/datacon2025hack/step_04_hit_selection/docking/ligands/lig_637.pdb
REMARK  4 active torsions:
REMARK  status: ('A' for Active; 'I' for Inactive)
REMARK    1  A    between atoms: C1_2  and  O2_3
REMARK    2  A    between atoms: C1_2  and  C2_4
REMARK    3  A    between atoms: C5_7  and  C6_8
REMARK    4  A    between atoms: N1_10  and  C7_11
REMARK                            x       y       z     vdW  Elec       q    Type
REMARK                         _______ _______ _______ _____ _____    ______ ____
ROOT
ATOM      1  C6  UNL     1      21.496   4.119  31.208  0.00  0.00    +0.248 C 
ATOM      2  O3  UNL     1      21.272   3.192  32.032  0.00  0.00    -0.270 OA
ATOM      3  N1  UNL     1      21.657   5.472  31.675  0.00  0.00    -0.281 N 
ATOM      4  H4  UNL     1      21.971   6.210  31.007  0.00  0.00    +0.155 HD
ENDROOT
BRANCH   3   5
ATOM      5  C7  UNL     1      21.475   5.871  33.045  0.00  0.00    +0.035 A 
ATOM      6  C8  UNL     1      20.190   6.184  33.502  0.00  0.00    +0.039 A 
ATOM      7  C9  UNL     1      19.967   6.555  34.831  0.00  0.00    +0.027 A 
ATOM      8 BR1  UNL     1      18.164   6.981  35.341  0.00  0.00    -0.050 Br
ATOM      9  C10 UNL     1      21.048   6.602  35.740  0.00  0.00    -0.004 A 
ATOM     10  C11 UNL     1      20.870   6.970  37.088  0.00  0.00    +0.009 A 
ATOM     11  C12 UNL     1      21.959   6.996  37.963  0.00  0.00    +0.001 A 
ATOM     12  C13 UNL     1      23.235   6.654  37.512  0.00  0.00    +0.001 A 
ATOM     13  C14 UNL     1      23.431   6.287  36.179  0.00  0.00    +0.008 A 
ATOM     14  C15 UNL     1      22.348   6.260  35.286  0.00  0.00    -0.015 A 
ATOM     15  C16 UNL     1      22.550   5.890  33.948  0.00  0.00    +0.032 A 
ENDBRANCH   3   5
BRANCH   1  19
ATOM     16  C2  UNL     1      21.813   3.112  27.029  0.00  0.00    +0.059 A 
ATOM     17  C3  UNL     1      21.972   2.130  28.020  0.00  0.00    +0.016 A 
ATOM     18  C4  UNL     1      21.869   2.466  29.373  0.00  0.00    +0.014 A 
ATOM     19  C5  UNL     1      21.597   3.786  29.765  0.00  0.00    +0.037 A 
ATOM     20  C17 UNL     1      21.452   4.772  28.773  0.00  0.00    +0.014 A 
ATOM     21  C18 UNL     1      21.556   4.437  27.419  0.00  0.00    +0.016 A 
BRANCH  16  23
ATOM     22  O1  UNL     1      20.976   2.164  25.011  0.00  0.00    -0.245 OA
ATOM     23  C1  UNL     1      21.923   2.754  25.598  0.00  0.00    +0.337 C 
BRANCH  23  24
ATOM     24  O2  UNL     1      23.078   3.066  24.883  0.00  0.00    -0.477 OA
ATOM     25  H1  UNL     1      23.027   3.583  24.012  0.00  0.00    +0.295 HD
ENDBRANCH  23  24
ENDBRANCH  16  23
ENDBRANCH   1  19
TORSDOF 4
ENDMDL
MODEL 5
REMARK VINA RESULT:    -6.313      9.941     10.742
REMARK INTER + INTRA:          -7.915
REMARK INTER:                  -7.552
REMARK INTRA:                  -0.363
REMARK UNBOUND:                -0.310
REMARK  Name = /home/qwerty/github/datacon2025hack/step_04_hit_selection/docking/ligands/lig_637.pdb
REMARK  4 active torsions:
REMARK  status: ('A' for Active; 'I' for Inactive)
REMARK    1  A    between atoms: C1_2  and  O2_3
REMARK    2  A    between atoms: C1_2  and  C2_4
REMARK    3  A    between atoms: C5_7  and  C6_8
REMARK    4  A    between atoms: N1_10  and  C7_11
REMARK                            x       y       z     vdW  Elec       q    Type
REMARK                         _______ _______ _______ _____ _____    ______ ____
ROOT
ATOM      1  C6  UNL     1      21.093   4.021  24.494  0.00  0.00    +0.248 C 
ATOM      2  O3  UNL     1      21.188   5.259  24.715  0.00  0.00    -0.270 OA
ATOM      3  N1  UNL     1      20.743   3.552  23.178  0.00  0.00    -0.281 N 
ATOM      4  H4  UNL     1      20.795   2.531  22.969  0.00  0.00    +0.155 HD
ENDROOT
BRANCH   3   5
ATOM      5  C7  UNL     1      20.385   4.420  22.089  0.00  0.00    +0.035 A 
ATOM      6  C8  UNL     1      21.397   5.014  21.326  0.00  0.00    +0.039 A 
ATOM      7  C9  UNL     1      21.093   5.847  20.245  0.00  0.00    +0.027 A 
ATOM      8 BR1  UNL     1      22.563   6.623  19.283  0.00  0.00    -0.050 Br
ATOM      9  C10 UNL     1      19.744   6.086  19.899  0.00  0.00    -0.004 A 
ATOM     10  C11 UNL     1      19.389   6.918  18.819  0.00  0.00    +0.009 A 
ATOM     11  C12 UNL     1      18.046   7.125  18.496  0.00  0.00    +0.001 A 
ATOM     12  C13 UNL     1      17.039   6.507  19.240  0.00  0.00    +0.001 A 
ATOM     13  C14 UNL     1      17.370   5.679  20.314  0.00  0.00    +0.008 A 
ATOM     14  C15 UNL     1      18.716   5.464  20.654  0.00  0.00    -0.015 A 
ATOM     15  C16 UNL     1      19.043   4.632  21.734  0.00  0.00    +0.032 A 
ENDBRANCH   3   5
BRANCH   1  19
ATOM     16  C2  UNL     1      21.808   1.250  27.717  0.00  0.00    +0.059 A 
ATOM     17  C3  UNL     1      20.782   1.022  26.785  0.00  0.00    +0.016 A 
ATOM     18  C4  UNL     1      20.556   1.927  25.744  0.00  0.00    +0.014 A 
ATOM     19  C5  UNL     1      21.355   3.074  25.604  0.00  0.00    +0.037 A 
ATOM     20  C17 UNL     1      22.373   3.309  26.545  0.00  0.00    +0.014 A 
ATOM     21  C18 UNL     1      22.598   2.405  27.588  0.00  0.00    +0.016 A 
BRANCH  16  23
ATOM     22  O1  UNL     1      21.682   0.567  29.994  0.00  0.00    -0.245 OA
ATOM     23  C1  UNL     1      22.044   0.292  28.818  0.00  0.00    +0.337 C 
BRANCH  23  24
ATOM     24  O2  UNL     1      22.670  -0.927  28.566  0.00  0.00    -0.477 OA
ATOM     25  H1  UNL     1      23.674  -1.027  28.666  0.00  0.00    +0.295 HD
ENDBRANCH  23  24
ENDBRANCH  16  23
ENDBRANCH   1  19
TORSDOF 4
ENDMDL
MODEL 6
REMARK VINA RESULT:    -6.288     11.943     14.746
REMARK INTER + INTRA:          -7.885
REMARK INTER:                  -7.512
REMARK INTRA:                  -0.372
REMARK UNBOUND:                -0.310
REMARK  Name = /home/qwerty/github/datacon2025hack/step_04_hit_selection/docking/ligands/lig_637.pdb
REMARK  4 active torsions:
REMARK  status: ('A' for Active; 'I' for Inactive)
REMARK    1  A    between atoms: C1_2  and  O2_3
REMARK    2  A    between atoms: C1_2  and  C2_4
REMARK    3  A    between atoms: C5_7  and  C6_8
REMARK    4  A    between atoms: N1_10  and  C7_11
REMARK                            x       y       z     vdW  Elec       q    Type
REMARK                         _______ _______ _______ _____ _____    ______ ____
ROOT
ATOM      1  C6  UNL     1      18.390   0.431  24.968  0.00  0.00    +0.248 C 
ATOM      2  O3  UNL     1      18.868  -0.708  25.221  0.00  0.00    -0.270 OA
ATOM      3  N1  UNL     1      18.590   1.517  25.893  0.00  0.00    -0.281 N 
ATOM      4  H4  UNL     1      18.307   2.482  25.617  0.00  0.00    +0.155 HD
ENDROOT
BRANCH   3   5
ATOM      5  C7  UNL     1      19.230   1.368  27.172  0.00  0.00    +0.035 A 
ATOM      6  C8  UNL     1      20.627   1.407  27.246  0.00  0.00    +0.039 A 
ATOM      7  C9  UNL     1      21.289   1.287  28.472  0.00  0.00    +0.027 A 
ATOM      8 BR1  UNL     1      23.209   1.334  28.451  0.00  0.00    -0.050 Br
ATOM      9  C10 UNL     1      20.543   1.143  29.663  0.00  0.00    -0.004 A 
ATOM     10  C11 UNL     1      21.166   1.021  30.921  0.00  0.00    +0.009 A 
ATOM     11  C12 UNL     1      20.398   0.890  32.081  0.00  0.00    +0.001 A 
ATOM     12  C13 UNL     1      19.005   0.883  32.007  0.00  0.00    +0.001 A 
ATOM     13  C14 UNL     1      18.368   1.003  30.770  0.00  0.00    +0.008 A 
ATOM     14  C15 UNL     1      19.125   1.131  29.594  0.00  0.00    -0.015 A 
ATOM     15  C16 UNL     1      18.482   1.251  28.354  0.00  0.00    +0.032 A 
ENDBRANCH   3   5
BRANCH   1  19
ATOM     16  C2  UNL     1      16.204   0.949  21.289  0.00  0.00    +0.059 A 
ATOM     17  C3  UNL     1      16.578  -0.330  21.730  0.00  0.00    +0.016 A 
ATOM     18  C4  UNL     1      17.288  -0.489  22.923  0.00  0.00    +0.014 A 
ATOM     19  C5  UNL     1      17.632   0.624  23.707  0.00  0.00    +0.037 A 
ATOM     20  C17 UNL     1      17.270   1.907  23.258  0.00  0.00    +0.014 A 
ATOM     21  C18 UNL     1      16.561   2.066  22.063  0.00  0.00    +0.016 A 
BRANCH  16  23
ATOM     22  O1  UNL     1      14.928   2.224  19.734  0.00  0.00    -0.245 OA
ATOM     23  C1  UNL     1      15.453   1.115  20.026  0.00  0.00    +0.337 C 
BRANCH  23  24
ATOM     24  O2  UNL     1      15.318   0.044  19.144  0.00  0.00    -0.477 OA
ATOM     25  H1  UNL     1      15.874  -0.006  18.298  0.00  0.00    +0.295 HD
ENDBRANCH  23  24
ENDBRANCH  16  23
ENDBRANCH   1  19
TORSDOF 4
ENDMDL
MODEL 7
REMARK VINA RESULT:    -6.263     17.781     18.542
REMARK INTER + INTRA:          -7.855
REMARK INTER:                  -7.546
REMARK INTRA:                  -0.308
REMARK UNBOUND:                -0.310
REMARK  Name = /home/qwerty/github/datacon2025hack/step_04_hit_selection/docking/ligands/lig_637.pdb
REMARK  4 active torsions:
REMARK  status: ('A' for Active; 'I' for Inactive)
REMARK    1  A    between atoms: C1_2  and  O2_3
REMARK    2  A    between atoms: C1_2  and  C2_4
REMARK    3  A    between atoms: C5_7  and  C6_8
REMARK    4  A    between atoms: N1_10  and  C7_11
REMARK                            x       y       z     vdW  Elec       q    Type
REMARK                         _______ _______ _______ _____ _____    ______ ____
ROOT
ATOM      1  C6  UNL     1       8.281   0.224  27.261  0.00  0.00    +0.248 C 
ATOM      2  O3  UNL     1       7.406  -0.154  26.436  0.00  0.00    -0.270 OA
ATOM      3  N1  UNL     1       9.204   1.270  26.900  0.00  0.00    -0.281 N 
ATOM      4  H4  UNL     1       9.836   1.667  27.629  0.00  0.00    +0.155 HD
ENDROOT
BRANCH   3   5
ATOM      5  C7  UNL     1       9.267   1.864  25.592  0.00  0.00    +0.035 A 
ATOM      6  C8  UNL     1      10.308   1.507  24.728  0.00  0.00    +0.039 A 
ATOM      7  C9  UNL     1      10.395   2.045  23.440  0.00  0.00    +0.027 A 
ATOM      8 BR1  UNL     1      11.879   1.499  22.350  0.00  0.00    -0.050 Br
ATOM      9  C10 UNL     1       9.409   2.951  22.989  0.00  0.00    -0.004 A 
ATOM     10  C11 UNL     1       9.454   3.517  21.700  0.00  0.00    +0.009 A 
ATOM     11  C12 UNL     1       8.457   4.402  21.280  0.00  0.00    +0.001 A 
ATOM     12  C13 UNL     1       7.403   4.731  22.133  0.00  0.00    +0.001 A 
ATOM     13  C14 UNL     1       7.340   4.181  23.415  0.00  0.00    +0.008 A 
ATOM     14  C15 UNL     1       8.336   3.294  23.853  0.00  0.00    -0.015 A 
ATOM     15  C16 UNL     1       8.269   2.743  25.141  0.00  0.00    +0.032 A 
ENDBRANCH   3   5
BRANCH   1  19
ATOM     16  C2  UNL     1       8.392  -1.619  31.156  0.00  0.00    +0.059 A 
ATOM     17  C3  UNL     1       7.248  -0.935  30.716  0.00  0.00    +0.016 A 
ATOM     18  C4  UNL     1       7.221  -0.338  29.452  0.00  0.00    +0.014 A 
ATOM     19  C5  UNL     1       8.332  -0.420  28.596  0.00  0.00    +0.037 A 
ATOM     20  C17 UNL     1       9.483  -1.094  29.043  0.00  0.00    +0.014 A 
ATOM     21  C18 UNL     1       9.510  -1.689  30.308  0.00  0.00    +0.016 A 
BRANCH  16  23
ATOM     22  O1  UNL     1       9.484  -2.272  33.169  0.00  0.00    -0.245 OA
ATOM     23  C1  UNL     1       8.418  -2.248  32.494  0.00  0.00    +0.337 C 
BRANCH  23  24
ATOM     24  O2  UNL     1       7.264  -2.821  33.023  0.00  0.00    -0.477 OA
ATOM     25  H1  UNL     1       7.011  -2.679  33.994  0.00  0.00    +0.295 HD
ENDBRANCH  23  24
ENDBRANCH  16  23
ENDBRANCH   1  19
TORSDOF 4
ENDMDL
MODEL 8
REMARK VINA RESULT:    -6.248     11.568     13.103
REMARK INTER + INTRA:          -7.837
REMARK INTER:                  -7.545
REMARK INTRA:                  -0.291
REMARK UNBOUND:                -0.310
REMARK  Name = /home/qwerty/github/datacon2025hack/step_04_hit_selection/docking/ligands/lig_637.pdb
REMARK  4 active torsions:
REMARK  status: ('A' for Active; 'I' for Inactive)
REMARK    1  A    between atoms: C1_2  and  O2_3
REMARK    2  A    between atoms: C1_2  and  C2_4
REMARK    3  A    between atoms: C5_7  and  C6_8
REMARK    4  A    between atoms: N1_10  and  C7_11
REMARK                            x       y       z     vdW  Elec       q    Type
REMARK                         _______ _______ _______ _____ _____    ______ ____
ROOT
ATOM      1  C6  UNL     1      19.039   1.352  26.701  0.00  0.00    +0.248 C 
ATOM      2  O3  UNL     1      19.790   1.991  25.916  0.00  0.00    -0.270 OA
ATOM      3  N1  UNL     1      17.851   0.712  26.198  0.00  0.00    -0.281 N 
ATOM      4  H4  UNL     1      17.307   0.079  26.824  0.00  0.00    +0.155 HD
ENDROOT
BRANCH   3   5
ATOM      5  C7  UNL     1      17.391   0.836  24.841  0.00  0.00    +0.035 A 
ATOM      6  C8  UNL     1      16.916   2.073  24.389  0.00  0.00    +0.039 A 
ATOM      7  C9  UNL     1      16.479   2.241  23.071  0.00  0.00    +0.027 A 
ATOM      8 BR1  UNL     1      15.829   3.977  22.569  0.00  0.00    -0.050 Br
ATOM      9  C10 UNL     1      16.532   1.156  22.169  0.00  0.00    -0.004 A 
ATOM     10  C11 UNL     1      16.104   1.279  20.832  0.00  0.00    +0.009 A 
ATOM     11  C12 UNL     1      16.179   0.188  19.962  0.00  0.00    +0.001 A 
ATOM     12  C13 UNL     1      16.682  -1.035  20.406  0.00  0.00    +0.001 A 
ATOM     13  C14 UNL     1      17.111  -1.178  21.727  0.00  0.00    +0.008 A 
ATOM     14  C15 UNL     1      17.038  -0.092  22.616  0.00  0.00    -0.015 A 
ATOM     15  C16 UNL     1      17.470  -0.240  23.942  0.00  0.00    +0.032 A 
ENDBRANCH   3   5
BRANCH   1  19
ATOM     16  C2  UNL     1      20.151   1.094  30.858  0.00  0.00    +0.059 A 
ATOM     17  C3  UNL     1      21.122   1.015  29.846  0.00  0.00    +0.016 A 
ATOM     18  C4  UNL     1      20.752   1.098  28.501  0.00  0.00    +0.014 A 
ATOM     19  C5  UNL     1      19.407   1.271  28.136  0.00  0.00    +0.037 A 
ATOM     20  C17 UNL     1      18.433   1.335  29.148  0.00  0.00    +0.014 A 
ATOM     21  C18 UNL     1      18.803   1.250  30.495  0.00  0.00    +0.016 A 
BRANCH  16  23
ATOM     22  O1  UNL     1      21.051   1.999  32.868  0.00  0.00    -0.245 OA
ATOM     23  C1  UNL     1      20.545   1.004  32.281  0.00  0.00    +0.337 C 
BRANCH  23  24
ATOM     24  O2  UNL     1      20.359  -0.182  32.987  0.00  0.00    -0.477 OA
ATOM     25  H1  UNL     1      20.291  -1.070  32.504  0.00  0.00    +0.295 HD
ENDBRANCH  23  24
ENDBRANCH  16  23
ENDBRANCH   1  19
TORSDOF 4
ENDMDL
