MODEL 1
REMARK VINA RESULT:    -6.633      0.000      0.000
REMARK INTER + INTRA:          -9.031
REMARK INTER:                  -8.378
REMARK INTRA:                  -0.654
REMARK UNBOUND:                -0.654
REMARK  Name = /home/qwerty/github/datacon2025hack/step_04_hit_selection/docking/ligands/lig_530.pdb
REMARK  5 active torsions:
REMARK  status: ('A' for Active; 'I' for Inactive)
REMARK    1  A    between atoms: N1_3  and  C2_4
REMARK    2  A    between atoms: C5_7  and  O2_8
REMARK    3  A    between atoms: O2_8  and  C6_9
REMARK    4  A    between atoms: N2_15  and  C9_16
REMARK    5  A    between atoms: C14_23  and  O3_24
REMARK                            x       y       z     vdW  Elec       q    Type
REMARK                         _______ _______ _______ _____ _____    ______ ____
ROOT
ATOM      1  O1  UNL     1      16.883  10.797  35.977  0.00  0.00    -0.252 OA
ATOM      2  C1  UNL     1      17.032  11.185  37.168  0.00  0.00    +0.308 C 
ATOM      3  N1  UNL     1      16.148  12.170  37.725  0.00  0.00    -0.269 N 
ATOM      4  N2  UNL     1      18.134  10.700  37.949  0.00  0.00    -0.266 N 
ATOM      5  H1  UNL     1      16.469  12.681  38.579  0.00  0.00    +0.156 HD
ATOM      6  H6  UNL     1      18.412  11.245  38.796  0.00  0.00    +0.156 HD
ENDROOT
BRANCH   4   7
ATOM      7  C9  UNL     1      18.985   9.623  37.527  0.00  0.00    +0.079 A 
ATOM      8  C10 UNL     1      18.655   8.309  37.893  0.00  0.00    +0.068 A 
ATOM      9  C11 UNL     1      19.459   7.238  37.493  0.00  0.00    +0.160 A 
ATOM     10  F3  UNL     1      19.138   5.974  37.866  0.00  0.00    -0.202 F 
ATOM     11  C12 UNL     1      20.593   7.470  36.710  0.00  0.00    +0.162 A 
ATOM     12  F4  UNL     1      21.375   6.432  36.322  0.00  0.00    -0.202 F 
ATOM     13  C13 UNL     1      20.917   8.771  36.316  0.00  0.00    +0.088 A 
ATOM     14  C14 UNL     1      20.110   9.851  36.708  0.00  0.00    +0.141 A 
BRANCH  14  15
ATOM     15  O3  UNL     1      20.411  11.138  36.265  0.00  0.00    -0.505 OA
ATOM     16  H9  UNL     1      20.710  11.864  36.905  0.00  0.00    +0.292 HD
ENDBRANCH  14  15
ENDBRANCH   4   7
BRANCH   3  17
ATOM     17  C2  UNL     1      14.902  12.566  37.128  0.00  0.00    +0.036 A 
ATOM     18  C3  UNL     1      14.741  13.831  36.536  0.00  0.00    +0.027 A 
ATOM     19  C4  UNL     1      13.528  14.184  35.941  0.00  0.00    +0.049 A 
ATOM     20  C5  UNL     1      12.455  13.273  35.913  0.00  0.00    +0.145 A 
ATOM     21  C7  UNL     1      12.624  12.002  36.483  0.00  0.00    +0.084 A 
ATOM     22 CL1  UNL     1      11.314  10.832  36.459  0.00  0.00    -0.080 Cl
ATOM     23  C8  UNL     1      13.841  11.651  37.078  0.00  0.00    +0.047 A 
BRANCH  20  24
ATOM     24  O2  UNL     1      11.218  13.590  35.327  0.00  0.00    -0.433 OA
BRANCH  24  25
ATOM     25  C6  UNL     1      10.190  14.348  35.957  0.00  0.00    +0.541 C 
ATOM     26  F1  UNL     1       9.257  14.719  35.009  0.00  0.00    -0.166 F 
ATOM     27  F2  UNL     1       9.566  13.583  36.927  0.00  0.00    -0.166 F 
ENDBRANCH  24  25
ENDBRANCH  20  24
ENDBRANCH   3  17
TORSDOF 5
ENDMDL
MODEL 2
REMARK VINA RESULT:    -6.547      1.953      2.639
REMARK INTER + INTRA:          -8.924
REMARK INTER:                  -8.437
REMARK INTRA:                  -0.487
REMARK UNBOUND:                -0.654
REMARK  Name = /home/qwerty/github/datacon2025hack/step_04_hit_selection/docking/ligands/lig_530.pdb
REMARK  5 active torsions:
REMARK  status: ('A' for Active; 'I' for Inactive)
REMARK    1  A    between atoms: N1_3  and  C2_4
REMARK    2  A    between atoms: C5_7  and  O2_8
REMARK    3  A    between atoms: O2_8  and  C6_9
REMARK    4  A    between atoms: N2_15  and  C9_16
REMARK    5  A    between atoms: C14_23  and  O3_24
REMARK                            x       y       z     vdW  Elec       q    Type
REMARK                         _______ _______ _______ _____ _____    ______ ____
ROOT
ATOM      1  O1  UNL     1      17.710  10.613  35.688  0.00  0.00    -0.252 OA
ATOM      2  C1  UNL     1      18.036  10.993  36.847  0.00  0.00    +0.308 C 
ATOM      3  N1  UNL     1      17.249  11.978  37.533  0.00  0.00    -0.269 N 
ATOM      4  N2  UNL     1      19.239  10.498  37.454  0.00  0.00    -0.266 N 
ATOM      5  H1  UNL     1      17.696  12.482  38.334  0.00  0.00    +0.156 HD
ATOM      6  H6  UNL     1      19.642  11.036  38.253  0.00  0.00    +0.156 HD
ENDROOT
BRANCH   4   7
ATOM      7  C9  UNL     1      20.012   9.419  36.905  0.00  0.00    +0.079 A 
ATOM      8  C10 UNL     1      20.956   9.697  35.905  0.00  0.00    +0.068 A 
ATOM      9  C11 UNL     1      21.730   8.670  35.356  0.00  0.00    +0.160 A 
ATOM     10  F3  UNL     1      22.629   8.949  34.379  0.00  0.00    -0.202 F 
ATOM     11  C12 UNL     1      21.577   7.359  35.812  0.00  0.00    +0.162 A 
ATOM     12  F4  UNL     1      22.325   6.361  35.279  0.00  0.00    -0.202 F 
ATOM     13  C13 UNL     1      20.658   7.074  36.826  0.00  0.00    +0.088 A 
ATOM     14  C14 UNL     1      19.884   8.101  37.388  0.00  0.00    +0.141 A 
BRANCH  14  15
ATOM     15  O3  UNL     1      19.010   7.816  38.437  0.00  0.00    -0.505 OA
ATOM     16  H9  UNL     1      19.158   8.187  39.368  0.00  0.00    +0.292 HD
ENDBRANCH  14  15
ENDBRANCH   4   7
BRANCH   3  17
ATOM     17  C2  UNL     1      15.931  12.383  37.129  0.00  0.00    +0.036 A 
ATOM     18  C3  UNL     1      14.853  11.481  37.131  0.00  0.00    +0.027 A 
ATOM     19  C4  UNL     1      13.576  11.905  36.756  0.00  0.00    +0.049 A 
ATOM     20  C5  UNL     1      13.348  13.243  36.385  0.00  0.00    +0.145 A 
ATOM     21  C7  UNL     1      14.420  14.148  36.405  0.00  0.00    +0.084 A 
ATOM     22 CL1  UNL     1      14.175  15.830  35.960  0.00  0.00    -0.080 Cl
ATOM     23  C8  UNL     1      15.698  13.721  36.781  0.00  0.00    +0.047 A 
BRANCH  20  24
ATOM     24  O2  UNL     1      12.080  13.708  35.999  0.00  0.00    -0.433 OA
BRANCH  24  25
ATOM     25  C6  UNL     1      10.879  12.944  36.058  0.00  0.00    +0.541 C 
ATOM     26  F1  UNL     1       9.807  13.799  36.216  0.00  0.00    -0.166 F 
ATOM     27  F2  UNL     1      10.716  12.229  34.884  0.00  0.00    -0.166 F 
ENDBRANCH  24  25
ENDBRANCH  20  24
ENDBRANCH   3  17
TORSDOF 5
ENDMDL
MODEL 3
REMARK VINA RESULT:    -6.513      1.581      2.203
REMARK INTER + INTRA:          -8.881
REMARK INTER:                  -8.259
REMARK INTRA:                  -0.622
REMARK UNBOUND:                -0.654
REMARK  Name = /home/qwerty/github/datacon2025hack/step_04_hit_selection/docking/ligands/lig_530.pdb
REMARK  5 active torsions:
REMARK  status: ('A' for Active; 'I' for Inactive)
REMARK    1  A    between atoms: N1_3  and  C2_4
REMARK    2  A    between atoms: C5_7  and  O2_8
REMARK    3  A    between atoms: O2_8  and  C6_9
REMARK    4  A    between atoms: N2_15  and  C9_16
REMARK    5  A    between atoms: C14_23  and  O3_24
REMARK                            x       y       z     vdW  Elec       q    Type
REMARK                         _______ _______ _______ _____ _____    ______ ____
ROOT
ATOM      1  O1  UNL     1      17.554  10.966  35.563  0.00  0.00    -0.252 OA
ATOM      2  C1  UNL     1      18.024  11.549  36.578  0.00  0.00    +0.308 C 
ATOM      3  N1  UNL     1      17.347  12.684  37.140  0.00  0.00    -0.269 N 
ATOM      4  N2  UNL     1      19.279  11.127  37.132  0.00  0.00    -0.266 N 
ATOM      5  H1  UNL     1      17.897  13.313  37.768  0.00  0.00    +0.156 HD
ATOM      6  H6  UNL     1      19.787  11.792  37.758  0.00  0.00    +0.156 HD
ENDROOT
BRANCH   4   7
ATOM      7  C9  UNL     1      19.957   9.928  36.725  0.00  0.00    +0.079 A 
ATOM      8  C10 UNL     1      20.952  10.008  35.740  0.00  0.00    +0.068 A 
ATOM      9  C11 UNL     1      21.636   8.861  35.327  0.00  0.00    +0.160 A 
ATOM     10  F3  UNL     1      22.585   8.950  34.362  0.00  0.00    -0.202 F 
ATOM     11  C12 UNL     1      21.340   7.625  35.906  0.00  0.00    +0.162 A 
ATOM     12  F4  UNL     1      22.000   6.510  35.505  0.00  0.00    -0.202 F 
ATOM     13  C13 UNL     1      20.369   7.536  36.908  0.00  0.00    +0.088 A 
ATOM     14  C14 UNL     1      19.684   8.685  37.333  0.00  0.00    +0.141 A 
BRANCH  14  15
ATOM     15  O3  UNL     1      18.757   8.596  38.371  0.00  0.00    -0.505 OA
ATOM     16  H9  UNL     1      17.778   8.815  38.229  0.00  0.00    +0.292 HD
ENDBRANCH  14  15
ENDBRANCH   4   7
BRANCH   3  17
ATOM     17  C2  UNL     1      16.000  13.062  36.814  0.00  0.00    +0.036 A 
ATOM     18  C3  UNL     1      15.720  14.246  36.108  0.00  0.00    +0.027 A 
ATOM     19  C4  UNL     1      14.404  14.581  35.782  0.00  0.00    +0.049 A 
ATOM     20  C5  UNL     1      13.341  13.731  36.144  0.00  0.00    +0.145 A 
ATOM     21  C7  UNL     1      13.623  12.539  36.828  0.00  0.00    +0.084 A 
ATOM     22 CL1  UNL     1      12.326  11.446  37.286  0.00  0.00    -0.080 Cl
ATOM     23  C8  UNL     1      14.943  12.206  37.152  0.00  0.00    +0.047 A 
BRANCH  20  24
ATOM     24  O2  UNL     1      12.004  14.033  35.838  0.00  0.00    -0.433 OA
BRANCH  24  25
ATOM     25  C6  UNL     1      11.372  13.761  34.591  0.00  0.00    +0.541 C 
ATOM     26  F1  UNL     1      11.046  12.420  34.533  0.00  0.00    -0.166 F 
ATOM     27  F2  UNL     1      10.215  14.510  34.474  0.00  0.00    -0.166 F 
ENDBRANCH  24  25
ENDBRANCH  20  24
ENDBRANCH   3  17
TORSDOF 5
ENDMDL
MODEL 4
REMARK VINA RESULT:    -6.512      3.912      9.552
REMARK INTER + INTRA:          -8.879
REMARK INTER:                  -8.305
REMARK INTRA:                  -0.574
REMARK UNBOUND:                -0.654
REMARK  Name = /home/qwerty/github/datacon2025hack/step_04_hit_selection/docking/ligands/lig_530.pdb
REMARK  5 active torsions:
REMARK  status: ('A' for Active; 'I' for Inactive)
REMARK    1  A    between atoms: N1_3  and  C2_4
REMARK    2  A    between atoms: C5_7  and  O2_8
REMARK    3  A    between atoms: O2_8  and  C6_9
REMARK    4  A    between atoms: N2_15  and  C9_16
REMARK    5  A    between atoms: C14_23  and  O3_24
REMARK                            x       y       z     vdW  Elec       q    Type
REMARK                         _______ _______ _______ _____ _____    ______ ____
ROOT
ATOM      1  O1  UNL     1      17.865  10.736  35.359  0.00  0.00    -0.252 OA
ATOM      2  C1  UNL     1      18.547  11.497  36.099  0.00  0.00    +0.308 C 
ATOM      3  N1  UNL     1      19.949  11.254  36.290  0.00  0.00    -0.269 N 
ATOM      4  N2  UNL     1      17.910  12.565  36.815  0.00  0.00    -0.266 N 
ATOM      5  H1  UNL     1      20.409  11.697  37.119  0.00  0.00    +0.156 HD
ATOM      6  H6  UNL     1      18.413  12.977  37.632  0.00  0.00    +0.156 HD
ENDROOT
BRANCH   4   7
ATOM      7  C9  UNL     1      16.550  12.966  36.586  0.00  0.00    +0.079 A 
ATOM      8  C10 UNL     1      15.512  12.224  37.171  0.00  0.00    +0.068 A 
ATOM      9  C11 UNL     1      14.178  12.592  36.973  0.00  0.00    +0.160 A 
ATOM     10  F3  UNL     1      13.184  11.858  37.532  0.00  0.00    -0.202 F 
ATOM     11  C12 UNL     1      13.870  13.714  36.200  0.00  0.00    +0.162 A 
ATOM     12  F4  UNL     1      12.576  14.072  36.005  0.00  0.00    -0.202 F 
ATOM     13  C13 UNL     1      14.896  14.477  35.634  0.00  0.00    +0.088 A 
ATOM     14  C14 UNL     1      16.238  14.118  35.835  0.00  0.00    +0.141 A 
BRANCH  14  15
ATOM     15  O3  UNL     1      17.255  14.916  35.312  0.00  0.00    -0.505 OA
ATOM     16  H9  UNL     1      18.115  15.081  35.821  0.00  0.00    +0.292 HD
ENDBRANCH  14  15
ENDBRANCH   4   7
BRANCH   3  17
ATOM     17  C2  UNL     1      20.732  10.364  35.477  0.00  0.00    +0.036 A 
ATOM     18  C3  UNL     1      20.884  10.575  34.096  0.00  0.00    +0.027 A 
ATOM     19  C4  UNL     1      21.670   9.710  33.331  0.00  0.00    +0.049 A 
ATOM     20  C5  UNL     1      22.331   8.623  33.934  0.00  0.00    +0.145 A 
ATOM     21  C7  UNL     1      22.196   8.427  35.318  0.00  0.00    +0.084 A 
ATOM     22 CL1  UNL     1      23.014   7.090  36.112  0.00  0.00    -0.080 Cl
ATOM     23  C8  UNL     1      21.409   9.296  36.081  0.00  0.00    +0.047 A 
BRANCH  20  24
ATOM     24  O2  UNL     1      23.127   7.729  33.200  0.00  0.00    -0.433 OA
BRANCH  24  25
ATOM     25  C6  UNL     1      24.512   7.909  32.925  0.00  0.00    +0.541 C 
ATOM     26  F1  UNL     1      24.834   9.243  33.085  0.00  0.00    -0.166 F 
ATOM     27  F2  UNL     1      25.271   7.156  33.803  0.00  0.00    -0.166 F 
ENDBRANCH  24  25
ENDBRANCH  20  24
ENDBRANCH   3  17
TORSDOF 5
ENDMDL
MODEL 5
REMARK VINA RESULT:    -6.498     16.883     17.360
REMARK INTER + INTRA:          -8.861
REMARK INTER:                  -8.187
REMARK INTRA:                  -0.674
REMARK UNBOUND:                -0.654
REMARK  Name = /home/qwerty/github/datacon2025hack/step_04_hit_selection/docking/ligands/lig_530.pdb
REMARK  5 active torsions:
REMARK  status: ('A' for Active; 'I' for Inactive)
REMARK    1  A    between atoms: N1_3  and  C2_4
REMARK    2  A    between atoms: C5_7  and  O2_8
REMARK    3  A    between atoms: O2_8  and  C6_9
REMARK    4  A    between atoms: N2_15  and  C9_16
REMARK    5  A    between atoms: C14_23  and  O3_24
REMARK                            x       y       z     vdW  Elec       q    Type
REMARK                         _______ _______ _______ _____ _____    ______ ____
ROOT
ATOM      1  O1  UNL     1      11.775   4.183  21.975  0.00  0.00    -0.252 OA
ATOM      2  C1  UNL     1      11.324   3.693  20.903  0.00  0.00    +0.308 C 
ATOM      3  N1  UNL     1      10.166   4.265  20.276  0.00  0.00    -0.269 N 
ATOM      4  N2  UNL     1      11.921   2.513  20.345  0.00  0.00    -0.266 N 
ATOM      5  H1  UNL     1       9.649   3.675  19.584  0.00  0.00    +0.156 HD
ATOM      6  H6  UNL     1      11.364   1.962  19.655  0.00  0.00    +0.156 HD
ENDROOT
BRANCH   4   7
ATOM      7  C9  UNL     1      13.154   1.952  20.823  0.00  0.00    +0.079 A 
ATOM      8  C10 UNL     1      13.111   0.916  21.768  0.00  0.00    +0.068 A 
ATOM      9  C11 UNL     1      14.293   0.344  22.248  0.00  0.00    +0.160 A 
ATOM     10  F3  UNL     1      14.238  -0.646  23.173  0.00  0.00    -0.202 F 
ATOM     11  C12 UNL     1      15.529   0.794  21.777  0.00  0.00    +0.162 A 
ATOM     12  F4  UNL     1      16.677   0.242  22.242  0.00  0.00    -0.202 F 
ATOM     13  C13 UNL     1      15.583   1.808  20.815  0.00  0.00    +0.088 A 
ATOM     14  C14 UNL     1      14.401   2.381  20.323  0.00  0.00    +0.141 A 
BRANCH  14  15
ATOM     15  O3  UNL     1      14.464   3.352  19.325  0.00  0.00    -0.505 OA
ATOM     16  H9  UNL     1      14.079   4.280  19.461  0.00  0.00    +0.292 HD
ENDBRANCH  14  15
ENDBRANCH   4   7
BRANCH   3  17
ATOM     17  C2  UNL     1       9.618   5.550  20.613  0.00  0.00    +0.036 A 
ATOM     18  C3  UNL     1       8.459   5.671  21.399  0.00  0.00    +0.027 A 
ATOM     19  C4  UNL     1       7.959   6.932  21.733  0.00  0.00    +0.049 A 
ATOM     20  C5  UNL     1       8.616   8.098  21.299  0.00  0.00    +0.145 A 
ATOM     21  C7  UNL     1       9.786   7.976  20.533  0.00  0.00    +0.084 A 
ATOM     22 CL1  UNL     1      10.643   9.408  19.981  0.00  0.00    -0.080 Cl
ATOM     23  C8  UNL     1      10.285   6.712  20.200  0.00  0.00    +0.047 A 
BRANCH  20  24
ATOM     24  O2  UNL     1       8.145   9.384  21.609  0.00  0.00    -0.433 OA
BRANCH  24  25
ATOM     25  C6  UNL     1       8.409  10.077  22.826  0.00  0.00    +0.541 C 
ATOM     26  F1  UNL     1       9.543  10.848  22.668  0.00  0.00    -0.166 F 
ATOM     27  F2  UNL     1       7.344  10.902  23.140  0.00  0.00    -0.166 F 
ENDBRANCH  24  25
ENDBRANCH  20  24
ENDBRANCH   3  17
TORSDOF 5
ENDMDL
MODEL 6
REMARK VINA RESULT:    -6.391      2.792      9.210
REMARK INTER + INTRA:          -8.726
REMARK INTER:                  -8.191
REMARK INTRA:                  -0.535
REMARK UNBOUND:                -0.654
REMARK  Name = /home/qwerty/github/datacon2025hack/step_04_hit_selection/docking/ligands/lig_530.pdb
REMARK  5 active torsions:
REMARK  status: ('A' for Active; 'I' for Inactive)
REMARK    1  A    between atoms: N1_3  and  C2_4
REMARK    2  A    between atoms: C5_7  and  O2_8
REMARK    3  A    between atoms: O2_8  and  C6_9
REMARK    4  A    between atoms: N2_15  and  C9_16
REMARK    5  A    between atoms: C14_23  and  O3_24
REMARK                            x       y       z     vdW  Elec       q    Type
REMARK                         _______ _______ _______ _____ _____    ______ ____
ROOT
ATOM      1  O1  UNL     1      16.550  10.804  36.133  0.00  0.00    -0.252 OA
ATOM      2  C1  UNL     1      17.078  11.571  36.984  0.00  0.00    +0.308 C 
ATOM      3  N1  UNL     1      18.348  11.243  37.566  0.00  0.00    -0.269 N 
ATOM      4  N2  UNL     1      16.375  12.740  37.431  0.00  0.00    -0.266 N 
ATOM      5  H1  UNL     1      18.609  11.719  38.460  0.00  0.00    +0.156 HD
ATOM      6  H6  UNL     1      16.678  13.181  38.328  0.00  0.00    +0.156 HD
ENDROOT
BRANCH   4   7
ATOM      7  C9  UNL     1      15.170  13.219  36.814  0.00  0.00    +0.079 A 
ATOM      8  C10 UNL     1      13.980  12.496  36.988  0.00  0.00    +0.068 A 
ATOM      9  C11 UNL     1      12.788  12.939  36.407  0.00  0.00    +0.160 A 
ATOM     10  F3  UNL     1      11.649  12.222  36.571  0.00  0.00    -0.202 F 
ATOM     11  C12 UNL     1      12.772  14.118  35.658  0.00  0.00    +0.162 A 
ATOM     12  F4  UNL     1      11.618  14.549  35.092  0.00  0.00    -0.202 F 
ATOM     13  C13 UNL     1      13.945  14.861  35.500  0.00  0.00    +0.088 A 
ATOM     14  C14 UNL     1      15.144  14.427  36.087  0.00  0.00    +0.141 A 
BRANCH  14  15
ATOM     15  O3  UNL     1      16.296  15.204  35.969  0.00  0.00    -0.505 OA
ATOM     16  H9  UNL     1      17.189  14.888  36.328  0.00  0.00    +0.292 HD
ENDBRANCH  14  15
ENDBRANCH   4   7
BRANCH   3  17
ATOM     17  C2  UNL     1      19.233  10.233  37.054  0.00  0.00    +0.036 A 
ATOM     18  C3  UNL     1      20.241  10.543  36.124  0.00  0.00    +0.027 A 
ATOM     19  C4  UNL     1      21.104   9.548  35.659  0.00  0.00    +0.049 A 
ATOM     20  C5  UNL     1      20.987   8.226  36.125  0.00  0.00    +0.145 A 
ATOM     21  C7  UNL     1      19.995   7.922  37.071  0.00  0.00    +0.084 A 
ATOM     22 CL1  UNL     1      19.823   6.285  37.688  0.00  0.00    -0.080 Cl
ATOM     23  C8  UNL     1      19.132   8.920  37.535  0.00  0.00    +0.047 A 
BRANCH  20  24
ATOM     24  O2  UNL     1      21.832   7.196  35.681  0.00  0.00    -0.433 OA
BRANCH  24  25
ATOM     25  C6  UNL     1      23.148   6.954  36.170  0.00  0.00    +0.541 C 
ATOM     26  F1  UNL     1      23.084   6.694  37.525  0.00  0.00    -0.166 F 
ATOM     27  F2  UNL     1      23.697   5.859  35.527  0.00  0.00    -0.166 F 
ENDBRANCH  24  25
ENDBRANCH  20  24
ENDBRANCH   3  17
TORSDOF 5
ENDMDL
MODEL 7
REMARK VINA RESULT:    -6.211     17.087     19.551
REMARK INTER + INTRA:          -8.499
REMARK INTER:                  -7.803
REMARK INTRA:                  -0.696
REMARK UNBOUND:                -0.654
REMARK  Name = /home/qwerty/github/datacon2025hack/step_04_hit_selection/docking/ligands/lig_530.pdb
REMARK  5 active torsions:
REMARK  status: ('A' for Active; 'I' for Inactive)
REMARK    1  A    between atoms: N1_3  and  C2_4
REMARK    2  A    between atoms: C5_7  and  O2_8
REMARK    3  A    between atoms: O2_8  and  C6_9
REMARK    4  A    between atoms: N2_15  and  C9_16
REMARK    5  A    between atoms: C14_23  and  O3_24
REMARK                            x       y       z     vdW  Elec       q    Type
REMARK                         _______ _______ _______ _____ _____    ______ ____
ROOT
ATOM      1  O1  UNL     1      12.260   3.876  22.073  0.00  0.00    -0.252 OA
ATOM      2  C1  UNL     1      11.796   3.170  21.136  0.00  0.00    +0.308 C 
ATOM      3  N1  UNL     1      12.468   1.967  20.735  0.00  0.00    -0.269 N 
ATOM      4  N2  UNL     1      10.634   3.607  20.415  0.00  0.00    -0.266 N 
ATOM      5  H1  UNL     1      12.243   1.578  19.791  0.00  0.00    +0.156 HD
ATOM      6  H6  UNL     1      10.452   3.184  19.477  0.00  0.00    +0.156 HD
ENDROOT
BRANCH   4   7
ATOM      7  C9  UNL     1       9.823   4.718  20.826  0.00  0.00    +0.079 A 
ATOM      8  C10 UNL     1      10.094   5.991  20.302  0.00  0.00    +0.068 A 
ATOM      9  C11 UNL     1       9.318   7.092  20.676  0.00  0.00    +0.160 A 
ATOM     10  F3  UNL     1       9.600   8.320  20.174  0.00  0.00    -0.202 F 
ATOM     11  C12 UNL     1       8.255   6.928  21.567  0.00  0.00    +0.162 A 
ATOM     12  F4  UNL     1       7.502   7.994  21.933  0.00  0.00    -0.202 F 
ATOM     13  C13 UNL     1       7.958   5.659  22.075  0.00  0.00    +0.088 A 
ATOM     14  C14 UNL     1       8.727   4.548  21.697  0.00  0.00    +0.141 A 
BRANCH  14  15
ATOM     15  O3  UNL     1       8.390   3.279  22.166  0.00  0.00    -0.505 OA
ATOM     16  H9  UNL     1       7.887   2.616  21.589  0.00  0.00    +0.292 HD
ENDBRANCH  14  15
ENDBRANCH   4   7
BRANCH   3  17
ATOM     17  C2  UNL     1      13.498   1.323  21.504  0.00  0.00    +0.036 A 
ATOM     18  C3  UNL     1      14.851   1.410  21.135  0.00  0.00    +0.027 A 
ATOM     19  C4  UNL     1      15.837   0.795  21.912  0.00  0.00    +0.049 A 
ATOM     20  C5  UNL     1      15.489   0.094  23.081  0.00  0.00    +0.145 A 
ATOM     21  C7  UNL     1      14.140   0.027  23.461  0.00  0.00    +0.084 A 
ATOM     22 CL1  UNL     1      13.665  -0.829  24.920  0.00  0.00    -0.080 Cl
ATOM     23  C8  UNL     1      13.155   0.644  22.681  0.00  0.00    +0.047 A 
BRANCH  20  24
ATOM     24  O2  UNL     1      16.449  -0.541  23.887  0.00  0.00    -0.433 OA
BRANCH  24  25
ATOM     25  C6  UNL     1      17.007  -1.826  23.630  0.00  0.00    +0.541 C 
ATOM     26  F1  UNL     1      16.097  -2.796  24.002  0.00  0.00    -0.166 F 
ATOM     27  F2  UNL     1      17.281  -1.960  22.280  0.00  0.00    -0.166 F 
ENDBRANCH  24  25
ENDBRANCH  20  24
ENDBRANCH   3  17
TORSDOF 5
ENDMDL
MODEL 8
REMARK VINA RESULT:    -6.173      2.554      9.206
REMARK INTER + INTRA:          -8.450
REMARK INTER:                  -7.866
REMARK INTRA:                  -0.584
REMARK UNBOUND:                -0.654
REMARK  Name = /home/qwerty/github/datacon2025hack/step_04_hit_selection/docking/ligands/lig_530.pdb
REMARK  5 active torsions:
REMARK  status: ('A' for Active; 'I' for Inactive)
REMARK    1  A    between atoms: N1_3  and  C2_4
REMARK    2  A    between atoms: C5_7  and  O2_8
REMARK    3  A    between atoms: O2_8  and  C6_9
REMARK    4  A    between atoms: N2_15  and  C9_16
REMARK    5  A    between atoms: C14_23  and  O3_24
REMARK                            x       y       z     vdW  Elec       q    Type
REMARK                         _______ _______ _______ _____ _____    ______ ____
ROOT
ATOM      1  O1  UNL     1      15.190  11.090  36.023  0.00  0.00    -0.252 OA
ATOM      2  C1  UNL     1      15.374  11.874  36.994  0.00  0.00    +0.308 C 
ATOM      3  N1  UNL     1      16.491  11.684  37.876  0.00  0.00    -0.269 N 
ATOM      4  N2  UNL     1      14.424  12.915  37.268  0.00  0.00    -0.266 N 
ATOM      5  H1  UNL     1      16.450  12.142  38.815  0.00  0.00    +0.156 HD
ATOM      6  H6  UNL     1      14.427  13.343  38.221  0.00  0.00    +0.156 HD
ENDROOT
BRANCH   4   7
ATOM      7  C9  UNL     1      13.357  13.264  36.372  0.00  0.00    +0.079 A 
ATOM      8  C10 UNL     1      13.633  14.086  35.270  0.00  0.00    +0.068 A 
ATOM      9  C11 UNL     1      12.618  14.438  34.375  0.00  0.00    +0.160 A 
ATOM     10  F3  UNL     1      12.895  15.247  33.322  0.00  0.00    -0.202 F 
ATOM     11  C12 UNL     1      11.320  13.959  34.568  0.00  0.00    +0.162 A 
ATOM     12  F4  UNL     1      10.333  14.300  33.702  0.00  0.00    -0.202 F 
ATOM     13  C13 UNL     1      11.039  13.117  35.647  0.00  0.00    +0.088 A 
ATOM     14  C14 UNL     1      12.054  12.753  36.545  0.00  0.00    +0.141 A 
BRANCH  14  15
ATOM     15  O3  UNL     1      11.776  11.869  37.587  0.00  0.00    -0.505 OA
ATOM     16  H9  UNL     1      12.244  11.939  38.482  0.00  0.00    +0.292 HD
ENDBRANCH  14  15
ENDBRANCH   4   7
BRANCH   3  17
ATOM     17  C2  UNL     1      17.609  10.828  37.589  0.00  0.00    +0.036 A 
ATOM     18  C3  UNL     1      17.757   9.579  38.218  0.00  0.00    +0.027 A 
ATOM     19  C4  UNL     1      18.840   8.754  37.905  0.00  0.00    +0.049 A 
ATOM     20  C5  UNL     1      19.789   9.155  36.946  0.00  0.00    +0.145 A 
ATOM     21  C7  UNL     1      19.628  10.391  36.302  0.00  0.00    +0.084 A 
ATOM     22 CL1  UNL     1      20.784  10.923  35.092  0.00  0.00    -0.080 Cl
ATOM     23  C8  UNL     1      18.542  11.216  36.618  0.00  0.00    +0.047 A 
BRANCH  20  24
ATOM     24  O2  UNL     1      20.893   8.356  36.606  0.00  0.00    -0.433 OA
BRANCH  24  25
ATOM     25  C6  UNL     1      20.966   6.946  36.791  0.00  0.00    +0.541 C 
ATOM     26  F1  UNL     1      21.437   6.362  35.631  0.00  0.00    -0.166 F 
ATOM     27  F2  UNL     1      21.834   6.650  37.827  0.00  0.00    -0.166 F 
ENDBRANCH  24  25
ENDBRANCH  20  24
ENDBRANCH   3  17
TORSDOF 5
ENDMDL
MODEL 9
REMARK VINA RESULT:    -6.105      6.014      8.672
REMARK INTER + INTRA:          -8.364
REMARK INTER:                  -7.572
REMARK INTRA:                  -0.792
REMARK UNBOUND:                -0.654
REMARK  Name = /home/qwerty/github/datacon2025hack/step_04_hit_selection/docking/ligands/lig_530.pdb
REMARK  5 active torsions:
REMARK  status: ('A' for Active; 'I' for Inactive)
REMARK    1  A    between atoms: N1_3  and  C2_4
REMARK    2  A    between atoms: C5_7  and  O2_8
REMARK    3  A    between atoms: O2_8  and  C6_9
REMARK    4  A    between atoms: N2_15  and  C9_16
REMARK    5  A    between atoms: C14_23  and  O3_24
REMARK                            x       y       z     vdW  Elec       q    Type
REMARK                         _______ _______ _______ _____ _____    ______ ____
ROOT
ATOM      1  O1  UNL     1      20.370   5.437  33.669  0.00  0.00    -0.252 OA
ATOM      2  C1  UNL     1      21.430   5.158  34.294  0.00  0.00    +0.308 C 
ATOM      3  N1  UNL     1      21.885   6.005  35.360  0.00  0.00    -0.269 N 
ATOM      4  N2  UNL     1      22.227   4.034  33.893  0.00  0.00    -0.266 N 
ATOM      5  H1  UNL     1      22.888   5.926  35.647  0.00  0.00    +0.156 HD
ATOM      6  H6  UNL     1      23.221   4.000  34.210  0.00  0.00    +0.156 HD
ENDROOT
BRANCH   4   7
ATOM      7  C9  UNL     1      21.788   3.059  32.934  0.00  0.00    +0.079 A 
ATOM      8  C10 UNL     1      22.248   3.149  31.612  0.00  0.00    +0.068 A 
ATOM      9  C11 UNL     1      21.846   2.212  30.655  0.00  0.00    +0.160 A 
ATOM     10  F3  UNL     1      22.286   2.318  29.377  0.00  0.00    -0.202 F 
ATOM     11  C12 UNL     1      20.990   1.168  31.016  0.00  0.00    +0.162 A 
ATOM     12  F4  UNL     1      20.597   0.259  30.090  0.00  0.00    -0.202 F 
ATOM     13  C13 UNL     1      20.546   1.053  32.337  0.00  0.00    +0.088 A 
ATOM     14  C14 UNL     1      20.953   1.985  33.304  0.00  0.00    +0.141 A 
BRANCH  14  15
ATOM     15  O3  UNL     1      20.549   1.831  34.630  0.00  0.00    -0.505 OA
ATOM     16  H9  UNL     1      21.220   1.726  35.381  0.00  0.00    +0.292 HD
ENDBRANCH  14  15
ENDBRANCH   4   7
BRANCH   3  17
ATOM     17  C2  UNL     1      21.081   7.019  35.986  0.00  0.00    +0.036 A 
ATOM     18  C3  UNL     1      20.204   6.712  37.040  0.00  0.00    +0.027 A 
ATOM     19  C4  UNL     1      19.449   7.719  37.648  0.00  0.00    +0.049 A 
ATOM     20  C5  UNL     1      19.568   9.055  37.222  0.00  0.00    +0.145 A 
ATOM     21  C7  UNL     1      20.461   9.363  36.185  0.00  0.00    +0.084 A 
ATOM     22 CL1  UNL     1      20.647  11.021  35.632  0.00  0.00    -0.080 Cl
ATOM     23  C8  UNL     1      21.215   8.353  35.578  0.00  0.00    +0.047 A 
BRANCH  20  24
ATOM     24  O2  UNL     1      18.825  10.096  37.804  0.00  0.00    -0.433 OA
BRANCH  24  25
ATOM     25  C6  UNL     1      17.440  10.334  37.576  0.00  0.00    +0.541 C 
ATOM     26  F1  UNL     1      17.094   9.832  36.337  0.00  0.00    -0.166 F 
ATOM     27  F2  UNL     1      16.685   9.698  38.545  0.00  0.00    -0.166 F 
ENDBRANCH  24  25
ENDBRANCH  20  24
ENDBRANCH   3  17
TORSDOF 5
ENDMDL
