MODEL 1
REMARK VINA RESULT:    -6.075      0.000      0.000
REMARK INTER + INTRA:          -7.330
REMARK INTER:                  -7.495
REMARK INTRA:                   0.165
REMARK UNBOUND:                 0.165
REMARK  Name = /home/qwerty/github/datacon2025hack/step_04_hit_selection/docking/ligands/lig_170.pdb
REMARK  5 active torsions:
REMARK  status: ('A' for Active; 'I' for Inactive)
REMARK    1  A    between atoms: C1_1  and  O1_2
REMARK    2  A    between atoms: O1_2  and  C2_3
REMARK    3  A    between atoms: C2_3  and  C3_5
REMARK    4  A    between atoms: C7_9  and  N1_10
REMARK    5  A    between atoms: N3_18  and  C13_19
REMARK                            x       y       z     vdW  Elec       q    Type
REMARK                         _______ _______ _______ _____ _____    ______ ____
ROOT
ATOM      1  N1  UNL     1      11.476   7.267  20.155  0.00  0.00    -0.269 N 
ATOM      2  C8  UNL     1      12.546   6.831  21.007  0.00  0.00    +0.306 C 
ATOM      3  O3  UNL     1      13.082   7.623  21.827  0.00  0.00    -0.252 OA
ATOM      4  N2  UNL     1      13.039   5.497  20.898  0.00  0.00    -0.284 N 
ATOM      5  C9  UNL     1      12.740   4.285  20.099  0.00  0.00    +0.120 C 
ATOM      6  C10 UNL     1      13.793   3.459  20.741  0.00  0.00    +0.028 C 
ATOM      7  C11 UNL     1      14.091   4.674  21.540  0.00  0.00    +0.120 C 
ATOM      8  C12 UNL     1      14.851   2.746  19.932  0.00  0.00    +0.096 C 
ATOM      9  N3  UNL     1      14.517   1.456  20.572  0.00  0.00    -0.298 NA
ATOM     10  C18 UNL     1      13.480   2.129  21.386  0.00  0.00    +0.096 C 
ATOM     11  H7  UNL     1      11.254   6.679  19.320  0.00  0.00    +0.156 HD
ENDROOT
BRANCH   1  16
ATOM     12  C3  UNL     1       9.114   9.914  21.429  0.00  0.00    +0.061 A 
ATOM     13  C4  UNL     1       9.404  10.953  20.529  0.00  0.00    +0.015 A 
ATOM     14  C5  UNL     1      10.355  10.772  19.523  0.00  0.00    +0.003 A 
ATOM     15  C6  UNL     1      11.034   9.558  19.408  0.00  0.00    +0.023 A 
ATOM     16  C7  UNL     1      10.779   8.514  20.309  0.00  0.00    +0.036 A 
ATOM     17  C19 UNL     1       9.802   8.691  21.307  0.00  0.00    +0.038 A 
BRANCH  12  18
ATOM     18  C2  UNL     1       8.091  10.103  22.482  0.00  0.00    +0.339 C 
ATOM     19  O2  UNL     1       7.343  11.120  22.465  0.00  0.00    -0.245 OA
BRANCH  18  21
ATOM     20  C1  UNL     1       7.942   9.493  24.877  0.00  0.00    +0.280 C 
ATOM     21  O1  UNL     1       7.952   9.149  23.496  0.00  0.00    -0.464 OA
ENDBRANCH  18  21
ENDBRANCH  12  18
ENDBRANCH   1  16
BRANCH   9  22
ATOM     22  C13 UNL     1      15.646   0.855  21.331  0.00  0.00    +0.057 C 
ATOM     23  C14 UNL     1      15.300   0.162  22.672  0.00  0.00    +0.019 C 
ATOM     24  C15 UNL     1      15.812  -1.268  22.564  0.00  0.00    +0.002 C 
ATOM     25  C16 UNL     1      16.846  -1.256  21.453  0.00  0.00    +0.002 C 
ATOM     26  C17 UNL     1      16.377  -0.188  20.482  0.00  0.00    +0.019 C 
ENDBRANCH   9  22
TORSDOF 4
ENDMDL
MODEL 2
REMARK VINA RESULT:    -6.044     16.045     18.908
REMARK INTER + INTRA:          -7.292
REMARK INTER:                  -7.460
REMARK INTRA:                   0.169
REMARK UNBOUND:                 0.165
REMARK  Name = /home/qwerty/github/datacon2025hack/step_04_hit_selection/docking/ligands/lig_170.pdb
REMARK  5 active torsions:
REMARK  status: ('A' for Active; 'I' for Inactive)
REMARK    1  A    between atoms: C1_1  and  O1_2
REMARK    2  A    between atoms: O1_2  and  C2_3
REMARK    3  A    between atoms: C2_3  and  C3_5
REMARK    4  A    between atoms: C7_9  and  N1_10
REMARK    5  A    between atoms: N3_18  and  C13_19
REMARK                            x       y       z     vdW  Elec       q    Type
REMARK                         _______ _______ _______ _____ _____    ______ ____
ROOT
ATOM      1  N1  UNL     1      20.360   9.191  35.940  0.00  0.00    -0.269 N 
ATOM      2  C8  UNL     1      19.064   8.812  35.453  0.00  0.00    +0.306 C 
ATOM      3  O3  UNL     1      18.915   7.771  34.758  0.00  0.00    -0.252 OA
ATOM      4  N2  UNL     1      17.935   9.641  35.722  0.00  0.00    -0.284 N 
ATOM      5  C9  UNL     1      17.657  10.904  36.446  0.00  0.00    +0.120 C 
ATOM      6  C10 UNL     1      16.206  10.900  36.136  0.00  0.00    +0.028 C 
ATOM      7  C11 UNL     1      16.486   9.635  35.412  0.00  0.00    +0.120 C 
ATOM      8  C12 UNL     1      15.529  12.077  35.472  0.00  0.00    +0.096 C 
ATOM      9  N3  UNL     1      14.522  12.149  36.553  0.00  0.00    -0.298 NA
ATOM     10  C18 UNL     1      15.158  10.990  37.222  0.00  0.00    +0.096 C 
ATOM     11  H7  UNL     1      20.482  10.177  36.266  0.00  0.00    +0.156 HD
ENDROOT
BRANCH   1  16
ATOM     12  C3  UNL     1      23.495   7.479  34.739  0.00  0.00    +0.061 A 
ATOM     13  C4  UNL     1      23.741   6.628  35.829  0.00  0.00    +0.015 A 
ATOM     14  C5  UNL     1      22.880   6.620  36.928  0.00  0.00    +0.003 A 
ATOM     15  C6  UNL     1      21.772   7.468  36.958  0.00  0.00    +0.023 A 
ATOM     16  C7  UNL     1      21.519   8.344  35.894  0.00  0.00    +0.036 A 
ATOM     17  C19 UNL     1      22.375   8.331  34.775  0.00  0.00    +0.038 A 
BRANCH  12  18
ATOM     18  C2  UNL     1      24.398   7.470  33.566  0.00  0.00    +0.339 C 
ATOM     19  O2  UNL     1      25.265   6.561  33.439  0.00  0.00    -0.245 OA
BRANCH  18  21
ATOM     20  C1  UNL     1      25.312   9.432  32.364  0.00  0.00    +0.280 C 
ATOM     21  O1  UNL     1      24.289   8.471  32.595  0.00  0.00    -0.464 OA
ENDBRANCH  18  21
ENDBRANCH  12  18
ENDBRANCH   1  16
BRANCH   9  22
ATOM     22  C13 UNL     1      13.126  11.939  36.085  0.00  0.00    +0.057 C 
ATOM     23  C14 UNL     1      12.245  10.973  36.916  0.00  0.00    +0.019 C 
ATOM     24  C15 UNL     1      11.015  11.765  37.336  0.00  0.00    +0.002 C 
ATOM     25  C16 UNL     1      10.932  12.941  36.381  0.00  0.00    +0.002 C 
ATOM     26  C17 UNL     1      12.369  13.267  36.022  0.00  0.00    +0.019 C 
ENDBRANCH   9  22
TORSDOF 4
ENDMDL
MODEL 3
REMARK VINA RESULT:    -5.969     15.532     18.924
REMARK INTER + INTRA:          -7.200
REMARK INTER:                  -7.406
REMARK INTRA:                   0.206
REMARK UNBOUND:                 0.165
REMARK  Name = /home/qwerty/github/datacon2025hack/step_04_hit_selection/docking/ligands/lig_170.pdb
REMARK  5 active torsions:
REMARK  status: ('A' for Active; 'I' for Inactive)
REMARK    1  A    between atoms: C1_1  and  O1_2
REMARK    2  A    between atoms: O1_2  and  C2_3
REMARK    3  A    between atoms: C2_3  and  C3_5
REMARK    4  A    between atoms: C7_9  and  N1_10
REMARK    5  A    between atoms: N3_18  and  C13_19
REMARK                            x       y       z     vdW  Elec       q    Type
REMARK                         _______ _______ _______ _____ _____    ______ ____
ROOT
ATOM      1  N1  UNL     1      19.891   9.501  36.132  0.00  0.00    -0.269 N 
ATOM      2  C8  UNL     1      18.617   9.128  35.587  0.00  0.00    +0.306 C 
ATOM      3  O3  UNL     1      18.463   8.022  35.002  0.00  0.00    -0.252 OA
ATOM      4  N2  UNL     1      17.518  10.034  35.669  0.00  0.00    -0.284 N 
ATOM      5  C9  UNL     1      17.257  11.384  36.221  0.00  0.00    +0.120 C 
ATOM      6  C10 UNL     1      15.835  11.411  35.797  0.00  0.00    +0.028 C 
ATOM      7  C11 UNL     1      16.099  10.058  35.244  0.00  0.00    +0.120 C 
ATOM      8  C12 UNL     1      15.276  12.532  34.952  0.00  0.00    +0.096 C 
ATOM      9  N3  UNL     1      14.196  12.776  35.933  0.00  0.00    -0.298 NA
ATOM     10  C18 UNL     1      14.715  11.674  36.777  0.00  0.00    +0.096 C 
ATOM     11  H7  UNL     1      20.043  10.511  36.353  0.00  0.00    +0.156 HD
ENDROOT
BRANCH   1  16
ATOM     12  C3  UNL     1      23.019   7.531  35.394  0.00  0.00    +0.061 A 
ATOM     13  C4  UNL     1      23.125   6.788  36.582  0.00  0.00    +0.015 A 
ATOM     14  C5  UNL     1      22.174   6.935  37.595  0.00  0.00    +0.003 A 
ATOM     15  C6  UNL     1      21.116   7.831  37.440  0.00  0.00    +0.023 A 
ATOM     16  C7  UNL     1      21.003   8.602  36.275  0.00  0.00    +0.036 A 
ATOM     17  C19 UNL     1      21.948   8.433  35.245  0.00  0.00    +0.038 A 
BRANCH  12  18
ATOM     18  C2  UNL     1      24.017   7.358  34.315  0.00  0.00    +0.339 C 
ATOM     19  O2  UNL     1      24.210   8.281  33.476  0.00  0.00    -0.245 OA
BRANCH  18  21
ATOM     20  C1  UNL     1      25.535   5.833  33.090  0.00  0.00    +0.280 C 
ATOM     21  O1  UNL     1      24.748   6.168  34.227  0.00  0.00    -0.464 OA
ENDBRANCH  18  21
ENDBRANCH  12  18
ENDBRANCH   1  16
BRANCH   9  22
ATOM     22  C13 UNL     1      12.830  12.577  35.380  0.00  0.00    +0.057 C 
ATOM     23  C14 UNL     1      11.668  12.474  36.398  0.00  0.00    +0.019 C 
ATOM     24  C15 UNL     1      10.669  13.561  36.026  0.00  0.00    +0.002 C 
ATOM     25  C16 UNL     1      10.969  13.924  34.584  0.00  0.00    +0.002 C 
ATOM     26  C17 UNL     1      12.463  13.712  34.420  0.00  0.00    +0.019 C 
ENDBRANCH   9  22
TORSDOF 4
ENDMDL
MODEL 4
REMARK VINA RESULT:    -5.948      9.675     11.522
REMARK INTER + INTRA:          -7.173
REMARK INTER:                  -7.361
REMARK INTRA:                   0.188
REMARK UNBOUND:                 0.165
REMARK  Name = /home/qwerty/github/datacon2025hack/step_04_hit_selection/docking/ligands/lig_170.pdb
REMARK  5 active torsions:
REMARK  status: ('A' for Active; 'I' for Inactive)
REMARK    1  A    between atoms: C1_1  and  O1_2
REMARK    2  A    between atoms: O1_2  and  C2_3
REMARK    3  A    between atoms: C2_3  and  C3_5
REMARK    4  A    between atoms: C7_9  and  N1_10
REMARK    5  A    between atoms: N3_18  and  C13_19
REMARK                            x       y       z     vdW  Elec       q    Type
REMARK                         _______ _______ _______ _____ _____    ______ ____
ROOT
ATOM      1  N1  UNL     1      22.805   6.773  22.620  0.00  0.00    -0.269 N 
ATOM      2  C8  UNL     1      21.905   5.696  22.919  0.00  0.00    +0.306 C 
ATOM      3  O3  UNL     1      21.045   5.321  22.076  0.00  0.00    -0.252 OA
ATOM      4  N2  UNL     1      21.952   5.066  24.197  0.00  0.00    -0.284 N 
ATOM      5  C9  UNL     1      22.746   5.186  25.443  0.00  0.00    +0.120 C 
ATOM      6  C10 UNL     1      22.024   4.097  26.147  0.00  0.00    +0.028 C 
ATOM      7  C11 UNL     1      21.230   3.979  24.899  0.00  0.00    +0.120 C 
ATOM      8  C12 UNL     1      21.379   4.310  27.496  0.00  0.00    +0.096 C 
ATOM      9  N3  UNL     1      22.111   3.159  28.065  0.00  0.00    -0.298 NA
ATOM     10  C18 UNL     1      22.752   2.918  26.752  0.00  0.00    +0.096 C 
ATOM     11  H7  UNL     1      23.300   7.224  23.423  0.00  0.00    +0.156 HD
ENDROOT
BRANCH   1  16
ATOM     12  C3  UNL     1      22.461   9.056  19.641  0.00  0.00    +0.061 A 
ATOM     13  C4  UNL     1      23.294   8.391  18.726  0.00  0.00    +0.015 A 
ATOM     14  C5  UNL     1      23.944   7.210  19.092  0.00  0.00    +0.003 A 
ATOM     15  C6  UNL     1      23.780   6.686  20.374  0.00  0.00    +0.023 A 
ATOM     16  C7  UNL     1      22.974   7.345  21.313  0.00  0.00    +0.036 A 
ATOM     17  C19 UNL     1      22.300   8.521  20.934  0.00  0.00    +0.038 A 
BRANCH  12  18
ATOM     18  C2  UNL     1      21.758  10.297  19.244  0.00  0.00    +0.339 C 
ATOM     19  O2  UNL     1      22.319  11.418  19.385  0.00  0.00    -0.245 OA
BRANCH  18  21
ATOM     20  C1  UNL     1      19.437  11.140  19.059  0.00  0.00    +0.280 C 
ATOM     21  O1  UNL     1      20.467  10.223  18.709  0.00  0.00    -0.464 OA
ENDBRANCH  18  21
ENDBRANCH  12  18
ENDBRANCH   1  16
BRANCH   9  22
ATOM     22  C13 UNL     1      21.225   2.072  28.561  0.00  0.00    +0.057 C 
ATOM     23  C14 UNL     1      21.668   0.617  28.268  0.00  0.00    +0.019 C 
ATOM     24  C15 UNL     1      21.755  -0.087  29.616  0.00  0.00    +0.002 C 
ATOM     25  C16 UNL     1      20.917   0.741  30.572  0.00  0.00    +0.002 C 
ATOM     26  C17 UNL     1      21.041   2.171  30.077  0.00  0.00    +0.019 C 
ENDBRANCH   9  22
TORSDOF 4
ENDMDL
MODEL 5
REMARK VINA RESULT:    -5.939      3.360     10.219
REMARK INTER + INTRA:          -7.163
REMARK INTER:                  -7.375
REMARK INTRA:                   0.213
REMARK UNBOUND:                 0.165
REMARK  Name = /home/qwerty/github/datacon2025hack/step_04_hit_selection/docking/ligands/lig_170.pdb
REMARK  5 active torsions:
REMARK  status: ('A' for Active; 'I' for Inactive)
REMARK    1  A    between atoms: C1_1  and  O1_2
REMARK    2  A    between atoms: O1_2  and  C2_3
REMARK    3  A    between atoms: C2_3  and  C3_5
REMARK    4  A    between atoms: C7_9  and  N1_10
REMARK    5  A    between atoms: N3_18  and  C13_19
REMARK                            x       y       z     vdW  Elec       q    Type
REMARK                         _______ _______ _______ _____ _____    ______ ____
ROOT
ATOM      1  N1  UNL     1      13.464   2.023  21.154  0.00  0.00    -0.269 N 
ATOM      2  C8  UNL     1      13.643   3.314  21.756  0.00  0.00    +0.306 C 
ATOM      3  O3  UNL     1      14.665   3.565  22.450  0.00  0.00    -0.252 OA
ATOM      4  N2  UNL     1      12.638   4.313  21.603  0.00  0.00    -0.284 N 
ATOM      5  C9  UNL     1      11.328   4.447  20.922  0.00  0.00    +0.120 C 
ATOM      6  C10 UNL     1      11.107   5.846  21.367  0.00  0.00    +0.028 C 
ATOM      7  C11 UNL     1      12.420   5.710  22.048  0.00  0.00    +0.120 C 
ATOM      8  C12 UNL     1       9.856   6.260  22.105  0.00  0.00    +0.096 C 
ATOM      9  N3  UNL     1       9.595   7.336  21.124  0.00  0.00    -0.298 NA
ATOM     10  C18 UNL     1      10.822   6.959  20.386  0.00  0.00    +0.096 C 
ATOM     11  H7  UNL     1      12.502   1.772  20.830  0.00  0.00    +0.156 HD
ENDROOT
BRANCH   1  16
ATOM     12  C3  UNL     1      15.795  -0.785  22.098  0.00  0.00    +0.061 A 
ATOM     13  C4  UNL     1      16.535  -0.897  20.909  0.00  0.00    +0.015 A 
ATOM     14  C5  UNL     1      16.268  -0.054  19.828  0.00  0.00    +0.003 A 
ATOM     15  C6  UNL     1      15.255   0.901  19.916  0.00  0.00    +0.023 A 
ATOM     16  C7  UNL     1      14.486   1.016  21.082  0.00  0.00    +0.036 A 
ATOM     17  C19 UNL     1      14.774   0.182  22.179  0.00  0.00    +0.038 A 
BRANCH  12  18
ATOM     18  C2  UNL     1      16.093  -1.666  23.249  0.00  0.00    +0.339 C 
ATOM     19  O2  UNL     1      17.234  -2.193  23.366  0.00  0.00    -0.245 OA
BRANCH  18  21
ATOM     20  C1  UNL     1      15.250  -1.535  25.574  0.00  0.00    +0.280 C 
ATOM     21  O1  UNL     1      15.107  -1.914  24.210  0.00  0.00    -0.464 OA
ENDBRANCH  18  21
ENDBRANCH  12  18
ENDBRANCH   1  16
BRANCH   9  22
ATOM     22  C13 UNL     1       9.591   8.699  21.718  0.00  0.00    +0.057 C 
ATOM     23  C14 UNL     1       9.642   9.894  20.734  0.00  0.00    +0.019 C 
ATOM     24  C15 UNL     1       8.421  10.753  21.035  0.00  0.00    +0.002 C 
ATOM     25  C16 UNL     1       7.981  10.373  22.436  0.00  0.00    +0.002 C 
ATOM     26  C17 UNL     1       8.349   8.909  22.588  0.00  0.00    +0.019 C 
ENDBRANCH   9  22
TORSDOF 4
ENDMDL
MODEL 6
REMARK VINA RESULT:    -5.707     14.336     15.996
REMARK INTER + INTRA:          -6.876
REMARK INTER:                  -7.018
REMARK INTRA:                   0.142
REMARK UNBOUND:                 0.165
REMARK  Name = /home/qwerty/github/datacon2025hack/step_04_hit_selection/docking/ligands/lig_170.pdb
REMARK  5 active torsions:
REMARK  status: ('A' for Active; 'I' for Inactive)
REMARK    1  A    between atoms: C1_1  and  O1_2
REMARK    2  A    between atoms: O1_2  and  C2_3
REMARK    3  A    between atoms: C2_3  and  C3_5
REMARK    4  A    between atoms: C7_9  and  N1_10
REMARK    5  A    between atoms: N3_18  and  C13_19
REMARK                            x       y       z     vdW  Elec       q    Type
REMARK                         _______ _______ _______ _____ _____    ______ ____
ROOT
ATOM      1  N1  UNL     1      14.332  11.937  36.153  0.00  0.00    -0.269 N 
ATOM      2  C8  UNL     1      14.861  10.702  35.648  0.00  0.00    +0.306 C 
ATOM      3  O3  UNL     1      14.173   9.969  34.888  0.00  0.00    -0.252 OA
ATOM      4  N2  UNL     1      16.164  10.276  36.041  0.00  0.00    -0.284 N 
ATOM      5  C9  UNL     1      17.267  10.783  36.891  0.00  0.00    +0.120 C 
ATOM      6  C10 UNL     1      18.156   9.622  36.633  0.00  0.00    +0.028 C 
ATOM      7  C11 UNL     1      17.050   9.116  35.782  0.00  0.00    +0.120 C 
ATOM      8  C12 UNL     1      18.747   8.804  37.758  0.00  0.00    +0.096 C 
ATOM      9  N3  UNL     1      20.113   8.999  37.225  0.00  0.00    -0.298 NA
ATOM     10  C18 UNL     1      19.562   9.796  36.105  0.00  0.00    +0.096 C 
ATOM     11  H7  UNL     1      14.812  12.366  36.978  0.00  0.00    +0.156 HD
ENDROOT
BRANCH   1  16
ATOM     12  C3  UNL     1      11.885  13.825  33.995  0.00  0.00    +0.061 A 
ATOM     13  C4  UNL     1      10.751  13.788  34.824  0.00  0.00    +0.015 A 
ATOM     14  C5  UNL     1      10.805  13.159  36.069  0.00  0.00    +0.003 A 
ATOM     15  C6  UNL     1      11.986  12.551  36.498  0.00  0.00    +0.023 A 
ATOM     16  C7  UNL     1      13.123  12.552  35.679  0.00  0.00    +0.036 A 
ATOM     17  C19 UNL     1      13.073  13.210  34.435  0.00  0.00    +0.038 A 
BRANCH  12  18
ATOM     18  C2  UNL     1      11.830  14.511  32.685  0.00  0.00    +0.339 C 
ATOM     19  O2  UNL     1      12.494  15.567  32.492  0.00  0.00    -0.245 OA
BRANCH  18  21
ATOM     20  C1  UNL     1      11.244  12.683  31.121  0.00  0.00    +0.280 C 
ATOM     21  O1  UNL     1      11.040  13.984  31.657  0.00  0.00    -0.464 OA
ENDBRANCH  18  21
ENDBRANCH  12  18
ENDBRANCH   1  16
BRANCH   9  22
ATOM     22  C13 UNL     1      20.792   7.732  36.844  0.00  0.00    +0.057 C 
ATOM     23  C14 UNL     1      21.650   7.756  35.555  0.00  0.00    +0.019 C 
ATOM     24  C15 UNL     1      23.050   7.315  35.961  0.00  0.00    +0.002 C 
ATOM     25  C16 UNL     1      22.889   6.583  37.279  0.00  0.00    +0.002 C 
ATOM     26  C17 UNL     1      21.713   7.251  37.967  0.00  0.00    +0.019 C 
ENDBRANCH   9  22
TORSDOF 4
ENDMDL
MODEL 7
REMARK VINA RESULT:    -5.699     16.317     17.792
REMARK INTER + INTRA:          -6.867
REMARK INTER:                  -7.112
REMARK INTRA:                   0.246
REMARK UNBOUND:                 0.165
REMARK  Name = /home/qwerty/github/datacon2025hack/step_04_hit_selection/docking/ligands/lig_170.pdb
REMARK  5 active torsions:
REMARK  status: ('A' for Active; 'I' for Inactive)
REMARK    1  A    between atoms: C1_1  and  O1_2
REMARK    2  A    between atoms: O1_2  and  C2_3
REMARK    3  A    between atoms: C2_3  and  C3_5
REMARK    4  A    between atoms: C7_9  and  N1_10
REMARK    5  A    between atoms: N3_18  and  C13_19
REMARK                            x       y       z     vdW  Elec       q    Type
REMARK                         _______ _______ _______ _____ _____    ______ ____
ROOT
ATOM      1  N1  UNL     1      15.366   6.295  38.135  0.00  0.00    -0.269 N 
ATOM      2  C8  UNL     1      14.508   5.806  37.094  0.00  0.00    +0.306 C 
ATOM      3  O3  UNL     1      14.743   6.072  35.885  0.00  0.00    -0.252 OA
ATOM      4  N2  UNL     1      13.351   5.043  37.429  0.00  0.00    -0.284 N 
ATOM      5  C9  UNL     1      12.702   4.529  38.659  0.00  0.00    +0.120 C 
ATOM      6  C10 UNL     1      11.586   3.871  37.936  0.00  0.00    +0.028 C 
ATOM      7  C11 UNL     1      12.237   4.386  36.705  0.00  0.00    +0.120 C 
ATOM      8  C12 UNL     1      10.140   4.162  38.266  0.00  0.00    +0.096 C 
ATOM      9  N3  UNL     1       9.859   2.723  38.454  0.00  0.00    -0.298 NA
ATOM     10  C18 UNL     1      11.267   2.405  38.124  0.00  0.00    +0.096 C 
ATOM     11  H7  UNL     1      14.992   6.288  39.111  0.00  0.00    +0.156 HD
ENDROOT
BRANCH   1  16
ATOM     12  C3  UNL     1      18.035   8.861  37.423  0.00  0.00    +0.061 A 
ATOM     13  C4  UNL     1      19.170   8.033  37.406  0.00  0.00    +0.015 A 
ATOM     14  C5  UNL     1      19.046   6.659  37.617  0.00  0.00    +0.003 A 
ATOM     15  C6  UNL     1      17.792   6.095  37.858  0.00  0.00    +0.023 A 
ATOM     16  C7  UNL     1      16.648   6.904  37.906  0.00  0.00    +0.036 A 
ATOM     17  C19 UNL     1      16.772   8.285  37.667  0.00  0.00    +0.038 A 
BRANCH  12  18
ATOM     18  C2  UNL     1      18.167  10.315  37.178  0.00  0.00    +0.339 C 
ATOM     19  O2  UNL     1      17.173  11.077  37.333  0.00  0.00    -0.245 OA
BRANCH  18  21
ATOM     20  C1  UNL     1      19.564  12.206  36.402  0.00  0.00    +0.280 C 
ATOM     21  O1  UNL     1      19.399  10.843  36.777  0.00  0.00    -0.464 OA
ENDBRANCH  18  21
ENDBRANCH  12  18
ENDBRANCH   1  16
BRANCH   9  22
ATOM     22  C13 UNL     1       8.838   2.185  37.515  0.00  0.00    +0.057 C 
ATOM     23  C14 UNL     1       9.315   1.126  36.491  0.00  0.00    +0.019 C 
ATOM     24  C15 UNL     1       8.440  -0.102  36.702  0.00  0.00    +0.002 C 
ATOM     25  C16 UNL     1       7.203   0.389  37.429  0.00  0.00    +0.002 C 
ATOM     26  C17 UNL     1       7.675   1.552  38.282  0.00  0.00    +0.019 C 
ENDBRANCH   9  22
TORSDOF 4
ENDMDL
MODEL 8
REMARK VINA RESULT:    -5.639      6.552     10.411
REMARK INTER + INTRA:          -6.792
REMARK INTER:                  -7.003
REMARK INTRA:                   0.211
REMARK UNBOUND:                 0.165
REMARK  Name = /home/qwerty/github/datacon2025hack/step_04_hit_selection/docking/ligands/lig_170.pdb
REMARK  5 active torsions:
REMARK  status: ('A' for Active; 'I' for Inactive)
REMARK    1  A    between atoms: C1_1  and  O1_2
REMARK    2  A    between atoms: O1_2  and  C2_3
REMARK    3  A    between atoms: C2_3  and  C3_5
REMARK    4  A    between atoms: C7_9  and  N1_10
REMARK    5  A    between atoms: N3_18  and  C13_19
REMARK                            x       y       z     vdW  Elec       q    Type
REMARK                         _______ _______ _______ _____ _____    ______ ____
ROOT
ATOM      1  N1  UNL     1      15.758   5.907  19.483  0.00  0.00    -0.269 N 
ATOM      2  C8  UNL     1      16.376   6.740  20.476  0.00  0.00    +0.306 C 
ATOM      3  O3  UNL     1      16.189   6.526  21.704  0.00  0.00    -0.252 OA
ATOM      4  N2  UNL     1      17.178   7.847  20.072  0.00  0.00    -0.284 N 
ATOM      5  C9  UNL     1      17.633   8.458  18.801  0.00  0.00    +0.120 C 
ATOM      6  C10 UNL     1      18.409   9.537  19.461  0.00  0.00    +0.028 C 
ATOM      7  C11 UNL     1      17.952   8.924  20.733  0.00  0.00    +0.120 C 
ATOM      8  C12 UNL     1      18.179  10.996  19.140  0.00  0.00    +0.096 C 
ATOM      9  N3  UNL     1      19.614  11.190  18.841  0.00  0.00    -0.298 NA
ATOM     10  C18 UNL     1      19.872   9.767  19.159  0.00  0.00    +0.096 C 
ATOM     11  H7  UNL     1      15.713   6.275  18.506  0.00  0.00    +0.156 HD
ENDROOT
BRANCH   1  16
ATOM     12  C3  UNL     1      15.153   2.265  20.248  0.00  0.00    +0.061 A 
ATOM     13  C4  UNL     1      13.749   2.251  20.270  0.00  0.00    +0.015 A 
ATOM     14  C5  UNL     1      13.026   3.421  20.028  0.00  0.00    +0.003 A 
ATOM     15  C6  UNL     1      13.694   4.620  19.773  0.00  0.00    +0.023 A 
ATOM     16  C7  UNL     1      15.095   4.665  19.770  0.00  0.00    +0.036 A 
ATOM     17  C19 UNL     1      15.821   3.478  19.989  0.00  0.00    +0.038 A 
BRANCH  12  18
ATOM     18  C2  UNL     1      15.916   1.019  20.484  0.00  0.00    +0.339 C 
ATOM     19  O2  UNL     1      16.552   0.859  21.562  0.00  0.00    -0.245 OA
BRANCH  18  21
ATOM     20  C1  UNL     1      16.846  -1.072  19.538  0.00  0.00    +0.280 C 
ATOM     21  O1  UNL     1      15.930   0.016  19.508  0.00  0.00    -0.464 OA
ENDBRANCH  18  21
ENDBRANCH  12  18
ENDBRANCH   1  16
BRANCH   9  22
ATOM     22  C13 UNL     1      20.281  12.182  19.727  0.00  0.00    +0.057 C 
ATOM     23  C14 UNL     1      21.829  12.156  19.770  0.00  0.00    +0.019 C 
ATOM     24  C15 UNL     1      22.294  13.553  19.384  0.00  0.00    +0.002 C 
ATOM     25  C16 UNL     1      21.105  14.466  19.614  0.00  0.00    +0.002 C 
ATOM     26  C17 UNL     1      19.883  13.608  19.340  0.00  0.00    +0.019 C 
ENDBRANCH   9  22
TORSDOF 4
ENDMDL
MODEL 9
REMARK VINA RESULT:    -5.605     10.187     11.895
REMARK INTER + INTRA:          -6.751
REMARK INTER:                  -6.910
REMARK INTRA:                   0.159
REMARK UNBOUND:                 0.165
REMARK  Name = /home/qwerty/github/datacon2025hack/step_04_hit_selection/docking/ligands/lig_170.pdb
REMARK  5 active torsions:
REMARK  status: ('A' for Active; 'I' for Inactive)
REMARK    1  A    between atoms: C1_1  and  O1_2
REMARK    2  A    between atoms: O1_2  and  C2_3
REMARK    3  A    between atoms: C2_3  and  C3_5
REMARK    4  A    between atoms: C7_9  and  N1_10
REMARK    5  A    between atoms: N3_18  and  C13_19
REMARK                            x       y       z     vdW  Elec       q    Type
REMARK                         _______ _______ _______ _____ _____    ______ ____
ROOT
ATOM      1  N1  UNL     1      22.182   5.140  23.174  0.00  0.00    -0.269 N 
ATOM      2  C8  UNL     1      21.356   5.420  24.314  0.00  0.00    +0.306 C 
ATOM      3  O3  UNL     1      20.677   6.480  24.374  0.00  0.00    -0.252 OA
ATOM      4  N2  UNL     1      21.331   4.510  25.411  0.00  0.00    -0.284 N 
ATOM      5  C9  UNL     1      21.952   3.212  25.766  0.00  0.00    +0.120 C 
ATOM      6  C10 UNL     1      21.284   3.119  27.088  0.00  0.00    +0.028 C 
ATOM      7  C11 UNL     1      20.663   4.420  26.731  0.00  0.00    +0.120 C 
ATOM      8  C12 UNL     1      22.067   2.924  28.365  0.00  0.00    +0.096 C 
ATOM      9  N3  UNL     1      21.251   1.743  28.722  0.00  0.00    -0.298 NA
ATOM     10  C18 UNL     1      20.459   1.916  27.483  0.00  0.00    +0.096 C 
ATOM     11  H7  UNL     1      22.921   4.409  23.282  0.00  0.00    +0.156 HD
ENDROOT
BRANCH   1  16
ATOM     12  C3  UNL     1      22.903   7.721  20.522  0.00  0.00    +0.061 A 
ATOM     13  C4  UNL     1      21.972   7.332  19.544  0.00  0.00    +0.015 A 
ATOM     14  C5  UNL     1      21.124   6.246  19.768  0.00  0.00    +0.003 A 
ATOM     15  C6  UNL     1      21.201   5.529  20.963  0.00  0.00    +0.023 A 
ATOM     16  C7  UNL     1      22.138   5.882  21.943  0.00  0.00    +0.036 A 
ATOM     17  C19 UNL     1      22.975   6.993  21.726  0.00  0.00    +0.038 A 
BRANCH  12  18
ATOM     18  C2  UNL     1      23.787   8.886  20.290  0.00  0.00    +0.339 C 
ATOM     19  O2  UNL     1      24.966   8.886  20.739  0.00  0.00    -0.245 OA
BRANCH  18  21
ATOM     20  C1  UNL     1      22.631  11.073  20.187  0.00  0.00    +0.280 C 
ATOM     21  O1  UNL     1      23.312   9.987  19.570  0.00  0.00    -0.464 OA
ENDBRANCH  18  21
ENDBRANCH  12  18
ENDBRANCH   1  16
BRANCH   9  22
ATOM     22  C13 UNL     1      20.500   1.898  29.996  0.00  0.00    +0.057 C 
ATOM     23  C14 UNL     1      19.318   0.927  30.237  0.00  0.00    +0.019 C 
ATOM     24  C15 UNL     1      19.604   0.219  31.555  0.00  0.00    +0.002 C 
ATOM     25  C16 UNL     1      20.605   1.092  32.287  0.00  0.00    +0.002 C 
ATOM     26  C17 UNL     1      21.435   1.748  31.199  0.00  0.00    +0.019 C 
ENDBRANCH   9  22
TORSDOF 4
ENDMDL
