REMARK  Name = /home/qwerty/github/datacon2025hack/step_04_hit_selection/docking/ligands/lig_553.pdb
REMARK  3 active torsions:
REMARK  status: ('A' for Active; 'I' for Inactive)
REMARK    1  A    between atoms: C1_2  and  C11_14
REMARK    2  A    between atoms: N1_3  and  C2_4
REMARK    3  A    between atoms: C2_4  and  C3_5
REMARK                            x       y       z     vdW  Elec       q    Type
REMARK                         _______ _______ _______ _____ _____    ______ ____
ROOT
ATOM      1  O1  UNL     1      -0.775   3.010   0.868  0.00  0.00    -0.270 OA
ATOM      2  C1  UNL     1      -1.180   1.845   1.129  0.00  0.00    +0.246 C 
ATOM      3  N1  UNL     1      -0.443   1.018   2.040  0.00  0.00    -0.307 N 
ATOM      4  H1  UNL     1      -0.924   0.219   2.509  0.00  0.00    +0.149 HD
ENDROOT
BRANCH   2   5
ATOM      5  C11 UNL     1      -2.428   1.362   0.515  0.00  0.00    +0.063 A 
ATOM      6  C12 UNL     1      -3.494   2.156   0.095  0.00  0.00    +0.098 A 
ATOM      7  N2  UNL     1      -4.474   1.393  -0.440  0.00  0.00    -0.345 N 
ATOM      8  C13 UNL     1      -4.027   0.130  -0.372  0.00  0.00    +0.139 A 
ATOM      9  N3  UNL     1      -4.671  -0.969  -0.840  0.00  0.00    -0.237 NA
ATOM     10  C14 UNL     1      -4.061  -2.188  -0.744  0.00  0.00    +0.113 A 
ATOM     11  C15 UNL     1      -2.769  -2.301  -0.186  0.00  0.00    +0.020 A 
ATOM     12  C16 UNL     1      -2.107  -1.155   0.287  0.00  0.00    +0.014 A 
ATOM     13  C17 UNL     1      -2.783   0.062   0.195  0.00  0.00    +0.031 A 
ATOM     14  H12 UNL     1      -5.381   1.722  -0.838  0.00  0.00    +0.167 HD
ENDBRANCH   2   5
BRANCH   3  15
ATOM     15  C2  UNL     1       0.966   1.256   2.341  0.00  0.00    +0.139 C 
BRANCH  15  16
ATOM     16  C3  UNL     1       1.810   0.899   1.149  0.00  0.00    -0.030 A 
ATOM     17  C4  UNL     1       2.385   1.913   0.346  0.00  0.00    +0.009 A 
ATOM     18  C5  UNL     1       3.134   1.577  -0.794  0.00  0.00    +0.046 A 
ATOM     19  C6  UNL     1       3.286   0.229  -1.110  0.00  0.00    +0.124 A 
ATOM     20  C7  UNL     1       2.731  -0.755  -0.346  0.00  0.00    -0.002 A 
ATOM     21  C8  UNL     1       1.983  -0.455   0.792  0.00  0.00    +0.012 A 
ATOM     22  C9  UNL     1       3.046  -2.086  -0.926  0.00  0.00    +0.080 C 
ATOM     23  C10 UNL     1       3.894  -1.719  -2.170  0.00  0.00    +0.234 C 
ATOM     24  O2  UNL     1       3.973  -0.294  -2.183  0.00  0.00    -0.491 OA
ENDBRANCH  15  16
ENDBRANCH   3  15
TORSDOF 3
