MODEL 1
REMARK VINA RESULT:    -6.251      0.000      0.000
REMARK INTER + INTRA:          -7.607
REMARK INTER:                  -7.165
REMARK INTRA:                  -0.442
REMARK UNBOUND:                -0.442
REMARK  Name = /home/qwerty/github/datacon2025hack/step_04_hit_selection/docking/ligands/lig_406.pdb
REMARK  3 active torsions:
REMARK  status: ('A' for Active; 'I' for Inactive)
REMARK    1  A    between atoms: C1_2  and  C10_15
REMARK    2  A    between atoms: N1_3  and  C2_4
REMARK    3  A    between atoms: C13_18  and  O4_19
REMARK                            x       y       z     vdW  Elec       q    Type
REMARK                         _______ _______ _______ _____ _____    ______ ____
ROOT
ATOM      1  O1  UNL     1      12.130   7.241  22.026  0.00  0.00    -0.270 OA
ATOM      2  C1  UNL     1      11.193   7.239  21.179  0.00  0.00    +0.248 C 
ATOM      3  N1  UNL     1      11.147   6.214  20.172  0.00  0.00    -0.280 N 
ATOM      4  H1  UNL     1      10.648   6.422  19.280  0.00  0.00    +0.155 HD
ENDROOT
BRANCH   3   5
ATOM      5  C2  UNL     1      11.849   4.963  20.291  0.00  0.00    +0.051 A 
ATOM      6  C3  UNL     1      13.169   4.841  19.816  0.00  0.00    +0.073 A 
ATOM      7  C4  UNL     1      13.863   3.638  19.965  0.00  0.00    +0.164 A 
ATOM      8  C5  UNL     1      13.242   2.538  20.567  0.00  0.00    +0.163 A 
ATOM      9  C6  UNL     1      11.943   2.654  21.066  0.00  0.00    +0.066 A 
ATOM     10  C7  UNL     1      11.244   3.861  20.936  0.00  0.00    +0.043 A 
ATOM     11 BR1  UNL     1       9.449   3.944  21.605  0.00  0.00    -0.048 Br
ATOM     12  O2  UNL     1      13.940   1.330  20.662  0.00  0.00    -0.485 OA
ATOM     13  C8  UNL     1      15.148   1.116  19.927  0.00  0.00    +0.270 C 
ATOM     14  C9  UNL     1      15.990   2.398  19.906  0.00  0.00    +0.270 C 
ATOM     15  O3  UNL     1      15.183   3.514  19.521  0.00  0.00    -0.485 OA
ENDBRANCH   3   5
BRANCH   2  16
ATOM     16  C10 UNL     1      10.181   8.323  21.212  0.00  0.00    +0.040 A 
ATOM     17  C11 UNL     1       9.097   8.274  22.109  0.00  0.00    +0.017 A 
ATOM     18  C12 UNL     1       8.153   9.305  22.135  0.00  0.00    +0.049 A 
ATOM     19  C13 UNL     1       8.279  10.400  21.272  0.00  0.00    +0.152 A 
ATOM     20  C14 UNL     1       9.357  10.461  20.384  0.00  0.00    +0.165 A 
ATOM     21  F1  UNL     1       9.489  11.520  19.545  0.00  0.00    -0.202 F 
ATOM     22  C15 UNL     1      10.305   9.432  20.356  0.00  0.00    +0.055 A 
BRANCH  19  23
ATOM     23  O4  UNL     1       7.341  11.430  21.291  0.00  0.00    -0.504 OA
ATOM     24  H10 UNL     1       6.465  11.357  20.788  0.00  0.00    +0.292 HD
ENDBRANCH  19  23
ENDBRANCH   2  16
TORSDOF 3
ENDMDL
MODEL 2
REMARK VINA RESULT:    -6.069     15.275     16.376
REMARK INTER + INTRA:          -7.398
REMARK INTER:                  -6.947
REMARK INTRA:                  -0.452
REMARK UNBOUND:                -0.442
REMARK  Name = /home/qwerty/github/datacon2025hack/step_04_hit_selection/docking/ligands/lig_406.pdb
REMARK  3 active torsions:
REMARK  status: ('A' for Active; 'I' for Inactive)
REMARK    1  A    between atoms: C1_2  and  C10_15
REMARK    2  A    between atoms: N1_3  and  C2_4
REMARK    3  A    between atoms: C13_18  and  O4_19
REMARK                            x       y       z     vdW  Elec       q    Type
REMARK                         _______ _______ _______ _____ _____    ______ ____
ROOT
ATOM      1  O1  UNL     1      19.661   5.109  32.804  0.00  0.00    -0.270 OA
ATOM      2  C1  UNL     1      20.339   4.771  33.814  0.00  0.00    +0.248 C 
ATOM      3  N1  UNL     1      20.804   3.416  33.937  0.00  0.00    -0.280 N 
ATOM      4  H1  UNL     1      20.998   3.047  34.894  0.00  0.00    +0.155 HD
ENDROOT
BRANCH   3   5
ATOM      5  C2  UNL     1      20.906   2.515  32.819  0.00  0.00    +0.051 A 
ATOM      6  C3  UNL     1      22.001   2.597  31.939  0.00  0.00    +0.073 A 
ATOM      7  C4  UNL     1      22.119   1.698  30.876  0.00  0.00    +0.164 A 
ATOM      8  C5  UNL     1      21.135   0.726  30.665  0.00  0.00    +0.163 A 
ATOM      9  C6  UNL     1      20.058   0.618  31.546  0.00  0.00    +0.066 A 
ATOM     10  C7  UNL     1      19.939   1.503  32.625  0.00  0.00    +0.043 A 
ATOM     11 BR1  UNL     1      18.415   1.330  33.775  0.00  0.00    -0.048 Br
ATOM     12  O2  UNL     1      21.250  -0.131  29.567  0.00  0.00    -0.485 OA
ATOM     13  C8  UNL     1      22.185   0.134  28.518  0.00  0.00    +0.270 C 
ATOM     14  C9  UNL     1      23.493   0.686  29.099  0.00  0.00    +0.270 C 
ATOM     15  O3  UNL     1      23.217   1.753  30.011  0.00  0.00    -0.485 OA
ENDBRANCH   3   5
BRANCH   2  16
ATOM     16  C10 UNL     1      20.605   5.769  34.878  0.00  0.00    +0.040 A 
ATOM     17  C11 UNL     1      19.552   6.327  35.628  0.00  0.00    +0.017 A 
ATOM     18  C12 UNL     1      19.816   7.261  36.633  0.00  0.00    +0.049 A 
ATOM     19  C13 UNL     1      21.132   7.648  36.910  0.00  0.00    +0.152 A 
ATOM     20  C14 UNL     1      22.186   7.092  36.177  0.00  0.00    +0.165 A 
ATOM     21  F1  UNL     1      23.466   7.459  36.440  0.00  0.00    -0.202 F 
ATOM     22  C15 UNL     1      21.925   6.156  35.171  0.00  0.00    +0.055 A 
BRANCH  19  23
ATOM     23  O4  UNL     1      21.403   8.580  37.910  0.00  0.00    -0.504 OA
ATOM     24  H10 UNL     1      20.973   9.498  37.908  0.00  0.00    +0.292 HD
ENDBRANCH  19  23
ENDBRANCH   2  16
TORSDOF 3
ENDMDL
MODEL 3
REMARK VINA RESULT:    -6.016     12.741     15.238
REMARK INTER + INTRA:          -7.338
REMARK INTER:                  -6.885
REMARK INTRA:                  -0.453
REMARK UNBOUND:                -0.442
REMARK  Name = /home/qwerty/github/datacon2025hack/step_04_hit_selection/docking/ligands/lig_406.pdb
REMARK  3 active torsions:
REMARK  status: ('A' for Active; 'I' for Inactive)
REMARK    1  A    between atoms: C1_2  and  C10_15
REMARK    2  A    between atoms: N1_3  and  C2_4
REMARK    3  A    between atoms: C13_18  and  O4_19
REMARK                            x       y       z     vdW  Elec       q    Type
REMARK                         _______ _______ _______ _____ _____    ______ ____
ROOT
ATOM      1  O1  UNL     1      14.440  12.243  31.688  0.00  0.00    -0.270 OA
ATOM      2  C1  UNL     1      14.254  13.272  32.396  0.00  0.00    +0.248 C 
ATOM      3  N1  UNL     1      13.474  14.362  31.876  0.00  0.00    -0.280 N 
ATOM      4  H1  UNL     1      13.645  15.317  32.260  0.00  0.00    +0.155 HD
ENDROOT
BRANCH   3   5
ATOM      5  C2  UNL     1      12.555  14.217  30.778  0.00  0.00    +0.051 A 
ATOM      6  C3  UNL     1      11.217  13.848  31.015  0.00  0.00    +0.073 A 
ATOM      7  C4  UNL     1      10.316  13.744  29.953  0.00  0.00    +0.164 A 
ATOM      8  C5  UNL     1      10.744  13.983  28.643  0.00  0.00    +0.163 A 
ATOM      9  C6  UNL     1      12.061  14.375  28.396  0.00  0.00    +0.066 A 
ATOM     10  C7  UNL     1      12.968  14.499  29.456  0.00  0.00    +0.043 A 
ATOM     11 BR1  UNL     1      14.773  15.002  29.050  0.00  0.00    -0.048 Br
ATOM     12  O2  UNL     1       9.836  13.826  27.591  0.00  0.00    -0.485 OA
ATOM     13  C8  UNL     1       8.579  13.173  27.792  0.00  0.00    +0.270 C 
ATOM     14  C9  UNL     1       7.993  13.559  29.156  0.00  0.00    +0.270 C 
ATOM     15  O3  UNL     1       8.979  13.403  30.180  0.00  0.00    -0.485 OA
ENDBRANCH   3   5
BRANCH   2  16
ATOM     16  C10 UNL     1      14.882  13.355  33.737  0.00  0.00    +0.040 A 
ATOM     17  C11 UNL     1      16.264  13.144  33.904  0.00  0.00    +0.017 A 
ATOM     18  C12 UNL     1      16.845  13.232  35.172  0.00  0.00    +0.049 A 
ATOM     19  C13 UNL     1      16.060  13.536  36.290  0.00  0.00    +0.152 A 
ATOM     20  C14 UNL     1      14.688  13.756  36.133  0.00  0.00    +0.165 A 
ATOM     21  F1  UNL     1      13.918  14.054  37.210  0.00  0.00    -0.202 F 
ATOM     22  C15 UNL     1      14.103  13.670  34.865  0.00  0.00    +0.055 A 
BRANCH  19  23
ATOM     23  O4  UNL     1      16.632  13.624  37.557  0.00  0.00    -0.504 OA
ATOM     24  H10 UNL     1      16.157  13.268  38.378  0.00  0.00    +0.292 HD
ENDBRANCH  19  23
ENDBRANCH   2  16
TORSDOF 3
ENDMDL
MODEL 4
REMARK VINA RESULT:    -6.013     15.014     16.232
REMARK INTER + INTRA:          -7.334
REMARK INTER:                  -6.912
REMARK INTRA:                  -0.422
REMARK UNBOUND:                -0.442
REMARK  Name = /home/qwerty/github/datacon2025hack/step_04_hit_selection/docking/ligands/lig_406.pdb
REMARK  3 active torsions:
REMARK  status: ('A' for Active; 'I' for Inactive)
REMARK    1  A    between atoms: C1_2  and  C10_15
REMARK    2  A    between atoms: N1_3  and  C2_4
REMARK    3  A    between atoms: C13_18  and  O4_19
REMARK                            x       y       z     vdW  Elec       q    Type
REMARK                         _______ _______ _______ _____ _____    ______ ____
ROOT
ATOM      1  O1  UNL     1      23.356   5.335  32.703  0.00  0.00    -0.270 OA
ATOM      2  C1  UNL     1      22.192   5.538  33.150  0.00  0.00    +0.248 C 
ATOM      3  N1  UNL     1      21.054   5.063  32.410  0.00  0.00    -0.280 N 
ATOM      4  H1  UNL     1      20.141   5.548  32.547  0.00  0.00    +0.155 HD
ENDROOT
BRANCH   3   5
ATOM      5  C2  UNL     1      21.140   4.030  31.412  0.00  0.00    +0.051 A 
ATOM      6  C3  UNL     1      21.430   4.358  30.073  0.00  0.00    +0.073 A 
ATOM      7  C4  UNL     1      21.550   3.353  29.112  0.00  0.00    +0.164 A 
ATOM      8  C5  UNL     1      21.359   2.014  29.468  0.00  0.00    +0.163 A 
ATOM      9  C6  UNL     1      21.098   1.672  30.796  0.00  0.00    +0.066 A 
ATOM     10  C7  UNL     1      20.992   2.672  31.771  0.00  0.00    +0.043 A 
ATOM     11 BR1  UNL     1      20.590   2.144  33.570  0.00  0.00    -0.048 Br
ATOM     12  O2  UNL     1      21.438   1.028  28.478  0.00  0.00    -0.485 OA
ATOM     13  C8  UNL     1      21.435   1.374  27.091  0.00  0.00    +0.270 C 
ATOM     14  C9  UNL     1      22.258   2.648  26.860  0.00  0.00    +0.270 C 
ATOM     15  O3  UNL     1      21.864   3.665  27.785  0.00  0.00    -0.485 OA
ENDBRANCH   3   5
BRANCH   2  16
ATOM     16  C10 UNL     1      22.019   6.302  34.409  0.00  0.00    +0.040 A 
ATOM     17  C11 UNL     1      20.939   7.189  34.575  0.00  0.00    +0.017 A 
ATOM     18  C12 UNL     1      20.783   7.899  35.768  0.00  0.00    +0.049 A 
ATOM     19  C13 UNL     1      21.697   7.731  36.815  0.00  0.00    +0.152 A 
ATOM     20  C14 UNL     1      22.768   6.845  36.663  0.00  0.00    +0.165 A 
ATOM     21  F1  UNL     1      23.657   6.672  37.673  0.00  0.00    -0.202 F 
ATOM     22  C15 UNL     1      22.926   6.131  35.470  0.00  0.00    +0.055 A 
BRANCH  19  23
ATOM     23  O4  UNL     1      21.548   8.436  38.007  0.00  0.00    -0.504 OA
ATOM     24  H10 UNL     1      21.846   8.045  38.894  0.00  0.00    +0.292 HD
ENDBRANCH  19  23
ENDBRANCH   2  16
TORSDOF 3
ENDMDL
MODEL 5
REMARK VINA RESULT:    -5.923     15.561     17.870
REMARK INTER + INTRA:          -7.231
REMARK INTER:                  -6.935
REMARK INTRA:                  -0.296
REMARK UNBOUND:                -0.442
REMARK  Name = /home/qwerty/github/datacon2025hack/step_04_hit_selection/docking/ligands/lig_406.pdb
REMARK  3 active torsions:
REMARK  status: ('A' for Active; 'I' for Inactive)
REMARK    1  A    between atoms: C1_2  and  C10_15
REMARK    2  A    between atoms: N1_3  and  C2_4
REMARK    3  A    between atoms: C13_18  and  O4_19
REMARK                            x       y       z     vdW  Elec       q    Type
REMARK                         _______ _______ _______ _____ _____    ______ ____
ROOT
ATOM      1  O1  UNL     1      21.312   4.350  30.913  0.00  0.00    -0.270 OA
ATOM      2  C1  UNL     1      22.083   3.473  31.393  0.00  0.00    +0.248 C 
ATOM      3  N1  UNL     1      22.835   3.764  32.584  0.00  0.00    -0.280 N 
ATOM      4  H1  UNL     1      23.722   3.239  32.747  0.00  0.00    +0.155 HD
ENDROOT
BRANCH   3   5
ATOM      5  C2  UNL     1      22.483   4.817  33.499  0.00  0.00    +0.051 A 
ATOM      6  C3  UNL     1      21.218   4.828  34.117  0.00  0.00    +0.073 A 
ATOM      7  C4  UNL     1      20.890   5.830  35.033  0.00  0.00    +0.164 A 
ATOM      8  C5  UNL     1      21.809   6.844  35.324  0.00  0.00    +0.163 A 
ATOM      9  C6  UNL     1      23.076   6.831  34.738  0.00  0.00    +0.066 A 
ATOM     10  C7  UNL     1      23.420   5.821  33.831  0.00  0.00    +0.043 A 
ATOM     11 BR1  UNL     1      25.161   5.880  33.028  0.00  0.00    -0.048 Br
ATOM     12  O2  UNL     1      21.440   7.863  36.208  0.00  0.00    -0.485 OA
ATOM     13  C8  UNL     1      20.077   8.042  36.602  0.00  0.00    +0.270 C 
ATOM     14  C9  UNL     1      19.399   6.679  36.800  0.00  0.00    +0.270 C 
ATOM     15  O3  UNL     1      19.646   5.836  35.672  0.00  0.00    -0.485 OA
ENDBRANCH   3   5
BRANCH   2  16
ATOM     16  C10 UNL     1      22.234   2.174  30.694  0.00  0.00    +0.040 A 
ATOM     17  C11 UNL     1      21.160   1.268  30.611  0.00  0.00    +0.017 A 
ATOM     18  C12 UNL     1      21.311   0.049  29.943  0.00  0.00    +0.049 A 
ATOM     19  C13 UNL     1      22.532  -0.281  29.344  0.00  0.00    +0.152 A 
ATOM     20  C14 UNL     1      23.602   0.618  29.413  0.00  0.00    +0.165 A 
ATOM     21  F1  UNL     1      24.789   0.308  28.832  0.00  0.00    -0.202 F 
ATOM     22  C15 UNL     1      23.453   1.839  30.079  0.00  0.00    +0.055 A 
BRANCH  19  23
ATOM     23  O4  UNL     1      22.691  -1.494  28.678  0.00  0.00    -0.504 OA
ATOM     24  H10 UNL     1      23.181  -1.551  27.792  0.00  0.00    +0.292 HD
ENDBRANCH  19  23
ENDBRANCH   2  16
TORSDOF 3
ENDMDL
MODEL 6
REMARK VINA RESULT:    -5.917      4.323      8.804
REMARK INTER + INTRA:          -7.224
REMARK INTER:                  -6.762
REMARK INTRA:                  -0.462
REMARK UNBOUND:                -0.442
REMARK  Name = /home/qwerty/github/datacon2025hack/step_04_hit_selection/docking/ligands/lig_406.pdb
REMARK  3 active torsions:
REMARK  status: ('A' for Active; 'I' for Inactive)
REMARK    1  A    between atoms: C1_2  and  C10_15
REMARK    2  A    between atoms: N1_3  and  C2_4
REMARK    3  A    between atoms: C13_18  and  O4_19
REMARK                            x       y       z     vdW  Elec       q    Type
REMARK                         _______ _______ _______ _____ _____    ______ ____
ROOT
ATOM      1  O1  UNL     1      12.868   2.518  23.311  0.00  0.00    -0.270 OA
ATOM      2  C1  UNL     1      13.164   1.912  22.244  0.00  0.00    +0.248 C 
ATOM      3  N1  UNL     1      12.349   2.094  21.073  0.00  0.00    -0.280 N 
ATOM      4  H1  UNL     1      12.341   1.336  20.356  0.00  0.00    +0.155 HD
ENDROOT
BRANCH   3   5
ATOM      5  C2  UNL     1      11.463   3.214  20.899  0.00  0.00    +0.051 A 
ATOM      6  C3  UNL     1      10.147   3.164  21.399  0.00  0.00    +0.073 A 
ATOM      7  C4  UNL     1       9.299   4.265  21.262  0.00  0.00    +0.164 A 
ATOM      8  C5  UNL     1       9.744   5.417  20.606  0.00  0.00    +0.163 A 
ATOM      9  C6  UNL     1      11.054   5.490  20.129  0.00  0.00    +0.066 A 
ATOM     10  C7  UNL     1      11.918   4.398  20.276  0.00  0.00    +0.043 A 
ATOM     11 BR1  UNL     1      13.691   4.544  19.563  0.00  0.00    -0.048 Br
ATOM     12  O2  UNL     1       8.861   6.489  20.440  0.00  0.00    -0.485 OA
ATOM     13  C8  UNL     1       7.459   6.334  20.675  0.00  0.00    +0.270 C 
ATOM     14  C9  UNL     1       7.222   5.430  21.892  0.00  0.00    +0.270 C 
ATOM     15  O3  UNL     1       7.999   4.235  21.779  0.00  0.00    -0.485 OA
ENDBRANCH   3   5
BRANCH   2  16
ATOM     16  C10 UNL     1      14.323   0.987  22.230  0.00  0.00    +0.040 A 
ATOM     17  C11 UNL     1      14.704   0.285  23.390  0.00  0.00    +0.017 A 
ATOM     18  C12 UNL     1      15.793  -0.589  23.363  0.00  0.00    +0.049 A 
ATOM     19  C13 UNL     1      16.515  -0.782  22.180  0.00  0.00    +0.152 A 
ATOM     20  C14 UNL     1      16.139  -0.097  21.020  0.00  0.00    +0.165 A 
ATOM     21  F1  UNL     1      16.831  -0.279  19.867  0.00  0.00    -0.202 F 
ATOM     22  C15 UNL     1      15.048   0.778  21.043  0.00  0.00    +0.055 A 
BRANCH  19  23
ATOM     23  O4  UNL     1      17.603  -1.651  22.145  0.00  0.00    -0.504 OA
ATOM     24  H10 UNL     1      17.666  -2.446  22.771  0.00  0.00    +0.292 HD
ENDBRANCH  19  23
ENDBRANCH   2  16
TORSDOF 3
ENDMDL
MODEL 7
REMARK VINA RESULT:    -5.873     15.278     17.524
REMARK INTER + INTRA:          -7.174
REMARK INTER:                  -6.803
REMARK INTRA:                  -0.371
REMARK UNBOUND:                -0.442
REMARK  Name = /home/qwerty/github/datacon2025hack/step_04_hit_selection/docking/ligands/lig_406.pdb
REMARK  3 active torsions:
REMARK  status: ('A' for Active; 'I' for Inactive)
REMARK    1  A    between atoms: C1_2  and  C10_15
REMARK    2  A    between atoms: N1_3  and  C2_4
REMARK    3  A    between atoms: C13_18  and  O4_19
REMARK                            x       y       z     vdW  Elec       q    Type
REMARK                         _______ _______ _______ _____ _____    ______ ____
ROOT
ATOM      1  O1  UNL     1      21.218   4.071  30.674  0.00  0.00    -0.270 OA
ATOM      2  C1  UNL     1      21.844   3.143  31.256  0.00  0.00    +0.248 C 
ATOM      3  N1  UNL     1      22.292   3.327  32.610  0.00  0.00    -0.280 N 
ATOM      4  H1  UNL     1      23.109   2.769  32.939  0.00  0.00    +0.155 HD
ENDROOT
BRANCH   3   5
ATOM      5  C2  UNL     1      21.740   4.322  33.492  0.00  0.00    +0.051 A 
ATOM      6  C3  UNL     1      22.457   5.502  33.769  0.00  0.00    +0.073 A 
ATOM      7  C4  UNL     1      21.905   6.484  34.595  0.00  0.00    +0.164 A 
ATOM      8  C5  UNL     1      20.646   6.290  35.172  0.00  0.00    +0.163 A 
ATOM      9  C6  UNL     1      19.914   5.136  34.886  0.00  0.00    +0.066 A 
ATOM     10  C7  UNL     1      20.451   4.153  34.045  0.00  0.00    +0.043 A 
ATOM     11 BR1  UNL     1      19.415   2.572  33.722  0.00  0.00    -0.048 Br
ATOM     12  O2  UNL     1      20.135   7.265  36.034  0.00  0.00    -0.485 OA
ATOM     13  C8  UNL     1      20.969   8.308  36.546  0.00  0.00    +0.270 C 
ATOM     14  C9  UNL     1      21.943   8.789  35.462  0.00  0.00    +0.270 C 
ATOM     15  O3  UNL     1      22.597   7.672  34.855  0.00  0.00    -0.485 OA
ENDBRANCH   3   5
BRANCH   2  16
ATOM     16  C10 UNL     1      22.146   1.893  30.516  0.00  0.00    +0.040 A 
ATOM     17  C11 UNL     1      21.138   0.948  30.248  0.00  0.00    +0.017 A 
ATOM     18  C12 UNL     1      21.433  -0.222  29.544  0.00  0.00    +0.049 A 
ATOM     19  C13 UNL     1      22.736  -0.465  29.092  0.00  0.00    +0.152 A 
ATOM     20  C14 UNL     1      23.742   0.472  29.346  0.00  0.00    +0.165 A 
ATOM     21  F1  UNL     1      25.007   0.247  28.910  0.00  0.00    -0.202 F 
ATOM     22  C15 UNL     1      23.450   1.646  30.049  0.00  0.00    +0.055 A 
BRANCH  19  23
ATOM     23  O4  UNL     1      23.038  -1.630  28.391  0.00  0.00    -0.504 OA
ATOM     24  H10 UNL     1      22.336  -2.117  27.847  0.00  0.00    +0.292 HD
ENDBRANCH  19  23
ENDBRANCH   2  16
TORSDOF 3
ENDMDL
MODEL 8
REMARK VINA RESULT:    -5.742     10.886     12.363
REMARK INTER + INTRA:          -7.024
REMARK INTER:                  -6.572
REMARK INTRA:                  -0.451
REMARK UNBOUND:                -0.442
REMARK  Name = /home/qwerty/github/datacon2025hack/step_04_hit_selection/docking/ligands/lig_406.pdb
REMARK  3 active torsions:
REMARK  status: ('A' for Active; 'I' for Inactive)
REMARK    1  A    between atoms: C1_2  and  C10_15
REMARK    2  A    between atoms: N1_3  and  C2_4
REMARK    3  A    between atoms: C13_18  and  O4_19
REMARK                            x       y       z     vdW  Elec       q    Type
REMARK                         _______ _______ _______ _____ _____    ______ ____
ROOT
ATOM      1  O1  UNL     1      21.064   5.461  25.312  0.00  0.00    -0.270 OA
ATOM      2  C1  UNL     1      21.643   4.753  24.442  0.00  0.00    +0.248 C 
ATOM      3  N1  UNL     1      22.150   3.457  24.803  0.00  0.00    -0.280 N 
ATOM      4  H1  UNL     1      22.938   3.062  24.244  0.00  0.00    +0.155 HD
ENDROOT
BRANCH   3   5
ATOM      5  C2  UNL     1      21.702   2.732  25.963  0.00  0.00    +0.051 A 
ATOM      6  C3  UNL     1      22.348   2.904  27.202  0.00  0.00    +0.073 A 
ATOM      7  C4  UNL     1      21.889   2.230  28.336  0.00  0.00    +0.164 A 
ATOM      8  C5  UNL     1      20.798   1.359  28.241  0.00  0.00    +0.163 A 
ATOM      9  C6  UNL     1      20.132   1.199  27.025  0.00  0.00    +0.066 A 
ATOM     10  C7  UNL     1      20.574   1.884  25.886  0.00  0.00    +0.043 A 
ATOM     11 BR1  UNL     1      19.644   1.592  24.235  0.00  0.00    -0.048 Br
ATOM     12  O2  UNL     1      20.387   0.658  29.380  0.00  0.00    -0.485 OA
ATOM     13  C8  UNL     1      21.208   0.601  30.549  0.00  0.00    +0.270 C 
ATOM     14  C9  UNL     1      21.892   1.955  30.783  0.00  0.00    +0.270 C 
ATOM     15  O3  UNL     1      22.507   2.414  29.577  0.00  0.00    -0.485 OA
ENDBRANCH   3   5
BRANCH   2  16
ATOM     16  C10 UNL     1      21.830   5.290  23.072  0.00  0.00    +0.040 A 
ATOM     17  C11 UNL     1      21.059   4.813  21.995  0.00  0.00    +0.017 A 
ATOM     18  C12 UNL     1      21.240   5.332  20.711  0.00  0.00    +0.049 A 
ATOM     19  C13 UNL     1      22.186   6.338  20.481  0.00  0.00    +0.152 A 
ATOM     20  C14 UNL     1      22.950   6.825  21.547  0.00  0.00    +0.165 A 
ATOM     21  F1  UNL     1      23.867   7.802  21.335  0.00  0.00    -0.202 F 
ATOM     22  C15 UNL     1      22.771   6.309  22.835  0.00  0.00    +0.055 A 
BRANCH  19  23
ATOM     23  O4  UNL     1      22.372   6.860  19.203  0.00  0.00    -0.504 OA
ATOM     24  H10 UNL     1      22.910   6.364  18.502  0.00  0.00    +0.292 HD
ENDBRANCH  19  23
ENDBRANCH   2  16
TORSDOF 3
ENDMDL
MODEL 9
REMARK VINA RESULT:    -5.738      2.767      7.827
REMARK INTER + INTRA:          -7.019
REMARK INTER:                  -6.565
REMARK INTRA:                  -0.453
REMARK UNBOUND:                -0.442
REMARK  Name = /home/qwerty/github/datacon2025hack/step_04_hit_selection/docking/ligands/lig_406.pdb
REMARK  3 active torsions:
REMARK  status: ('A' for Active; 'I' for Inactive)
REMARK    1  A    between atoms: C1_2  and  C10_15
REMARK    2  A    between atoms: N1_3  and  C2_4
REMARK    3  A    between atoms: C13_18  and  O4_19
REMARK                            x       y       z     vdW  Elec       q    Type
REMARK                         _______ _______ _______ _____ _____    ______ ____
ROOT
ATOM      1  O1  UNL     1      12.237   4.744  22.652  0.00  0.00    -0.270 OA
ATOM      2  C1  UNL     1      12.145   4.295  21.476  0.00  0.00    +0.248 C 
ATOM      3  N1  UNL     1      11.041   4.695  20.646  0.00  0.00    -0.280 N 
ATOM      4  H1  UNL     1      10.749   4.058  19.873  0.00  0.00    +0.155 HD
ENDROOT
BRANCH   3   5
ATOM      5  C2  UNL     1      10.253   5.872  20.901  0.00  0.00    +0.051 A 
ATOM      6  C3  UNL     1      10.699   7.135  20.466  0.00  0.00    +0.073 A 
ATOM      7  C4  UNL     1       9.917   8.271  20.681  0.00  0.00    +0.164 A 
ATOM      8  C5  UNL     1       8.693   8.165  21.351  0.00  0.00    +0.163 A 
ATOM      9  C6  UNL     1       8.226   6.916  21.764  0.00  0.00    +0.066 A 
ATOM     10  C7  UNL     1       8.996   5.768  21.539  0.00  0.00    +0.043 A 
ATOM     11 BR1  UNL     1       8.320   4.087  22.166  0.00  0.00    -0.048 Br
ATOM     12  O2  UNL     1       7.949   9.324  21.596  0.00  0.00    -0.485 OA
ATOM     13  C8  UNL     1       8.526  10.621  21.427  0.00  0.00    +0.270 C 
ATOM     14  C9  UNL     1       9.441  10.638  20.194  0.00  0.00    +0.270 C 
ATOM     15  O3  UNL     1      10.339   9.526  20.230  0.00  0.00    -0.485 OA
ENDBRANCH   3   5
BRANCH   2  16
ATOM     16  C10 UNL     1      13.155   3.326  20.986  0.00  0.00    +0.040 A 
ATOM     17  C11 UNL     1      12.970   1.940  21.151  0.00  0.00    +0.017 A 
ATOM     18  C12 UNL     1      13.926   1.036  20.679  0.00  0.00    +0.049 A 
ATOM     19  C13 UNL     1      15.077   1.500  20.030  0.00  0.00    +0.152 A 
ATOM     20  C14 UNL     1      15.265   2.874  19.853  0.00  0.00    +0.165 A 
ATOM     21  F1  UNL     1      16.376   3.333  19.223  0.00  0.00    -0.202 F 
ATOM     22  C15 UNL     1      14.310   3.781  20.323  0.00  0.00    +0.055 A 
BRANCH  19  23
ATOM     23  O4  UNL     1      16.034   0.605  19.558  0.00  0.00    -0.504 OA
ATOM     24  H10 UNL     1      16.889   0.927  19.121  0.00  0.00    +0.292 HD
ENDBRANCH  19  23
ENDBRANCH   2  16
TORSDOF 3
ENDMDL
