REMARK  Name = /home/qwerty/github/datacon2025hack/step_04_hit_selection/docking/ligands/lig_110.pdb
REMARK  2 active torsions:
REMARK  status: ('A' for Active; 'I' for Inactive)
REMARK    1  A    between atoms: C1_2  and  C10_14
REMARK    2  A    between atoms: N1_3  and  C2_4
REMARK                            x       y       z     vdW  Elec       q    Type
REMARK                         _______ _______ _______ _____ _____    ______ ____
ROOT
ATOM      1  O1  UNL     1      -0.765   0.925  -1.310  0.00  0.00    -0.270 OA
ATOM      2  C1  UNL     1      -1.139   0.598  -0.150  0.00  0.00    +0.248 C 
ATOM      3  N1  UNL     1      -0.207   0.663   0.943  0.00  0.00    -0.280 N 
ATOM      4  H1  UNL     1      -0.584   0.858   1.898  0.00  0.00    +0.155 HD
ENDROOT
BRANCH   3   5
ATOM      5  C2  UNL     1       1.221   0.629   0.778  0.00  0.00    +0.052 A 
ATOM      6  C3  UNL     1       2.043   1.271   1.715  0.00  0.00    +0.134 A 
ATOM      7  N2  UNL     1       3.396   1.223   1.590  0.00  0.00    -0.258 NA
ATOM      8  C4  UNL     1       4.000   0.548   0.576  0.00  0.00    +0.049 A 
ATOM      9  C5  UNL     1       3.220  -0.105  -0.391  0.00  0.00    +0.001 A 
ATOM     10  C6  UNL     1       1.826  -0.083  -0.271  0.00  0.00    +0.032 A 
ATOM     11  C7  UNL     1       3.894  -0.908  -1.477  0.00  0.00    +0.196 C 
ATOM     12  O2  UNL     1       5.218  -0.463  -1.718  0.00  0.00    -0.375 OA
ATOM     13  C8  UNL     1       5.973  -0.518  -0.522  0.00  0.00    +0.166 C 
ATOM     14  C9  UNL     1       5.496   0.561   0.459  0.00  0.00    +0.084 C 
ENDBRANCH   3   5
BRANCH   2  15
ATOM     15  C10 UNL     1      -2.549   0.200   0.076  0.00  0.00    +0.041 A 
ATOM     16  C11 UNL     1      -2.926  -0.521   1.242  0.00  0.00    +0.017 A 
ATOM     17  C12 UNL     1      -4.264  -0.902   1.449  0.00  0.00    +0.050 A 
ATOM     18  C13 UNL     1      -5.197  -0.558   0.478  0.00  0.00    +0.166 A 
ATOM     19  C14 UNL     1      -4.848   0.121  -0.642  0.00  0.00    +0.167 A 
ATOM     20  C15 UNL     1      -3.537   0.518  -0.888  0.00  0.00    +0.062 A 
ATOM     21  O3  UNL     1      -5.968   0.322  -1.426  0.00  0.00    -0.453 OA
ATOM     22  C16 UNL     1      -7.090  -0.269  -0.755  0.00  0.00    +0.466 C 
ATOM     23  O4  UNL     1      -6.553  -0.819   0.456  0.00  0.00    -0.453 OA
ENDBRANCH   2  15
TORSDOF 2
