REMARK  Name = /home/qwerty/github/datacon2025hack/step_04_hit_selection/docking/ligands/lig_224.pdb
REMARK  7 active torsions:
REMARK  status: ('A' for Active; 'I' for Inactive)
REMARK    1  A    between atoms: C1_1  and  O1_2
REMARK    2  A    between atoms: O1_2  and  C2_3
REMARK    3  A    between atoms: C11_12  and  C12_13
REMARK    4  A    between atoms: C12_13  and  N1_14
REMARK    5  A    between atoms: C13_15  and  C14_17
REMARK    6  A    between atoms: C17_20  and  C18_21
REMARK    7  A    between atoms: C19_24  and  C20_25
REMARK                            x       y       z     vdW  Elec       q    Type
REMARK                         _______ _______ _______ _____ _____    ______ ____
ROOT
ATOM      1  N1  UNL     1      -0.082  -0.879  -0.032  0.00  0.00    -0.311 N 
ATOM      2  C13 UNL     1       0.882  -0.487  -1.025  0.00  0.00    +0.244 C 
ATOM      3  O2  UNL     1       0.491  -0.179  -2.184  0.00  0.00    -0.270 OA
ATOM      4  H16 UNL     1       0.224  -1.072   0.948  0.00  0.00    +0.149 HD
ENDROOT
BRANCH   2   5
ATOM      5  C14 UNL     1       2.329  -0.422  -0.708  0.00  0.00    +0.037 A 
ATOM      6  C15 UNL     1       2.893  -1.228   0.296  0.00  0.00    +0.014 A 
ATOM      7  C16 UNL     1       4.261  -1.157   0.579  0.00  0.00    +0.012 A 
ATOM      8  C17 UNL     1       5.093  -0.283  -0.139  0.00  0.00    +0.021 A 
ATOM      9  C21 UNL     1       4.533   0.513  -1.151  0.00  0.00    +0.012 A 
ATOM     10  C22 UNL     1       3.166   0.441  -1.435  0.00  0.00    +0.014 A 
BRANCH   8  11
ATOM     11  C18 UNL     1       6.539  -0.207   0.161  0.00  0.00    +0.181 A 
ATOM     12  N2  UNL     1       7.146  -0.939   1.119  0.00  0.00    -0.152 NA
ATOM     13  N3  UNL     1       8.419  -0.592   1.087  0.00  0.00    -0.262 N 
ATOM     14  C19 UNL     1       8.568   0.325   0.119  0.00  0.00    +0.122 A 
ATOM     15  C20 UNL     1       9.855   1.015  -0.189  0.00  0.00    +0.087 C 
ATOM     16  N4  UNL     1       7.400   0.610  -0.487  0.00  0.00    -0.212 NA
ATOM     17  H19 UNL     1       9.158  -0.973   1.719  0.00  0.00    +0.190 HD
ENDBRANCH   8  11
ENDBRANCH   2   5
BRANCH   1  18
ATOM     18  C12 UNL     1      -1.508  -1.010  -0.331  0.00  0.00    +0.112 C 
BRANCH  18  28
ATOM     19  C2  UNL     1      -6.325  -0.289  -1.595  0.00  0.00    +0.120 A 
ATOM     20  C3  UNL     1      -5.289  -0.435  -2.519  0.00  0.00    +0.046 A 
ATOM     21  C4  UNL     1      -3.966  -0.197  -2.145  0.00  0.00    +0.008 A 
ATOM     22  C5  UNL     1      -3.650   0.192  -0.833  0.00  0.00    -0.039 A 
ATOM     23  C6  UNL     1      -4.694   0.336   0.115  0.00  0.00    -0.040 A 
ATOM     24  C7  UNL     1      -6.022   0.105  -0.279  0.00  0.00    +0.049 A 
ATOM     25  C8  UNL     1      -4.437   0.862   1.508  0.00  0.00    +0.035 C 
ATOM     26  C9  UNL     1      -2.975   0.734   1.941  0.00  0.00    +0.005 C 
ATOM     27  C10 UNL     1      -2.040   1.219   0.832  0.00  0.00    +0.010 C 
ATOM     28  C11 UNL     1      -2.192   0.372  -0.450  0.00  0.00    +0.036 C 
BRANCH  19  30
ATOM     29  C1  UNL     1      -8.790  -0.429  -1.193  0.00  0.00    +0.277 C 
ATOM     30  O1  UNL     1      -7.638  -0.538  -2.023  0.00  0.00    -0.495 OA
ENDBRANCH  19  30
ENDBRANCH  18  28
ENDBRANCH   1  18
TORSDOF 5
