REMARK  Name = /home/qwerty/github/datacon2025hack/step_04_hit_selection/docking/ligands/lig_545.pdb
REMARK  4 active torsions:
REMARK  status: ('A' for Active; 'I' for Inactive)
REMARK    1  A    between atoms: C1_1  and  C2_2
REMARK    2  A    between atoms: C6_6  and  C7_7
REMARK    3  A    between atoms: N1_9  and  C8_10
REMARK    4  A    between atoms: C10_13  and  C11_14
REMARK                            x       y       z     vdW  Elec       q    Type
REMARK                         _______ _______ _______ _____ _____    ______ ____
ROOT
ATOM      1  C7  UNL     1      -0.323   0.323   0.182  0.00  0.00    +0.249 C 
ATOM      2  O1  UNL     1       0.009   1.536   0.283  0.00  0.00    -0.270 OA
ATOM      3  N1  UNL     1       0.661  -0.708   0.376  0.00  0.00    -0.275 N 
ATOM      4  H7  UNL     1       0.337  -1.664   0.641  0.00  0.00    +0.156 HD
ENDROOT
BRANCH   1  10
ATOM      5  C1  UNL     1      -5.183   1.590   0.239  0.00  0.00    +0.044 C 
ATOM      6  C2  UNL     1      -4.101   0.607  -0.097  0.00  0.00    -0.050 A 
ATOM      7  C3  UNL     1      -4.429  -0.652  -0.621  0.00  0.00    +0.003 A 
ATOM      8  C4  UNL     1      -3.425  -1.579  -0.903  0.00  0.00    +0.001 A 
ATOM      9  C5  UNL     1      -2.087  -1.266  -0.648  0.00  0.00    +0.013 A 
ATOM     10  C6  UNL     1      -1.739  -0.020  -0.095  0.00  0.00    +0.037 A 
ATOM     11  C12 UNL     1      -2.758   0.913   0.175  0.00  0.00    +0.016 A 
ENDBRANCH   1  10
BRANCH   3  12
ATOM     12  C8  UNL     1       2.077  -0.493   0.284  0.00  0.00    +0.092 A 
ATOM     13  C9  UNL     1       3.040  -1.435   0.623  0.00  0.00    +0.143 A 
ATOM     14  N2  UNL     1       4.322  -1.034   0.413  0.00  0.00    -0.241 NA
ATOM     15  C10 UNL     1       4.387   0.217  -0.100  0.00  0.00    +0.164 A 
ATOM     16  S1  UNL     1       2.851   0.878  -0.317  0.00  0.00    -0.048 S 
BRANCH  15  17
ATOM     17  C11 UNL     1       5.647   0.898  -0.427  0.00  0.00    +0.267 C 
ATOM     18  N3  UNL     1       6.903   0.253  -0.210  0.00  0.00    -0.324 N 
ATOM     19  O2  UNL     1       5.623   2.063  -0.905  0.00  0.00    -0.268 OA
ATOM     20  H9  UNL     1       6.953  -0.713   0.184  0.00  0.00    +0.145 HD
ATOM     21  H10 UNL     1       7.793   0.745  -0.446  0.00  0.00    +0.145 HD
ENDBRANCH  15  17
ENDBRANCH   3  12
TORSDOF 3
