MODEL 1
REMARK VINA RESULT:    -5.613      0.000      0.000
REMARK INTER + INTRA:          -7.847
REMARK INTER:                  -7.254
REMARK INTRA:                  -0.593
REMARK UNBOUND:                -0.593
REMARK  Name = /home/qwerty/github/datacon2025hack/step_04_hit_selection/docking/ligands/lig_89.pdb
REMARK  8 active torsions:
REMARK  status: ('A' for Active; 'I' for Inactive)
REMARK    1  A    between atoms: C1_1  and  O1_2
REMARK    2  A    between atoms: O1_2  and  C2_3
REMARK    3  A    between atoms: C2_3  and  C3_5
REMARK    4  A    between atoms: C6_8  and  N1_9
REMARK    5  A    between atoms: C10_15  and  C11_16
REMARK    6  A    between atoms: C13_18  and  C14_19
REMARK    7  A    between atoms: C14_19  and  O5_21
REMARK    8  A    between atoms: O5_21  and  C15_22
REMARK                            x       y       z     vdW  Elec       q    Type
REMARK                         _______ _______ _______ _____ _____    ______ ____
ROOT
ATOM      1  N1  UNL     1       9.213   9.146  25.526  0.00  0.00    -0.269 N 
ATOM      2  C7  UNL     1       8.274   9.029  24.442  0.00  0.00    +0.307 C 
ATOM      3  O3  UNL     1       7.269   9.790  24.392  0.00  0.00    -0.252 OA
ATOM      4  N2  UNL     1       8.471   8.056  23.398  0.00  0.00    -0.272 N 
ATOM      5  C8  UNL     1       9.043   6.736  23.702  0.00  0.00    +0.110 C 
ATOM      6  C9  UNL     1       8.257   5.603  23.013  0.00  0.00    +0.022 C 
ATOM      7  C10 UNL     1       7.607   6.012  21.666  0.00  0.00    -0.010 C 
ATOM      8  C11 UNL     1       7.594   4.838  20.680  0.00  0.00    +0.007 C 
ATOM      9  C12 UNL     1       8.305   7.233  21.051  0.00  0.00    +0.037 C 
ATOM     10  C13 UNL     1       8.179   8.435  22.004  0.00  0.00    +0.186 C 
ATOM     11  H6  UNL     1       9.962   8.424  25.625  0.00  0.00    +0.156 HD
ENDROOT
BRANCH   1  15
ATOM     12  C3  UNL     1       9.067  12.264  28.424  0.00  0.00    +0.059 A 
ATOM     13  C4  UNL     1       8.080  11.263  28.414  0.00  0.00    +0.017 A 
ATOM     14  C5  UNL     1       8.123  10.234  27.469  0.00  0.00    +0.024 A 
ATOM     15  C6  UNL     1       9.162  10.177  26.525  0.00  0.00    +0.035 A 
ATOM     16  C16 UNL     1      10.131  11.190  26.517  0.00  0.00    +0.024 A 
ATOM     17  C17 UNL     1      10.092  12.219  27.462  0.00  0.00    +0.017 A 
BRANCH  12  18
ATOM     18  C2  UNL     1       9.018  13.351  29.426  0.00  0.00    +0.339 C 
ATOM     19  O2  UNL     1       7.909  13.848  29.768  0.00  0.00    -0.245 OA
BRANCH  18  21
ATOM     20  C1  UNL     1      10.936  13.096  30.970  0.00  0.00    +0.280 C 
ATOM     21  O1  UNL     1      10.203  13.828  29.996  0.00  0.00    -0.464 OA
ENDBRANCH  18  21
ENDBRANCH  12  18
ENDBRANCH   1  15
BRANCH  10  22
ATOM     22  C14 UNL     1       9.091   9.544  21.559  0.00  0.00    +0.328 C 
ATOM     23  O4  UNL     1       8.606  10.592  21.049  0.00  0.00    -0.249 OA
BRANCH  22  24
ATOM     24  O5  UNL     1      10.471   9.408  21.731  0.00  0.00    -0.467 OA
ATOM     25  C15 UNL     1      11.229  10.283  22.558  0.00  0.00    +0.280 C 
ENDBRANCH  22  24
ENDBRANCH  10  22
TORSDOF 5
ENDMDL
MODEL 2
REMARK VINA RESULT:    -5.578     14.444     15.524
REMARK INTER + INTRA:          -7.801
REMARK INTER:                  -7.172
REMARK INTRA:                  -0.629
REMARK UNBOUND:                -0.593
REMARK  Name = /home/qwerty/github/datacon2025hack/step_04_hit_selection/docking/ligands/lig_89.pdb
REMARK  8 active torsions:
REMARK  status: ('A' for Active; 'I' for Inactive)
REMARK    1  A    between atoms: C1_1  and  O1_2
REMARK    2  A    between atoms: O1_2  and  C2_3
REMARK    3  A    between atoms: C2_3  and  C3_5
REMARK    4  A    between atoms: C6_8  and  N1_9
REMARK    5  A    between atoms: C10_15  and  C11_16
REMARK    6  A    between atoms: C13_18  and  C14_19
REMARK    7  A    between atoms: C14_19  and  O5_21
REMARK    8  A    between atoms: O5_21  and  C15_22
REMARK                            x       y       z     vdW  Elec       q    Type
REMARK                         _______ _______ _______ _____ _____    ______ ____
ROOT
ATOM      1  N1  UNL     1      19.075   2.349  30.249  0.00  0.00    -0.269 N 
ATOM      2  C7  UNL     1      20.449   2.663  29.960  0.00  0.00    +0.307 C 
ATOM      3  O3  UNL     1      21.304   2.673  30.889  0.00  0.00    -0.252 OA
ATOM      4  N2  UNL     1      20.871   2.956  28.614  0.00  0.00    -0.272 N 
ATOM      5  C8  UNL     1      19.992   3.697  27.698  0.00  0.00    +0.110 C 
ATOM      6  C9  UNL     1      20.758   4.799  26.940  0.00  0.00    +0.022 C 
ATOM      7  C10 UNL     1      22.251   4.469  26.682  0.00  0.00    -0.010 C 
ATOM      8  C11 UNL     1      22.723   5.054  25.345  0.00  0.00    +0.007 C 
ATOM      9  C12 UNL     1      22.512   2.957  26.737  0.00  0.00    +0.037 C 
ATOM     10  C13 UNL     1      22.160   2.422  28.137  0.00  0.00    +0.186 C 
ATOM     11  H6  UNL     1      18.360   2.475  29.498  0.00  0.00    +0.156 HD
ENDROOT
BRANCH   1  15
ATOM     12  C3  UNL     1      17.749   1.002  34.065  0.00  0.00    +0.059 A 
ATOM     13  C4  UNL     1      17.848   2.378  33.799  0.00  0.00    +0.017 A 
ATOM     14  C5  UNL     1      18.278   2.829  32.547  0.00  0.00    +0.024 A 
ATOM     15  C6  UNL     1      18.604   1.912  31.533  0.00  0.00    +0.035 A 
ATOM     16  C16 UNL     1      18.532   0.539  31.808  0.00  0.00    +0.024 A 
ATOM     17  C17 UNL     1      18.100   0.086  33.058  0.00  0.00    +0.017 A 
BRANCH  12  18
ATOM     18  C2  UNL     1      17.293   0.529  35.392  0.00  0.00    +0.339 C 
ATOM     19  O2  UNL     1      17.655   1.133  36.438  0.00  0.00    -0.245 OA
BRANCH  18  21
ATOM     20  C1  UNL     1      16.244  -1.290  36.703  0.00  0.00    +0.280 C 
ATOM     21  O1  UNL     1      16.459  -0.590  35.483  0.00  0.00    -0.464 OA
ENDBRANCH  18  21
ENDBRANCH  12  18
ENDBRANCH   1  15
BRANCH  10  22
ATOM     22  C14 UNL     1      22.133   0.920  28.124  0.00  0.00    +0.328 C 
ATOM     23  O4  UNL     1      21.324   0.311  27.369  0.00  0.00    -0.249 OA
BRANCH  22  24
ATOM     24  O5  UNL     1      23.018   0.210  28.940  0.00  0.00    -0.467 OA
ATOM     25  C15 UNL     1      24.324   0.684  29.246  0.00  0.00    +0.280 C 
ENDBRANCH  22  24
ENDBRANCH  10  22
TORSDOF 5
ENDMDL
MODEL 3
REMARK VINA RESULT:    -5.539     13.541     15.642
REMARK INTER + INTRA:          -7.751
REMARK INTER:                  -7.110
REMARK INTRA:                  -0.641
REMARK UNBOUND:                -0.593
REMARK  Name = /home/qwerty/github/datacon2025hack/step_04_hit_selection/docking/ligands/lig_89.pdb
REMARK  8 active torsions:
REMARK  status: ('A' for Active; 'I' for Inactive)
REMARK    1  A    between atoms: C1_1  and  O1_2
REMARK    2  A    between atoms: O1_2  and  C2_3
REMARK    3  A    between atoms: C2_3  and  C3_5
REMARK    4  A    between atoms: C6_8  and  N1_9
REMARK    5  A    between atoms: C10_15  and  C11_16
REMARK    6  A    between atoms: C13_18  and  C14_19
REMARK    7  A    between atoms: C14_19  and  O5_21
REMARK    8  A    between atoms: O5_21  and  C15_22
REMARK                            x       y       z     vdW  Elec       q    Type
REMARK                         _______ _______ _______ _____ _____    ______ ____
ROOT
ATOM      1  N1  UNL     1      20.397   3.823  27.791  0.00  0.00    -0.269 N 
ATOM      2  C7  UNL     1      20.304   2.423  28.108  0.00  0.00    +0.307 C 
ATOM      3  O3  UNL     1      20.458   1.558  27.202  0.00  0.00    -0.252 OA
ATOM      4  N2  UNL     1      20.048   1.987  29.457  0.00  0.00    -0.272 N 
ATOM      5  C8  UNL     1      19.150   2.753  30.334  0.00  0.00    +0.110 C 
ATOM      6  C9  UNL     1      18.169   1.834  31.087  0.00  0.00    +0.022 C 
ATOM      7  C10 UNL     1      18.730   0.421  31.390  0.00  0.00    -0.010 C 
ATOM      8  C11 UNL     1      18.195  -0.111  32.725  0.00  0.00    +0.007 C 
ATOM      9  C12 UNL     1      20.266   0.410  31.376  0.00  0.00    +0.037 C 
ATOM     10  C13 UNL     1      20.772   0.814  29.979  0.00  0.00    +0.186 C 
ATOM     11  H6  UNL     1      20.137   4.524  28.521  0.00  0.00    +0.156 HD
ENDROOT
BRANCH   1  15
ATOM     12  C3  UNL     1      21.597   5.259  23.965  0.00  0.00    +0.059 A 
ATOM     13  C4  UNL     1      20.233   5.186  24.295  0.00  0.00    +0.017 A 
ATOM     14  C5  UNL     1      19.830   4.720  25.551  0.00  0.00    +0.024 A 
ATOM     15  C6  UNL     1      20.786   4.331  26.505  0.00  0.00    +0.035 A 
ATOM     16  C16 UNL     1      22.145   4.378  26.167  0.00  0.00    +0.024 A 
ATOM     17  C17 UNL     1      22.550   4.845  24.913  0.00  0.00    +0.017 A 
BRANCH  12  18
ATOM     18  C2  UNL     1      22.019   5.753  22.636  0.00  0.00    +0.339 C 
ATOM     19  O2  UNL     1      21.477   5.299  21.590  0.00  0.00    -0.245 OA
BRANCH  18  21
ATOM     20  C1  UNL     1      23.408   7.306  21.300  0.00  0.00    +0.280 C 
ATOM     21  O1  UNL     1      23.019   6.726  22.539  0.00  0.00    -0.464 OA
ENDBRANCH  18  21
ENDBRANCH  12  18
ENDBRANCH   1  15
BRANCH  10  22
ATOM     22  C14 UNL     1      22.249   1.086  30.025  0.00  0.00    +0.328 C 
ATOM     23  O4  UNL     1      22.699   1.990  30.783  0.00  0.00    -0.249 OA
BRANCH  22  24
ATOM     24  O5  UNL     1      23.114   0.323  29.236  0.00  0.00    -0.467 OA
ATOM     25  C15 UNL     1      22.788  -0.990  28.796  0.00  0.00    +0.280 C 
ENDBRANCH  22  24
ENDBRANCH  10  22
TORSDOF 5
ENDMDL
MODEL 4
REMARK VINA RESULT:    -5.505     12.704     14.135
REMARK INTER + INTRA:          -7.707
REMARK INTER:                  -6.990
REMARK INTRA:                  -0.717
REMARK UNBOUND:                -0.593
REMARK  Name = /home/qwerty/github/datacon2025hack/step_04_hit_selection/docking/ligands/lig_89.pdb
REMARK  8 active torsions:
REMARK  status: ('A' for Active; 'I' for Inactive)
REMARK    1  A    between atoms: C1_1  and  O1_2
REMARK    2  A    between atoms: O1_2  and  C2_3
REMARK    3  A    between atoms: C2_3  and  C3_5
REMARK    4  A    between atoms: C6_8  and  N1_9
REMARK    5  A    between atoms: C10_15  and  C11_16
REMARK    6  A    between atoms: C13_18  and  C14_19
REMARK    7  A    between atoms: C14_19  and  O5_21
REMARK    8  A    between atoms: O5_21  and  C15_22
REMARK                            x       y       z     vdW  Elec       q    Type
REMARK                         _______ _______ _______ _____ _____    ______ ____
ROOT
ATOM      1  N1  UNL     1      18.815   2.026  25.490  0.00  0.00    -0.269 N 
ATOM      2  C7  UNL     1      18.567   1.023  24.488  0.00  0.00    +0.307 C 
ATOM      3  O3  UNL     1      19.336   0.028  24.386  0.00  0.00    -0.252 OA
ATOM      4  N2  UNL     1      17.437   1.132  23.601  0.00  0.00    -0.272 N 
ATOM      5  C8  UNL     1      16.997   2.445  23.107  0.00  0.00    +0.110 C 
ATOM      6  C9  UNL     1      16.708   2.416  21.593  0.00  0.00    +0.022 C 
ATOM      7  C10 UNL     1      16.207   1.046  21.070  0.00  0.00    -0.010 C 
ATOM      8  C11 UNL     1      15.204   1.225  19.923  0.00  0.00    +0.007 C 
ATOM      9  C12 UNL     1      15.599   0.200  22.198  0.00  0.00    +0.037 C 
ATOM     10  C13 UNL     1      16.670  -0.082  23.268  0.00  0.00    +0.186 C 
ATOM     11  H6  UNL     1      18.251   2.905  25.475  0.00  0.00    +0.156 HD
ENDROOT
BRANCH   1  15
ATOM     12  C3  UNL     1      21.812   1.623  28.490  0.00  0.00    +0.059 A 
ATOM     13  C4  UNL     1      22.141   2.153  27.230  0.00  0.00    +0.017 A 
ATOM     14  C5  UNL     1      21.163   2.293  26.241  0.00  0.00    +0.024 A 
ATOM     15  C6  UNL     1      19.833   1.918  26.499  0.00  0.00    +0.035 A 
ATOM     16  C16 UNL     1      19.510   1.364  27.745  0.00  0.00    +0.024 A 
ATOM     17  C17 UNL     1      20.486   1.226  28.736  0.00  0.00    +0.017 A 
BRANCH  12  18
ATOM     18  C2  UNL     1      22.851   1.478  29.534  0.00  0.00    +0.339 C 
ATOM     19  O2  UNL     1      22.599   1.801  30.727  0.00  0.00    -0.245 OA
BRANCH  18  21
ATOM     20  C1  UNL     1      24.377  -0.407  29.036  0.00  0.00    +0.280 C 
ATOM     21  O1  UNL     1      24.114   0.982  29.195  0.00  0.00    -0.464 OA
ENDBRANCH  18  21
ENDBRANCH  12  18
ENDBRANCH   1  15
BRANCH  10  22
ATOM     22  C14 UNL     1      16.030  -0.653  24.501  0.00  0.00    +0.328 C 
ATOM     23  O4  UNL     1      15.194   0.034  25.152  0.00  0.00    -0.249 OA
BRANCH  22  24
ATOM     24  O5  UNL     1      16.357  -1.949  24.907  0.00  0.00    -0.467 OA
ATOM     25  C15 UNL     1      17.229  -2.788  24.159  0.00  0.00    +0.280 C 
ENDBRANCH  22  24
ENDBRANCH  10  22
TORSDOF 5
ENDMDL
MODEL 5
REMARK VINA RESULT:    -5.476     10.835     14.213
REMARK INTER + INTRA:          -7.669
REMARK INTER:                  -7.031
REMARK INTRA:                  -0.638
REMARK UNBOUND:                -0.593
REMARK  Name = /home/qwerty/github/datacon2025hack/step_04_hit_selection/docking/ligands/lig_89.pdb
REMARK  8 active torsions:
REMARK  status: ('A' for Active; 'I' for Inactive)
REMARK    1  A    between atoms: C1_1  and  O1_2
REMARK    2  A    between atoms: O1_2  and  C2_3
REMARK    3  A    between atoms: C2_3  and  C3_5
REMARK    4  A    between atoms: C6_8  and  N1_9
REMARK    5  A    between atoms: C10_15  and  C11_16
REMARK    6  A    between atoms: C13_18  and  C14_19
REMARK    7  A    between atoms: C14_19  and  O5_21
REMARK    8  A    between atoms: O5_21  and  C15_22
REMARK                            x       y       z     vdW  Elec       q    Type
REMARK                         _______ _______ _______ _____ _____    ______ ____
ROOT
ATOM      1  N1  UNL     1      15.595  11.458  37.169  0.00  0.00    -0.269 N 
ATOM      2  C7  UNL     1      16.485  10.803  36.248  0.00  0.00    +0.307 C 
ATOM      3  O3  UNL     1      16.149  10.653  35.041  0.00  0.00    -0.252 OA
ATOM      4  N2  UNL     1      17.772  10.321  36.683  0.00  0.00    -0.272 N 
ATOM      5  C8  UNL     1      17.944   9.751  38.027  0.00  0.00    +0.110 C 
ATOM      6  C9  UNL     1      18.764   8.447  37.992  0.00  0.00    +0.022 C 
ATOM      7  C10 UNL     1      19.811   8.388  36.850  0.00  0.00    -0.010 C 
ATOM      8  C11 UNL     1      21.060   7.613  37.287  0.00  0.00    +0.007 C 
ATOM      9  C12 UNL     1      20.187   9.792  36.357  0.00  0.00    +0.037 C 
ATOM     10  C13 UNL     1      18.936  10.494  35.795  0.00  0.00    +0.186 C 
ATOM     11  H6  UNL     1      15.830  11.455  38.187  0.00  0.00    +0.156 HD
ENDROOT
BRANCH   1  15
ATOM     12  C3  UNL     1      11.977  13.348  35.955  0.00  0.00    +0.059 A 
ATOM     13  C4  UNL     1      11.976  11.989  36.315  0.00  0.00    +0.017 A 
ATOM     14  C5  UNL     1      13.159  11.362  36.718  0.00  0.00    +0.024 A 
ATOM     15  C6  UNL     1      14.362  12.086  36.784  0.00  0.00    +0.035 A 
ATOM     16  C16 UNL     1      14.368  13.434  36.400  0.00  0.00    +0.024 A 
ATOM     17  C17 UNL     1      13.187  14.064  35.998  0.00  0.00    +0.017 A 
BRANCH  12  18
ATOM     18  C2  UNL     1      10.722  14.008  35.529  0.00  0.00    +0.339 C 
ATOM     19  O2  UNL     1       9.761  14.123  36.338  0.00  0.00    -0.245 OA
BRANCH  18  21
ATOM     20  C1  UNL     1      11.262  13.909  33.115  0.00  0.00    +0.280 C 
ATOM     21  O1  UNL     1      10.604  14.505  34.227  0.00  0.00    -0.464 OA
ENDBRANCH  18  21
ENDBRANCH  12  18
ENDBRANCH   1  15
BRANCH  10  22
ATOM     22  C14 UNL     1      19.218  11.954  35.577  0.00  0.00    +0.328 C 
ATOM     23  O4  UNL     1      19.784  12.628  36.483  0.00  0.00    -0.249 OA
BRANCH  22  24
ATOM     24  O5  UNL     1      18.864  12.548  34.363  0.00  0.00    -0.467 OA
ATOM     25  C15 UNL     1      17.996  13.673  34.287  0.00  0.00    +0.280 C 
ENDBRANCH  22  24
ENDBRANCH  10  22
TORSDOF 5
ENDMDL
MODEL 6
REMARK VINA RESULT:    -5.308     14.655     17.476
REMARK INTER + INTRA:          -7.453
REMARK INTER:                  -6.813
REMARK INTRA:                  -0.641
REMARK UNBOUND:                -0.593
REMARK  Name = /home/qwerty/github/datacon2025hack/step_04_hit_selection/docking/ligands/lig_89.pdb
REMARK  8 active torsions:
REMARK  status: ('A' for Active; 'I' for Inactive)
REMARK    1  A    between atoms: C1_1  and  O1_2
REMARK    2  A    between atoms: O1_2  and  C2_3
REMARK    3  A    between atoms: C2_3  and  C3_5
REMARK    4  A    between atoms: C6_8  and  N1_9
REMARK    5  A    between atoms: C10_15  and  C11_16
REMARK    6  A    between atoms: C13_18  and  C14_19
REMARK    7  A    between atoms: C14_19  and  O5_21
REMARK    8  A    between atoms: O5_21  and  C15_22
REMARK                            x       y       z     vdW  Elec       q    Type
REMARK                         _______ _______ _______ _____ _____    ______ ____
ROOT
ATOM      1  N1  UNL     1      21.890   6.663  32.491  0.00  0.00    -0.269 N 
ATOM      2  C7  UNL     1      20.912   7.064  33.468  0.00  0.00    +0.307 C 
ATOM      3  O3  UNL     1      19.946   6.301  33.745  0.00  0.00    -0.252 OA
ATOM      4  N2  UNL     1      21.027   8.328  34.150  0.00  0.00    -0.272 N 
ATOM      5  C8  UNL     1      21.540   9.514  33.448  0.00  0.00    +0.110 C 
ATOM      6  C9  UNL     1      20.677  10.759  33.729  0.00  0.00    +0.022 C 
ATOM      7  C10 UNL     1      20.005  10.763  35.126  0.00  0.00    -0.010 C 
ATOM      8  C11 UNL     1      19.902  12.187  35.685  0.00  0.00    +0.007 C 
ATOM      9  C12 UNL     1      20.745   9.844  36.109  0.00  0.00    +0.037 C 
ATOM     10  C13 UNL     1      20.710   8.395  35.588  0.00  0.00    +0.186 C 
ATOM     11  H6  UNL     1      22.604   7.358  32.178  0.00  0.00    +0.156 HD
ENDROOT
BRANCH   1  15
ATOM     12  C3  UNL     1      21.949   2.786  30.731  0.00  0.00    +0.059 A 
ATOM     13  C4  UNL     1      21.421   3.876  30.018  0.00  0.00    +0.017 A 
ATOM     14  C5  UNL     1      21.402   5.153  30.587  0.00  0.00    +0.024 A 
ATOM     15  C6  UNL     1      21.924   5.367  31.874  0.00  0.00    +0.035 A 
ATOM     16  C16 UNL     1      22.425   4.275  32.596  0.00  0.00    +0.024 A 
ATOM     17  C17 UNL     1      22.447   2.997  32.028  0.00  0.00    +0.017 A 
BRANCH  12  18
ATOM     18  C2  UNL     1      21.968   1.436  30.124  0.00  0.00    +0.339 C 
ATOM     19  O2  UNL     1      21.213   0.530  30.572  0.00  0.00    -0.245 OA
BRANCH  18  21
ATOM     20  C1  UNL     1      24.169   0.736  29.233  0.00  0.00    +0.280 C 
ATOM     21  O1  UNL     1      22.824   1.166  29.052  0.00  0.00    -0.464 OA
ENDBRANCH  18  21
ENDBRANCH  12  18
ENDBRANCH   1  15
BRANCH  10  22
ATOM     22  C14 UNL     1      21.663   7.541  36.376  0.00  0.00    +0.328 C 
ATOM     23  O4  UNL     1      21.232   6.828  37.324  0.00  0.00    -0.249 OA
BRANCH  22  24
ATOM     24  O5  UNL     1      23.019   7.534  36.038  0.00  0.00    -0.467 OA
ATOM     25  C15 UNL     1      23.712   6.343  35.684  0.00  0.00    +0.280 C 
ENDBRANCH  22  24
ENDBRANCH  10  22
TORSDOF 5
ENDMDL
MODEL 7
REMARK VINA RESULT:    -5.306      6.803     10.796
REMARK INTER + INTRA:          -7.450
REMARK INTER:                  -6.706
REMARK INTRA:                  -0.745
REMARK UNBOUND:                -0.593
REMARK  Name = /home/qwerty/github/datacon2025hack/step_04_hit_selection/docking/ligands/lig_89.pdb
REMARK  8 active torsions:
REMARK  status: ('A' for Active; 'I' for Inactive)
REMARK    1  A    between atoms: C1_1  and  O1_2
REMARK    2  A    between atoms: O1_2  and  C2_3
REMARK    3  A    between atoms: C2_3  and  C3_5
REMARK    4  A    between atoms: C6_8  and  N1_9
REMARK    5  A    between atoms: C10_15  and  C11_16
REMARK    6  A    between atoms: C13_18  and  C14_19
REMARK    7  A    between atoms: C14_19  and  O5_21
REMARK    8  A    between atoms: O5_21  and  C15_22
REMARK                            x       y       z     vdW  Elec       q    Type
REMARK                         _______ _______ _______ _____ _____    ______ ____
ROOT
ATOM      1  N1  UNL     1      13.578   4.588  21.364  0.00  0.00    -0.269 N 
ATOM      2  C7  UNL     1      12.640   5.127  20.415  0.00  0.00    +0.307 C 
ATOM      3  O3  UNL     1      12.480   4.568  19.296  0.00  0.00    -0.252 OA
ATOM      4  N2  UNL     1      11.865   6.300  20.732  0.00  0.00    -0.272 N 
ATOM      5  C8  UNL     1      12.447   7.391  21.528  0.00  0.00    +0.110 C 
ATOM      6  C9  UNL     1      12.135   8.771  20.917  0.00  0.00    +0.022 C 
ATOM      7  C10 UNL     1      10.787   8.836  20.154  0.00  0.00    -0.010 C 
ATOM      8  C11 UNL     1      10.136  10.217  20.300  0.00  0.00    +0.007 C 
ATOM      9  C12 UNL     1       9.826   7.730  20.613  0.00  0.00    +0.037 C 
ATOM     10  C13 UNL     1      10.449   6.352  20.325  0.00  0.00    +0.186 C 
ATOM     11  H6  UNL     1      13.795   5.135  22.226  0.00  0.00    +0.156 HD
ENDROOT
BRANCH   1  15
ATOM     12  C3  UNL     1      15.596   0.883  20.778  0.00  0.00    +0.059 A 
ATOM     13  C4  UNL     1      16.206   2.088  20.387  0.00  0.00    +0.017 A 
ATOM     14  C5  UNL     1      15.552   3.309  20.580  0.00  0.00    +0.024 A 
ATOM     15  C6  UNL     1      14.282   3.349  21.180  0.00  0.00    +0.035 A 
ATOM     16  C16 UNL     1      13.662   2.146  21.545  0.00  0.00    +0.024 A 
ATOM     17  C17 UNL     1      14.314   0.924  21.355  0.00  0.00    +0.017 A 
BRANCH  12  18
ATOM     18  C2  UNL     1      16.292  -0.407  20.572  0.00  0.00    +0.339 C 
ATOM     19  O2  UNL     1      16.690  -0.735  19.421  0.00  0.00    -0.245 OA
BRANCH  18  21
ATOM     20  C1  UNL     1      17.261  -0.876  22.801  0.00  0.00    +0.280 C 
ATOM     21  O1  UNL     1      16.508  -1.262  21.657  0.00  0.00    -0.464 OA
ENDBRANCH  18  21
ENDBRANCH  12  18
ENDBRANCH   1  15
BRANCH  10  22
ATOM     22  C14 UNL     1       9.664   5.275  21.021  0.00  0.00    +0.328 C 
ATOM     23  O4  UNL     1       9.034   4.418  20.342  0.00  0.00    -0.249 OA
BRANCH  22  24
ATOM     24  O5  UNL     1       9.653   5.227  22.417  0.00  0.00    -0.467 OA
ATOM     25  C15 UNL     1      10.277   4.179  23.151  0.00  0.00    +0.280 C 
ENDBRANCH  22  24
ENDBRANCH  10  22
TORSDOF 5
ENDMDL
MODEL 8
REMARK VINA RESULT:    -5.188     11.740     14.639
REMARK INTER + INTRA:          -7.297
REMARK INTER:                  -6.619
REMARK INTRA:                  -0.678
REMARK UNBOUND:                -0.593
REMARK  Name = /home/qwerty/github/datacon2025hack/step_04_hit_selection/docking/ligands/lig_89.pdb
REMARK  8 active torsions:
REMARK  status: ('A' for Active; 'I' for Inactive)
REMARK    1  A    between atoms: C1_1  and  O1_2
REMARK    2  A    between atoms: O1_2  and  C2_3
REMARK    3  A    between atoms: C2_3  and  C3_5
REMARK    4  A    between atoms: C6_8  and  N1_9
REMARK    5  A    between atoms: C10_15  and  C11_16
REMARK    6  A    between atoms: C13_18  and  C14_19
REMARK    7  A    between atoms: C14_19  and  O5_21
REMARK    8  A    between atoms: O5_21  and  C15_22
REMARK                            x       y       z     vdW  Elec       q    Type
REMARK                         _______ _______ _______ _____ _____    ______ ____
ROOT
ATOM      1  N1  UNL     1      18.280   1.586  25.165  0.00  0.00    -0.269 N 
ATOM      2  C7  UNL     1      19.715   1.479  25.133  0.00  0.00    +0.307 C 
ATOM      3  O3  UNL     1      20.301   1.139  24.068  0.00  0.00    -0.252 OA
ATOM      4  N2  UNL     1      20.502   1.769  26.305  0.00  0.00    -0.272 N 
ATOM      5  C8  UNL     1      20.009   1.416  27.645  0.00  0.00    +0.110 C 
ATOM      6  C9  UNL     1      21.105   0.746  28.497  0.00  0.00    +0.022 C 
ATOM      7  C10 UNL     1      22.543   1.221  28.165  0.00  0.00    -0.010 C 
ATOM      8  C11 UNL     1      23.421   1.242  29.422  0.00  0.00    +0.007 C 
ATOM      9  C12 UNL     1      22.539   2.596  27.481  0.00  0.00    +0.037 C 
ATOM     10  C13 UNL     1      21.767   2.509  26.151  0.00  0.00    +0.186 C 
ATOM     11  H6  UNL     1      17.806   1.738  26.083  0.00  0.00    +0.156 HD
ENDROOT
BRANCH   1  15
ATOM     12  C3  UNL     1      15.722   1.167  21.786  0.00  0.00    +0.059 A 
ATOM     13  C4  UNL     1      16.465   2.347  21.966  0.00  0.00    +0.017 A 
ATOM     14  C5  UNL     1      17.310   2.491  23.070  0.00  0.00    +0.024 A 
ATOM     15  C6  UNL     1      17.440   1.452  24.008  0.00  0.00    +0.035 A 
ATOM     16  C16 UNL     1      16.679   0.287  23.843  0.00  0.00    +0.024 A 
ATOM     17  C17 UNL     1      15.834   0.139  22.739  0.00  0.00    +0.017 A 
BRANCH  12  18
ATOM     18  C2  UNL     1      14.829   1.019  20.615  0.00  0.00    +0.339 C 
ATOM     19  O2  UNL     1      15.292   0.618  19.512  0.00  0.00    -0.245 OA
BRANCH  18  21
ATOM     20  C1  UNL     1      12.970   2.653  20.645  0.00  0.00    +0.280 C 
ATOM     21  O1  UNL     1      13.469   1.324  20.733  0.00  0.00    -0.464 OA
ENDBRANCH  18  21
ENDBRANCH  12  18
ENDBRANCH   1  15
BRANCH  10  22
ATOM     22  C14 UNL     1      21.507   3.888  25.615  0.00  0.00    +0.328 C 
ATOM     23  O4  UNL     1      21.043   4.782  26.376  0.00  0.00    -0.249 OA
BRANCH  22  24
ATOM     24  O5  UNL     1      21.796   4.171  24.278  0.00  0.00    -0.467 OA
ATOM     25  C15 UNL     1      20.804   4.606  23.356  0.00  0.00    +0.280 C 
ENDBRANCH  22  24
ENDBRANCH  10  22
TORSDOF 5
ENDMDL
MODEL 9
REMARK VINA RESULT:    -5.165     11.160     12.887
REMARK INTER + INTRA:          -7.268
REMARK INTER:                  -6.664
REMARK INTRA:                  -0.604
REMARK UNBOUND:                -0.593
REMARK  Name = /home/qwerty/github/datacon2025hack/step_04_hit_selection/docking/ligands/lig_89.pdb
REMARK  8 active torsions:
REMARK  status: ('A' for Active; 'I' for Inactive)
REMARK    1  A    between atoms: C1_1  and  O1_2
REMARK    2  A    between atoms: O1_2  and  C2_3
REMARK    3  A    between atoms: C2_3  and  C3_5
REMARK    4  A    between atoms: C6_8  and  N1_9
REMARK    5  A    between atoms: C10_15  and  C11_16
REMARK    6  A    between atoms: C13_18  and  C14_19
REMARK    7  A    between atoms: C14_19  and  O5_21
REMARK    8  A    between atoms: O5_21  and  C15_22
REMARK                            x       y       z     vdW  Elec       q    Type
REMARK                         _______ _______ _______ _____ _____    ______ ____
ROOT
ATOM      1  N1  UNL     1      16.564   0.331  25.629  0.00  0.00    -0.269 N 
ATOM      2  C7  UNL     1      15.926   1.146  24.629  0.00  0.00    +0.307 C 
ATOM      3  O3  UNL     1      16.462   2.226  24.257  0.00  0.00    -0.252 OA
ATOM      4  N2  UNL     1      14.680   0.738  24.031  0.00  0.00    -0.272 N 
ATOM      5  C8  UNL     1      13.659   0.043  24.828  0.00  0.00    +0.110 C 
ATOM      6  C9  UNL     1      12.252   0.619  24.578  0.00  0.00    +0.022 C 
ATOM      7  C10 UNL     1      12.044   1.187  23.151  0.00  0.00    -0.010 C 
ATOM      8  C11 UNL     1      10.604   0.967  22.673  0.00  0.00    +0.007 C 
ATOM      9  C12 UNL     1      13.046   0.586  22.154  0.00  0.00    +0.037 C 
ATOM     10  C13 UNL     1      14.481   0.943  22.585  0.00  0.00    +0.186 C 
ATOM     11  H6  UNL     1      16.045  -0.486  26.021  0.00  0.00    +0.156 HD
ENDROOT
BRANCH   1  15
ATOM     12  C3  UNL     1      20.451   1.167  27.158  0.00  0.00    +0.059 A 
ATOM     13  C4  UNL     1      19.313   1.443  27.935  0.00  0.00    +0.017 A 
ATOM     14  C5  UNL     1      18.034   1.168  27.443  0.00  0.00    +0.024 A 
ATOM     15  C6  UNL     1      17.869   0.598  26.169  0.00  0.00    +0.035 A 
ATOM     16  C16 UNL     1      19.002   0.347  25.382  0.00  0.00    +0.024 A 
ATOM     17  C17 UNL     1      20.281   0.620  25.873  0.00  0.00    +0.017 A 
BRANCH  12  18
ATOM     18  C2  UNL     1      21.803   1.459  27.683  0.00  0.00    +0.339 C 
ATOM     19  O2  UNL     1      22.471   2.420  27.212  0.00  0.00    -0.245 OA
BRANCH  18  21
ATOM     20  C1  UNL     1      23.551   0.996  29.374  0.00  0.00    +0.280 C 
ATOM     21  O1  UNL     1      22.340   0.667  28.704  0.00  0.00    -0.464 OA
ENDBRANCH  18  21
ENDBRANCH  12  18
ENDBRANCH   1  15
BRANCH  10  22
ATOM     22  C14 UNL     1      15.472   0.133  21.798  0.00  0.00    +0.328 C 
ATOM     23  O4  UNL     1      16.093   0.661  20.834  0.00  0.00    -0.249 OA
BRANCH  22  24
ATOM     24  O5  UNL     1      15.708  -1.198  22.154  0.00  0.00    -0.467 OA
ATOM     25  C15 UNL     1      16.990  -1.667  22.553  0.00  0.00    +0.280 C 
ENDBRANCH  22  24
ENDBRANCH  10  22
TORSDOF 5
ENDMDL
