REMARK  Name = /home/qwerty/github/datacon2025hack/step_04_hit_selection/docking/ligands/lig_245.pdb
REMARK  7 active torsions:
REMARK  status: ('A' for Active; 'I' for Inactive)
REMARK    1  A    between atoms: C1_1  and  C2_2
REMARK    2  A    between atoms: C2_2  and  C3_3
REMARK    3  A    between atoms: C3_3  and  C4_4
REMARK    4  A    between atoms: C3_3  and  C5_5
REMARK    5  A    between atoms: C9_12  and  C10_13
REMARK    6  A    between atoms: N7_23  and  C15_24
REMARK    7  A    between atoms: C15_24  and  C16_25
REMARK                            x       y       z     vdW  Elec       q    Type
REMARK                         _______ _______ _______ _____ _____    ______ ____
ROOT
ATOM      1  C5  UNL     1      -2.803  -0.201   1.355  0.00  0.00    +0.138 A 
ATOM      2  N1  UNL     1      -2.143  -0.161   2.532  0.00  0.00    -0.132 NA
ATOM      3  N2  UNL     1      -0.862  -0.373   2.274  0.00  0.00    -0.113 NA
ATOM      4  C6  UNL     1      -0.755  -0.528   0.941  0.00  0.00    +0.220 A 
ATOM      5  N3  UNL     1       0.499  -0.755   0.278  0.00  0.00    -0.300 N 
ATOM      6  C7  UNL     1       1.471  -1.661   0.904  0.00  0.00    +0.108 C 
ATOM      7  C8  UNL     1       2.529  -2.100  -0.114  0.00  0.00    +0.032 C 
ATOM      8  C9  UNL     1       3.250  -0.897  -0.779  0.00  0.00    +0.078 C 
ATOM      9  C13 UNL     1       2.415   0.404  -0.756  0.00  0.00    +0.032 C 
ATOM     10  C14 UNL     1       0.913   0.116  -0.834  0.00  0.00    +0.108 C 
ATOM     11  N7  UNL     1      -1.955  -0.436   0.326  0.00  0.00    -0.299 N 
ENDROOT
BRANCH   8  12
ATOM     12  C10 UNL     1       4.601  -0.647  -0.153  0.00  0.00    +0.222 C 
ATOM     13  O1  UNL     1       4.702  -0.588   1.104  0.00  0.00    -0.275 OA
ATOM     14  N4  UNL     1       5.750  -0.425  -0.987  0.00  0.00    -0.263 N 
ATOM     15  C11 UNL     1       7.065  -0.160  -0.481  0.00  0.00    +0.187 A 
ATOM     16  N5  UNL     1       7.377  -0.083   0.831  0.00  0.00    -0.126 NA
ATOM     17  N6  UNL     1       8.666   0.176   1.045  0.00  0.00    -0.148 NA
ATOM     18  C12 UNL     1       9.389   0.306  -0.090  0.00  0.00    +0.183 A 
ATOM     19  S1  UNL     1       8.416   0.097  -1.450  0.00  0.00    -0.039 S 
ATOM     20  H15 UNL     1       5.630  -0.457  -2.024  0.00  0.00    +0.157 HD
ENDBRANCH   8  12
BRANCH   1  21
ATOM     21  C3  UNL     1      -4.289   0.055   1.228  0.00  0.00    +0.054 C 
ATOM     22  C4  UNL     1      -5.072  -0.657   2.339  0.00  0.00    +0.015 C 
BRANCH  21  24
ATOM     23  C1  UNL     1      -4.240   2.360   2.411  0.00  0.00    +0.004 C 
ATOM     24  C2  UNL     1      -4.605   1.566   1.153  0.00  0.00    +0.007 C 
ENDBRANCH  21  24
ENDBRANCH   1  21
BRANCH  11  25
ATOM     25  C15 UNL     1      -2.272  -0.657  -1.087  0.00  0.00    +0.129 C 
BRANCH  25  26
ATOM     26  C16 UNL     1      -2.477   0.685  -1.802  0.00  0.00    +0.009 C 
ATOM     27  C17 UNL     1      -2.713   0.554  -3.300  0.00  0.00    +0.005 C 
ATOM     28  C18 UNL     1      -3.861   0.942  -2.384  0.00  0.00    +0.005 C 
ENDBRANCH  25  26
ENDBRANCH  11  25
TORSDOF 5
