REMARK  Name = /home/qwerty/github/datacon2025hack/step_04_hit_selection/docking/ligands/lig_771.pdb
REMARK  8 active torsions:
REMARK  status: ('A' for Active; 'I' for Inactive)
REMARK    1  A    between atoms: C1_1  and  C2_2
REMARK    2  A    between atoms: C2_2  and  C3_3
REMARK    3  A    between atoms: C2_2  and  C4_4
REMARK    4  A    between atoms: C2_2  and  O1_5
REMARK    5  A    between atoms: O1_5  and  C5_6
REMARK    6  A    between atoms: N1_8  and  C6_9
REMARK    7  A    between atoms: N2_18  and  C14_19
REMARK    8  A    between atoms: C14_19  and  C15_20
REMARK                            x       y       z     vdW  Elec       q    Type
REMARK                         _______ _______ _______ _____ _____    ______ ____
ROOT
ATOM      1  C6  UNL     1      -2.557   1.379  -0.271  0.00  0.00    +0.040 A 
ATOM      2  C7  UNL     1      -1.683   2.469  -0.337  0.00  0.00    +0.024 A 
ATOM      3  C8  UNL     1      -0.451   2.430   0.318  0.00  0.00    +0.010 A 
ATOM      4  C9  UNL     1      -0.057   1.288   1.034  0.00  0.00    +0.008 A 
ATOM      5  C10 UNL     1      -0.908   0.156   1.052  0.00  0.00    +0.127 A 
ATOM      6  C11 UNL     1      -2.153   0.220   0.413  0.00  0.00    +0.069 A 
ATOM      7  O3  UNL     1      -0.556  -1.065   1.655  0.00  0.00    -0.490 OA
ATOM      8  C12 UNL     1       0.756  -1.462   2.061  0.00  0.00    +0.244 C 
ATOM      9  C13 UNL     1       1.819  -0.988   1.059  0.00  0.00    +0.126 C 
ATOM     10  N2  UNL     1       2.270   0.410   1.286  0.00  0.00    -0.291 NA
ATOM     11  C23 UNL     1       1.233   1.324   1.819  0.00  0.00    +0.123 C 
ENDROOT
BRANCH   1  14
ATOM     12  C5  UNL     1      -5.019   0.807  -0.510  0.00  0.00    +0.405 C 
ATOM     13  O2  UNL     1      -5.085   0.321   0.651  0.00  0.00    -0.226 OA
ATOM     14  N1  UNL     1      -3.816   1.442  -0.962  0.00  0.00    -0.251 N 
ATOM     15  H10 UNL     1      -3.887   2.056  -1.805  0.00  0.00    +0.158 HD
BRANCH  12  16
ATOM     16  O1  UNL     1      -6.129   0.778  -1.368  0.00  0.00    -0.444 OA
BRANCH  16  18
ATOM     17  C1  UNL     1      -7.268  -1.317  -0.813  0.00  0.00    +0.055 C 
ATOM     18  C2  UNL     1      -7.409   0.193  -1.083  0.00  0.00    +0.107 C 
ATOM     19  C3  UNL     1      -8.073   0.899   0.115  0.00  0.00    +0.055 C 
ATOM     20  C4  UNL     1      -8.288   0.395  -2.326  0.00  0.00    +0.055 C 
ENDBRANCH  16  18
ENDBRANCH  12  16
ENDBRANCH   1  14
BRANCH  10  21
ATOM     21  C14 UNL     1       2.905   0.974   0.075  0.00  0.00    +0.120 C 
BRANCH  21  22
ATOM     22  C15 UNL     1       4.195   0.260  -0.237  0.00  0.00    -0.030 A 
ATOM     23  C16 UNL     1       4.276  -0.625  -1.327  0.00  0.00    +0.009 A 
ATOM     24  C17 UNL     1       5.469  -1.301  -1.601  0.00  0.00    +0.050 A 
ATOM     25  C18 UNL     1       6.586  -1.099  -0.786  0.00  0.00    +0.162 A 
ATOM     26  C19 UNL     1       6.502  -0.246   0.323  0.00  0.00    +0.162 A 
ATOM     27  C20 UNL     1       5.315   0.442   0.591  0.00  0.00    +0.054 A 
ATOM     28  O4  UNL     1       7.618  -0.098   1.152  0.00  0.00    -0.485 OA
ATOM     29  C21 UNL     1       8.731  -0.991   1.059  0.00  0.00    +0.270 C 
ATOM     30  C22 UNL     1       9.007  -1.344  -0.409  0.00  0.00    +0.270 C 
ATOM     31  O5  UNL     1       7.797  -1.742  -1.059  0.00  0.00    -0.485 OA
ENDBRANCH  21  22
ENDBRANCH  10  21
TORSDOF 5
