MODEL 1
REMARK VINA RESULT:    -6.154      0.000      0.000
REMARK INTER + INTRA:          -8.048
REMARK INTER:                  -7.593
REMARK INTRA:                  -0.455
REMARK UNBOUND:                -0.455
REMARK  Name = /home/qwerty/github/datacon2025hack/step_04_hit_selection/docking/ligands/lig_105.pdb
REMARK  7 active torsions:
REMARK  status: ('A' for Active; 'I' for Inactive)
REMARK    1  A    between atoms: C1_1  and  O1_2
REMARK    2  A    between atoms: O1_2  and  C2_3
REMARK    3  A    between atoms: C4_5  and  C5_6
REMARK    4  A    between atoms: N1_8  and  C6_9
REMARK    5  A    between atoms: N2_12  and  C9_13
REMARK    6  A    between atoms: C11_15  and  C12_16
REMARK    7  A    between atoms: C16_22  and  C17_23
REMARK                            x       y       z     vdW  Elec       q    Type
REMARK                         _______ _______ _______ _____ _____    ______ ____
ROOT
ATOM      1  C5  UNL     1      22.133   4.325  32.406  0.00  0.00    +0.245 C 
ATOM      2  O2  UNL     1      22.273   5.260  31.571  0.00  0.00    -0.270 OA
ATOM      3  N1  UNL     1      22.357   4.581  33.802  0.00  0.00    -0.307 N 
ATOM      4  H5  UNL     1      22.475   3.771  34.450  0.00  0.00    +0.149 HD
ENDROOT
BRANCH   1   7
ATOM      5  C2  UNL     1      22.030   1.147  30.354  0.00  0.00    +0.215 A 
ATOM      6  C3  UNL     1      22.396   2.417  30.808  0.00  0.00    +0.080 A 
ATOM      7  C4  UNL     1      21.754   2.974  31.927  0.00  0.00    +0.043 A 
ATOM      8  C15 UNL     1      20.736   2.238  32.556  0.00  0.00    +0.036 A 
ATOM      9  C16 UNL     1      20.399   0.966  32.077  0.00  0.00    +0.043 A 
ATOM     10  C17 UNL     1      19.306   0.178  32.726  0.00  0.00    +0.066 C 
ATOM     11  N5  UNL     1      21.047   0.458  30.994  0.00  0.00    -0.218 NA
BRANCH   5  13
ATOM     12  C1  UNL     1      22.570  -0.770  28.884  0.00  0.00    +0.279 C 
ATOM     13  O1  UNL     1      22.680   0.602  29.243  0.00  0.00    -0.480 OA
ENDBRANCH   5  13
ENDBRANCH   1   7
BRANCH   3  14
ATOM     14  C6  UNL     1      22.537   5.944  34.314  0.00  0.00    +0.092 C 
ATOM     15  C7  UNL     1      23.335   5.974  35.623  0.00  0.00    +0.043 C 
ATOM     16  C8  UNL     1      22.756   7.137  36.419  0.00  0.00    +0.108 C 
ATOM     17  N2  UNL     1      21.439   7.380  35.852  0.00  0.00    -0.313 N 
ATOM     18  C14 UNL     1      21.199   6.601  34.648  0.00  0.00    +0.128 C 
BRANCH  17  19
ATOM     19  C9  UNL     1      20.496   8.299  36.437  0.00  0.00    +0.125 A 
ATOM     20  C10 UNL     1      20.461   9.650  36.060  0.00  0.00    +0.066 A 
ATOM     21  C11 UNL     1      19.522  10.493  36.663  0.00  0.00    +0.043 A 
ATOM     22  C12 UNL     1      19.447  11.938  36.282  0.00  0.00    +0.066 C 
ATOM     23  N3  UNL     1      18.665   9.992  37.592  0.00  0.00    -0.240 NA
ATOM     24  C13 UNL     1      18.707   8.683  37.947  0.00  0.00    +0.223 A 
ATOM     25  N4  UNL     1      19.614   7.851  37.373  0.00  0.00    -0.221 NA
ENDBRANCH  17  19
ENDBRANCH   3  14
TORSDOF 4
ENDMDL
MODEL 2
REMARK VINA RESULT:    -6.040      1.096      2.142
REMARK INTER + INTRA:          -7.908
REMARK INTER:                  -7.443
REMARK INTRA:                  -0.465
REMARK UNBOUND:                -0.455
REMARK  Name = /home/qwerty/github/datacon2025hack/step_04_hit_selection/docking/ligands/lig_105.pdb
REMARK  7 active torsions:
REMARK  status: ('A' for Active; 'I' for Inactive)
REMARK    1  A    between atoms: C1_1  and  O1_2
REMARK    2  A    between atoms: O1_2  and  C2_3
REMARK    3  A    between atoms: C4_5  and  C5_6
REMARK    4  A    between atoms: N1_8  and  C6_9
REMARK    5  A    between atoms: N2_12  and  C9_13
REMARK    6  A    between atoms: C11_15  and  C12_16
REMARK    7  A    between atoms: C16_22  and  C17_23
REMARK                            x       y       z     vdW  Elec       q    Type
REMARK                         _______ _______ _______ _____ _____    ______ ____
ROOT
ATOM      1  C5  UNL     1      22.056   4.256  32.386  0.00  0.00    +0.245 C 
ATOM      2  O2  UNL     1      22.241   5.173  31.540  0.00  0.00    -0.270 OA
ATOM      3  N1  UNL     1      22.270   4.524  33.781  0.00  0.00    -0.307 N 
ATOM      4  H5  UNL     1      22.351   3.720  34.443  0.00  0.00    +0.149 HD
ENDROOT
BRANCH   1   7
ATOM      5  C2  UNL     1      20.326   0.894  32.234  0.00  0.00    +0.215 A 
ATOM      6  C3  UNL     1      20.712   2.164  32.670  0.00  0.00    +0.080 A 
ATOM      7  C4  UNL     1      21.636   2.912  31.921  0.00  0.00    +0.043 A 
ATOM      8  C15 UNL     1      22.168   2.350  30.749  0.00  0.00    +0.036 A 
ATOM      9  C16 UNL     1      21.753   1.076  30.338  0.00  0.00    +0.043 A 
ATOM     10  C17 UNL     1      22.323   0.457  29.102  0.00  0.00    +0.066 C 
ATOM     11  N5  UNL     1      20.853   0.384  31.087  0.00  0.00    -0.218 NA
BRANCH   5  13
ATOM     12  C1  UNL     1      18.020   0.496  33.041  0.00  0.00    +0.279 C 
ATOM     13  O1  UNL     1      19.401   0.162  32.984  0.00  0.00    -0.480 OA
ENDBRANCH   5  13
ENDBRANCH   1   7
BRANCH   3  14
ATOM     14  C6  UNL     1      22.491   5.887  34.276  0.00  0.00    +0.092 C 
ATOM     15  C7  UNL     1      23.306   5.910  35.575  0.00  0.00    +0.043 C 
ATOM     16  C8  UNL     1      22.767   7.096  36.366  0.00  0.00    +0.108 C 
ATOM     17  N2  UNL     1      21.450   7.367  35.813  0.00  0.00    -0.313 N 
ATOM     18  C14 UNL     1      21.175   6.582  34.620  0.00  0.00    +0.128 C 
BRANCH  17  19
ATOM     19  C9  UNL     1      20.538   8.315  36.400  0.00  0.00    +0.125 A 
ATOM     20  C10 UNL     1      20.522   9.660  35.997  0.00  0.00    +0.066 A 
ATOM     21  C11 UNL     1      19.613  10.533  36.604  0.00  0.00    +0.043 A 
ATOM     22  C12 UNL     1      19.559  11.972  36.197  0.00  0.00    +0.066 C 
ATOM     23  N3  UNL     1      18.766  10.067  37.560  0.00  0.00    -0.240 NA
ATOM     24  C13 UNL     1      18.790   8.764  37.939  0.00  0.00    +0.223 A 
ATOM     25  N4  UNL     1      19.668   7.903  37.362  0.00  0.00    -0.221 NA
ENDBRANCH  17  19
ENDBRANCH   3  14
TORSDOF 4
ENDMDL
MODEL 3
REMARK VINA RESULT:    -6.001      3.133      5.074
REMARK INTER + INTRA:          -7.859
REMARK INTER:                  -7.407
REMARK INTRA:                  -0.452
REMARK UNBOUND:                -0.455
REMARK  Name = /home/qwerty/github/datacon2025hack/step_04_hit_selection/docking/ligands/lig_105.pdb
REMARK  7 active torsions:
REMARK  status: ('A' for Active; 'I' for Inactive)
REMARK    1  A    between atoms: C1_1  and  O1_2
REMARK    2  A    between atoms: O1_2  and  C2_3
REMARK    3  A    between atoms: C4_5  and  C5_6
REMARK    4  A    between atoms: N1_8  and  C6_9
REMARK    5  A    between atoms: N2_12  and  C9_13
REMARK    6  A    between atoms: C11_15  and  C12_16
REMARK    7  A    between atoms: C16_22  and  C17_23
REMARK                            x       y       z     vdW  Elec       q    Type
REMARK                         _______ _______ _______ _____ _____    ______ ____
ROOT
ATOM      1  C5  UNL     1      22.163   1.856  29.251  0.00  0.00    +0.245 C 
ATOM      2  O2  UNL     1      22.919   0.921  29.632  0.00  0.00    -0.270 OA
ATOM      3  N1  UNL     1      21.619   2.768  30.219  0.00  0.00    -0.307 N 
ATOM      4  H5  UNL     1      20.819   3.380  29.941  0.00  0.00    +0.149 HD
ENDROOT
BRANCH   1   7
ATOM      5  C2  UNL     1      22.169   3.083  25.671  0.00  0.00    +0.215 A 
ATOM      6  C3  UNL     1      22.485   2.956  27.026  0.00  0.00    +0.080 A 
ATOM      7  C4  UNL     1      21.838   1.986  27.810  0.00  0.00    +0.043 A 
ATOM      8  C15 UNL     1      20.865   1.171  27.208  0.00  0.00    +0.036 A 
ATOM      9  C16 UNL     1      20.578   1.321  25.845  0.00  0.00    +0.043 A 
ATOM     10  C17 UNL     1      19.533   0.472  25.194  0.00  0.00    +0.066 C 
ATOM     11  N5  UNL     1      21.229   2.268  25.118  0.00  0.00    -0.218 NA
BRANCH   5  13
ATOM     12  C1  UNL     1      22.256   5.320  24.615  0.00  0.00    +0.279 C 
ATOM     13  O1  UNL     1      22.824   4.047  24.900  0.00  0.00    -0.480 OA
ENDBRANCH   5  13
ENDBRANCH   1   7
BRANCH   3  14
ATOM     14  C6  UNL     1      22.082   2.777  31.611  0.00  0.00    +0.092 C 
ATOM     15  C7  UNL     1      21.040   2.200  32.576  0.00  0.00    +0.043 C 
ATOM     16  C8  UNL     1      21.212   2.985  33.870  0.00  0.00    +0.108 C 
ATOM     17  N2  UNL     1      21.898   4.211  33.493  0.00  0.00    -0.313 N 
ATOM     18  C14 UNL     1      22.342   4.198  32.108  0.00  0.00    +0.128 C 
BRANCH  17  19
ATOM     19  C9  UNL     1      22.103   5.304  34.410  0.00  0.00    +0.125 A 
ATOM     20  C10 UNL     1      21.047   5.824  35.175  0.00  0.00    +0.066 A 
ATOM     21  C11 UNL     1      21.308   6.885  36.048  0.00  0.00    +0.043 A 
ATOM     22  C12 UNL     1      20.212   7.463  36.886  0.00  0.00    +0.066 C 
ATOM     23  N3  UNL     1      22.569   7.385  36.143  0.00  0.00    -0.240 NA
ATOM     24  C13 UNL     1      23.582   6.872  35.399  0.00  0.00    +0.223 A 
ATOM     25  N4  UNL     1      23.345   5.844  34.545  0.00  0.00    -0.221 NA
ENDBRANCH  17  19
ENDBRANCH   3  14
TORSDOF 4
ENDMDL
MODEL 4
REMARK VINA RESULT:    -5.980      8.362     12.819
REMARK INTER + INTRA:          -7.834
REMARK INTER:                  -7.421
REMARK INTRA:                  -0.414
REMARK UNBOUND:                -0.455
REMARK  Name = /home/qwerty/github/datacon2025hack/step_04_hit_selection/docking/ligands/lig_105.pdb
REMARK  7 active torsions:
REMARK  status: ('A' for Active; 'I' for Inactive)
REMARK    1  A    between atoms: C1_1  and  O1_2
REMARK    2  A    between atoms: O1_2  and  C2_3
REMARK    3  A    between atoms: C4_5  and  C5_6
REMARK    4  A    between atoms: N1_8  and  C6_9
REMARK    5  A    between atoms: N2_12  and  C9_13
REMARK    6  A    between atoms: C11_15  and  C12_16
REMARK    7  A    between atoms: C16_22  and  C17_23
REMARK                            x       y       z     vdW  Elec       q    Type
REMARK                         _______ _______ _______ _____ _____    ______ ____
ROOT
ATOM      1  C5  UNL     1      19.161   0.783  26.626  0.00  0.00    +0.245 C 
ATOM      2  O2  UNL     1      18.207   1.061  27.404  0.00  0.00    -0.270 OA
ATOM      3  N1  UNL     1      18.951  -0.143  25.548  0.00  0.00    -0.307 N 
ATOM      4  H5  UNL     1      19.782  -0.549  25.063  0.00  0.00    +0.149 HD
ENDROOT
BRANCH   1   7
ATOM      5  C2  UNL     1      22.504   1.634  28.182  0.00  0.00    +0.215 A 
ATOM      6  C3  UNL     1      21.259   1.038  27.967  0.00  0.00    +0.080 A 
ATOM      7  C4  UNL     1      20.487   1.407  26.852  0.00  0.00    +0.043 A 
ATOM      8  C15 UNL     1      20.985   2.391  25.982  0.00  0.00    +0.036 A 
ATOM      9  C16 UNL     1      22.241   2.963  26.225  0.00  0.00    +0.043 A 
ATOM     10  C17 UNL     1      22.777   4.024  25.318  0.00  0.00    +0.066 C 
ATOM     11  N5  UNL     1      22.960   2.577  27.313  0.00  0.00    -0.218 NA
BRANCH   5  13
ATOM     12  C1  UNL     1      24.441   0.463  29.183  0.00  0.00    +0.279 C 
ATOM     13  O1  UNL     1      23.264   1.255  29.291  0.00  0.00    -0.480 OA
ENDBRANCH   5  13
ENDBRANCH   1   7
BRANCH   3  14
ATOM     14  C6  UNL     1      17.608  -0.614  25.190  0.00  0.00    +0.092 C 
ATOM     15  C7  UNL     1      17.646  -1.879  24.324  0.00  0.00    +0.043 C 
ATOM     16  C8  UNL     1      16.447  -1.762  23.392  0.00  0.00    +0.108 C 
ATOM     17  N2  UNL     1      16.101  -0.350  23.376  0.00  0.00    -0.313 N 
ATOM     18  C14 UNL     1      16.853   0.418  24.355  0.00  0.00    +0.128 C 
BRANCH  17  19
ATOM     19  C9  UNL     1      15.117   0.202  22.480  0.00  0.00    +0.125 A 
ATOM     20  C10 UNL     1      13.777   0.355  22.870  0.00  0.00    +0.066 A 
ATOM     21  C11 UNL     1      12.868   0.898  21.957  0.00  0.00    +0.043 A 
ATOM     22  C12 UNL     1      11.433   1.084  22.337  0.00  0.00    +0.066 C 
ATOM     23  N3  UNL     1      13.294   1.268  20.720  0.00  0.00    -0.240 NA
ATOM     24  C13 UNL     1      14.593   1.116  20.355  0.00  0.00    +0.223 A 
ATOM     25  N4  UNL     1      15.489   0.589  21.229  0.00  0.00    -0.221 NA
ENDBRANCH  17  19
ENDBRANCH   3  14
TORSDOF 4
ENDMDL
MODEL 5
REMARK VINA RESULT:    -5.926      5.588     11.382
REMARK INTER + INTRA:          -7.767
REMARK INTER:                  -7.295
REMARK INTRA:                  -0.473
REMARK UNBOUND:                -0.455
REMARK  Name = /home/qwerty/github/datacon2025hack/step_04_hit_selection/docking/ligands/lig_105.pdb
REMARK  7 active torsions:
REMARK  status: ('A' for Active; 'I' for Inactive)
REMARK    1  A    between atoms: C1_1  and  O1_2
REMARK    2  A    between atoms: O1_2  and  C2_3
REMARK    3  A    between atoms: C4_5  and  C5_6
REMARK    4  A    between atoms: N1_8  and  C6_9
REMARK    5  A    between atoms: N2_12  and  C9_13
REMARK    6  A    between atoms: C11_15  and  C12_16
REMARK    7  A    between atoms: C16_22  and  C17_23
REMARK                            x       y       z     vdW  Elec       q    Type
REMARK                         _______ _______ _______ _____ _____    ______ ____
ROOT
ATOM      1  C5  UNL     1      21.419   0.855  28.608  0.00  0.00    +0.245 C 
ATOM      2  O2  UNL     1      22.221  -0.056  28.264  0.00  0.00    -0.270 OA
ATOM      3  N1  UNL     1      20.659   1.547  27.604  0.00  0.00    -0.307 N 
ATOM      4  H5  UNL     1      20.187   2.444  27.858  0.00  0.00    +0.149 HD
ENDROOT
BRANCH   1   7
ATOM      5  C2  UNL     1      20.295   0.811  32.220  0.00  0.00    +0.215 A 
ATOM      6  C3  UNL     1      20.422   0.472  30.871  0.00  0.00    +0.080 A 
ATOM      7  C4  UNL     1      21.289   1.205  30.042  0.00  0.00    +0.043 A 
ATOM      8  C15 UNL     1      22.000   2.283  30.595  0.00  0.00    +0.036 A 
ATOM      9  C16 UNL     1      21.852   2.590  31.954  0.00  0.00    +0.043 A 
ATOM     10  C17 UNL     1      22.589   3.746  32.553  0.00  0.00    +0.066 C 
ATOM     11  N5  UNL     1      21.007   1.855  32.725  0.00  0.00    -0.218 NA
BRANCH   5  13
ATOM     12  C1  UNL     1      18.108  -0.268  32.647  0.00  0.00    +0.279 C 
ATOM     13  O1  UNL     1      19.434   0.071  33.035  0.00  0.00    -0.480 OA
ENDBRANCH   5  13
ENDBRANCH   1   7
BRANCH   3  14
ATOM     14  C6  UNL     1      20.626   1.086  26.211  0.00  0.00    +0.092 C 
ATOM     15  C7  UNL     1      20.619   2.250  25.213  0.00  0.00    +0.043 C 
ATOM     16  C8  UNL     1      19.780   1.764  24.037  0.00  0.00    +0.108 C 
ATOM     17  N2  UNL     1      18.974   0.672  24.558  0.00  0.00    -0.313 N 
ATOM     18  C14 UNL     1      19.354   0.295  25.910  0.00  0.00    +0.128 C 
BRANCH  17  19
ATOM     19  C9  UNL     1      17.921   0.048  23.798  0.00  0.00    +0.125 A 
ATOM     20  C10 UNL     1      17.217   0.752  22.808  0.00  0.00    +0.066 A 
ATOM     21  C11 UNL     1      16.206   0.092  22.103  0.00  0.00    +0.043 A 
ATOM     22  C12 UNL     1      15.438   0.805  21.036  0.00  0.00    +0.066 C 
ATOM     23  N3  UNL     1      15.928  -1.210  22.383  0.00  0.00    -0.240 NA
ATOM     24  C13 UNL     1      16.617  -1.880  23.342  0.00  0.00    +0.223 A 
ATOM     25  N4  UNL     1      17.600  -1.253  24.037  0.00  0.00    -0.221 NA
ENDBRANCH  17  19
ENDBRANCH   3  14
TORSDOF 4
ENDMDL
MODEL 6
REMARK VINA RESULT:    -5.868      2.597      9.237
REMARK INTER + INTRA:          -7.695
REMARK INTER:                  -7.233
REMARK INTRA:                  -0.463
REMARK UNBOUND:                -0.455
REMARK  Name = /home/qwerty/github/datacon2025hack/step_04_hit_selection/docking/ligands/lig_105.pdb
REMARK  7 active torsions:
REMARK  status: ('A' for Active; 'I' for Inactive)
REMARK    1  A    between atoms: C1_1  and  O1_2
REMARK    2  A    between atoms: O1_2  and  C2_3
REMARK    3  A    between atoms: C4_5  and  C5_6
REMARK    4  A    between atoms: N1_8  and  C6_9
REMARK    5  A    between atoms: N2_12  and  C9_13
REMARK    6  A    between atoms: C11_15  and  C12_16
REMARK    7  A    between atoms: C16_22  and  C17_23
REMARK                            x       y       z     vdW  Elec       q    Type
REMARK                         _______ _______ _______ _____ _____    ______ ____
ROOT
ATOM      1  C5  UNL     1      21.609   7.379  35.999  0.00  0.00    +0.245 C 
ATOM      2  O2  UNL     1      22.265   6.838  36.931  0.00  0.00    -0.270 OA
ATOM      3  N1  UNL     1      21.696   6.846  34.667  0.00  0.00    -0.307 N 
ATOM      4  H5  UNL     1      21.353   7.425  33.869  0.00  0.00    +0.149 HD
ENDROOT
BRANCH   1   7
ATOM      5  C2  UNL     1      18.897   9.579  37.457  0.00  0.00    +0.215 A 
ATOM      6  C3  UNL     1      19.691   8.461  37.187  0.00  0.00    +0.080 A 
ATOM      7  C4  UNL     1      20.771   8.566  36.295  0.00  0.00    +0.043 A 
ATOM      8  C15 UNL     1      21.017   9.802  35.675  0.00  0.00    +0.036 A 
ATOM      9  C16 UNL     1      20.204  10.904  35.973  0.00  0.00    +0.043 A 
ATOM     10  C17 UNL     1      20.444  12.222  35.308  0.00  0.00    +0.066 C 
ATOM     11  N5  UNL     1      19.171  10.765  36.846  0.00  0.00    -0.218 NA
BRANCH   5  13
ATOM     12  C1  UNL     1      16.699  10.327  38.315  0.00  0.00    +0.279 C 
ATOM     13  O1  UNL     1      17.830   9.464  38.351  0.00  0.00    -0.480 OA
ENDBRANCH   5  13
ENDBRANCH   1   7
BRANCH   3  14
ATOM     14  C6  UNL     1      22.357   5.565  34.394  0.00  0.00    +0.092 C 
ATOM     15  C7  UNL     1      23.431   5.683  33.306  0.00  0.00    +0.043 C 
ATOM     16  C8  UNL     1      23.401   4.352  32.567  0.00  0.00    +0.108 C 
ATOM     17  N2  UNL     1      22.101   3.771  32.861  0.00  0.00    -0.313 N 
ATOM     18  C14 UNL     1      21.370   4.524  33.868  0.00  0.00    +0.128 C 
BRANCH  17  19
ATOM     19  C9  UNL     1      21.614   2.580  32.213  0.00  0.00    +0.125 A 
ATOM     20  C10 UNL     1      22.042   2.220  30.926  0.00  0.00    +0.066 A 
ATOM     21  C11 UNL     1      21.534   1.052  30.349  0.00  0.00    +0.043 A 
ATOM     22  C12 UNL     1      21.971   0.630  28.983  0.00  0.00    +0.066 C 
ATOM     23  N3  UNL     1      20.645   0.290  31.042  0.00  0.00    -0.240 NA
ATOM     24  C13 UNL     1      20.240   0.648  32.287  0.00  0.00    +0.223 A 
ATOM     25  N4  UNL     1      20.722   1.780  32.860  0.00  0.00    -0.221 NA
ENDBRANCH  17  19
ENDBRANCH   3  14
TORSDOF 4
ENDMDL
MODEL 7
REMARK VINA RESULT:    -5.827     15.003     17.656
REMARK INTER + INTRA:          -7.644
REMARK INTER:                  -7.192
REMARK INTRA:                  -0.452
REMARK UNBOUND:                -0.455
REMARK  Name = /home/qwerty/github/datacon2025hack/step_04_hit_selection/docking/ligands/lig_105.pdb
REMARK  7 active torsions:
REMARK  status: ('A' for Active; 'I' for Inactive)
REMARK    1  A    between atoms: C1_1  and  O1_2
REMARK    2  A    between atoms: O1_2  and  C2_3
REMARK    3  A    between atoms: C4_5  and  C5_6
REMARK    4  A    between atoms: N1_8  and  C6_9
REMARK    5  A    between atoms: N2_12  and  C9_13
REMARK    6  A    between atoms: C11_15  and  C12_16
REMARK    7  A    between atoms: C16_22  and  C17_23
REMARK                            x       y       z     vdW  Elec       q    Type
REMARK                         _______ _______ _______ _____ _____    ______ ____
ROOT
ATOM      1  C5  UNL     1      11.424  10.549  25.819  0.00  0.00    +0.245 C 
ATOM      2  O2  UNL     1      12.128   9.593  26.244  0.00  0.00    -0.270 OA
ATOM      3  N1  UNL     1      11.121  10.638  24.417  0.00  0.00    -0.307 N 
ATOM      4  H5  UNL     1      10.752  11.539  24.037  0.00  0.00    +0.149 HD
ENDROOT
BRANCH   1   7
ATOM      5  C2  UNL     1       9.240  12.366  28.318  0.00  0.00    +0.215 A 
ATOM      6  C3  UNL     1       9.703  11.396  27.425  0.00  0.00    +0.080 A 
ATOM      7  C4  UNL     1      10.935  11.572  26.774  0.00  0.00    +0.043 A 
ATOM      8  C15 UNL     1      11.671  12.742  27.025  0.00  0.00    +0.036 A 
ATOM      9  C16 UNL     1      11.179  13.691  27.931  0.00  0.00    +0.043 A 
ATOM     10  C17 UNL     1      11.943  14.949  28.196  0.00  0.00    +0.066 C 
ATOM     11  N5  UNL     1       9.984  13.483  28.546  0.00  0.00    -0.218 NA
BRANCH   5  13
ATOM     12  C1  UNL     1       7.646  10.943  29.567  0.00  0.00    +0.279 C 
ATOM     13  O1  UNL     1       8.016  12.177  28.964  0.00  0.00    -0.480 OA
ENDBRANCH   5  13
ENDBRANCH   1   7
BRANCH   3  14
ATOM     14  C6  UNL     1      11.426   9.540  23.493  0.00  0.00    +0.092 C 
ATOM     15  C7  UNL     1      11.629  10.028  22.054  0.00  0.00    +0.043 C 
ATOM     16  C8  UNL     1      11.100   8.905  21.171  0.00  0.00    +0.108 C 
ATOM     17  N2  UNL     1      10.217   8.123  22.022  0.00  0.00    -0.313 N 
ATOM     18  C14 UNL     1      10.277   8.535  23.415  0.00  0.00    +0.128 C 
BRANCH  17  19
ATOM     19  C9  UNL     1       9.385   7.060  21.516  0.00  0.00    +0.125 A 
ATOM     20  C10 UNL     1       8.007   7.240  21.321  0.00  0.00    +0.066 A 
ATOM     21  C11 UNL     1       7.252   6.171  20.827  0.00  0.00    +0.043 A 
ATOM     22  C12 UNL     1       5.782   6.325  20.597  0.00  0.00    +0.066 C 
ATOM     23  N3  UNL     1       7.862   4.990  20.543  0.00  0.00    -0.240 NA
ATOM     24  C13 UNL     1       9.196   4.828  20.735  0.00  0.00    +0.223 A 
ATOM     25  N4  UNL     1       9.943   5.855  21.216  0.00  0.00    -0.221 NA
ENDBRANCH  17  19
ENDBRANCH   3  14
TORSDOF 4
ENDMDL
MODEL 8
REMARK VINA RESULT:    -5.815     14.203     17.030
REMARK INTER + INTRA:          -7.630
REMARK INTER:                  -7.254
REMARK INTRA:                  -0.376
REMARK UNBOUND:                -0.455
REMARK  Name = /home/qwerty/github/datacon2025hack/step_04_hit_selection/docking/ligands/lig_105.pdb
REMARK  7 active torsions:
REMARK  status: ('A' for Active; 'I' for Inactive)
REMARK    1  A    between atoms: C1_1  and  O1_2
REMARK    2  A    between atoms: O1_2  and  C2_3
REMARK    3  A    between atoms: C4_5  and  C5_6
REMARK    4  A    between atoms: N1_8  and  C6_9
REMARK    5  A    between atoms: N2_12  and  C9_13
REMARK    6  A    between atoms: C11_15  and  C12_16
REMARK    7  A    between atoms: C16_22  and  C17_23
REMARK                            x       y       z     vdW  Elec       q    Type
REMARK                         _______ _______ _______ _____ _____    ______ ____
ROOT
ATOM      1  C5  UNL     1      12.581   4.705  20.389  0.00  0.00    +0.245 C 
ATOM      2  O2  UNL     1      13.519   5.166  19.682  0.00  0.00    -0.270 OA
ATOM      3  N1  UNL     1      12.768   3.470  21.098  0.00  0.00    -0.307 N 
ATOM      4  H5  UNL     1      11.930   2.975  21.479  0.00  0.00    +0.149 HD
ENDROOT
BRANCH   1   7
ATOM      5  C2  UNL     1      10.069   7.535  20.438  0.00  0.00    +0.215 A 
ATOM      6  C3  UNL     1      11.281   6.843  20.361  0.00  0.00    +0.080 A 
ATOM      7  C4  UNL     1      11.296   5.442  20.460  0.00  0.00    +0.043 A 
ATOM      8  C15 UNL     1      10.080   4.765  20.655  0.00  0.00    +0.036 A 
ATOM      9  C16 UNL     1       8.884   5.491  20.721  0.00  0.00    +0.043 A 
ATOM     10  C17 UNL     1       7.584   4.786  20.945  0.00  0.00    +0.066 C 
ATOM     11  N5  UNL     1       8.909   6.847  20.617  0.00  0.00    -0.218 NA
BRANCH   5  13
ATOM     12  C1  UNL     1      11.022   9.644  19.559  0.00  0.00    +0.279 C 
ATOM     13  O1  UNL     1      10.066   8.928  20.333  0.00  0.00    -0.480 OA
ENDBRANCH   5  13
ENDBRANCH   1   7
BRANCH   3  14
ATOM     14  C6  UNL     1      14.086   2.833  21.199  0.00  0.00    +0.092 C 
ATOM     15  C7  UNL     1      14.438   2.021  19.947  0.00  0.00    +0.043 C 
ATOM     16  C8  UNL     1      15.264   0.844  20.452  0.00  0.00    +0.108 C 
ATOM     17  N2  UNL     1      14.951   0.726  21.867  0.00  0.00    -0.313 N 
ATOM     18  C14 UNL     1      14.142   1.833  22.352  0.00  0.00    +0.128 C 
BRANCH  17  19
ATOM     19  C9  UNL     1      15.405  -0.374  22.678  0.00  0.00    +0.125 A 
ATOM     20  C10 UNL     1      14.614  -0.896  23.713  0.00  0.00    +0.066 A 
ATOM     21  C11 UNL     1      15.109  -1.966  24.466  0.00  0.00    +0.043 A 
ATOM     22  C12 UNL     1      14.294  -2.555  25.572  0.00  0.00    +0.066 C 
ATOM     23  N3  UNL     1      16.336  -2.480  24.180  0.00  0.00    -0.240 NA
ATOM     24  C13 UNL     1      17.091  -1.967  23.176  0.00  0.00    +0.223 A 
ATOM     25  N4  UNL     1      16.626  -0.927  22.437  0.00  0.00    -0.221 NA
ENDBRANCH  17  19
ENDBRANCH   3  14
TORSDOF 4
ENDMDL
MODEL 9
REMARK VINA RESULT:    -5.691     11.940     14.007
REMARK INTER + INTRA:          -7.478
REMARK INTER:                  -7.009
REMARK INTRA:                  -0.469
REMARK UNBOUND:                -0.455
REMARK  Name = /home/qwerty/github/datacon2025hack/step_04_hit_selection/docking/ligands/lig_105.pdb
REMARK  7 active torsions:
REMARK  status: ('A' for Active; 'I' for Inactive)
REMARK    1  A    between atoms: C1_1  and  O1_2
REMARK    2  A    between atoms: O1_2  and  C2_3
REMARK    3  A    between atoms: C4_5  and  C5_6
REMARK    4  A    between atoms: N1_8  and  C6_9
REMARK    5  A    between atoms: N2_12  and  C9_13
REMARK    6  A    between atoms: C11_15  and  C12_16
REMARK    7  A    between atoms: C16_22  and  C17_23
REMARK                            x       y       z     vdW  Elec       q    Type
REMARK                         _______ _______ _______ _____ _____    ______ ____
ROOT
ATOM      1  C5  UNL     1       8.826  12.449  28.931  0.00  0.00    +0.245 C 
ATOM      2  O2  UNL     1       7.974  13.265  29.378  0.00  0.00    -0.270 OA
ATOM      3  N1  UNL     1      10.227  12.715  29.108  0.00  0.00    -0.307 N 
ATOM      4  H5  UNL     1      10.918  12.177  28.541  0.00  0.00    +0.149 HD
ENDROOT
BRANCH   1   7
ATOM      5  C2  UNL     1       7.528   8.958  28.262  0.00  0.00    +0.215 A 
ATOM      6  C3  UNL     1       7.954  10.103  28.939  0.00  0.00    +0.080 A 
ATOM      7  C4  UNL     1       8.363  11.236  28.215  0.00  0.00    +0.043 A 
ATOM      8  C15 UNL     1       8.348  11.180  26.811  0.00  0.00    +0.036 A 
ATOM      9  C16 UNL     1       7.909  10.018  26.165  0.00  0.00    +0.043 A 
ATOM     10  C17 UNL     1       7.904   9.938  24.672  0.00  0.00    +0.066 C 
ATOM     11  N5  UNL     1       7.516   8.943  26.901  0.00  0.00    -0.218 NA
BRANCH   5  13
ATOM     12  C1  UNL     1       7.092   7.818  30.416  0.00  0.00    +0.279 C 
ATOM     13  O1  UNL     1       7.118   7.840  28.994  0.00  0.00    -0.480 OA
ENDBRANCH   5  13
ENDBRANCH   1   7
BRANCH   3  14
ATOM     14  C6  UNL     1      10.698  13.799  29.978  0.00  0.00    +0.092 C 
ATOM     15  C7  UNL     1      12.078  14.322  29.561  0.00  0.00    +0.043 C 
ATOM     16  C8  UNL     1      12.764  14.723  30.861  0.00  0.00    +0.108 C 
ATOM     17  N2  UNL     1      12.060  14.005  31.911  0.00  0.00    -0.313 N 
ATOM     18  C14 UNL     1      10.870  13.327  31.421  0.00  0.00    +0.128 C 
BRANCH  17  19
ATOM     19  C9  UNL     1      12.510  13.985  33.280  0.00  0.00    +0.125 A 
ATOM     20  C10 UNL     1      13.869  13.846  33.601  0.00  0.00    +0.066 A 
ATOM     21  C11 UNL     1      14.245  13.834  34.948  0.00  0.00    +0.043 A 
ATOM     22  C12 UNL     1      15.685  13.695  35.331  0.00  0.00    +0.066 C 
ATOM     23  N3  UNL     1      13.297  13.961  35.913  0.00  0.00    -0.240 NA
ATOM     24  C13 UNL     1      11.985  14.097  35.591  0.00  0.00    +0.223 A 
ATOM     25  N4  UNL     1      11.603  14.108  34.288  0.00  0.00    -0.221 NA
ENDBRANCH  17  19
ENDBRANCH   3  14
TORSDOF 4
ENDMDL
