REMARK  Name = /home/qwerty/github/datacon2025hack/step_04_hit_selection/docking/ligands/lig_116.pdb
REMARK  7 active torsions:
REMARK  status: ('A' for Active; 'I' for Inactive)
REMARK    1  A    between atoms: C1_1  and  O1_2
REMARK    2  A    between atoms: O1_2  and  C2_3
REMARK    3  A    between atoms: C7_8  and  O2_9
REMARK    4  A    between atoms: O2_9  and  C8_10
REMARK    5  A    between atoms: C9_11  and  C10_12
REMARK    6  A    between atoms: C11_14  and  C12_16
REMARK    7  A    between atoms: C18_24  and  C19_26
REMARK                            x       y       z     vdW  Elec       q    Type
REMARK                         _______ _______ _______ _____ _____    ______ ____
ROOT
ATOM      1  C12 UNL     1       0.932   0.094  -1.122  0.00  0.00    +0.076 A 
ATOM      2  C13 UNL     1       2.328   0.179  -1.202  0.00  0.00    +0.044 A 
ATOM      3  C14 UNL     1       2.794  -0.273  -2.439  0.00  0.00    +0.048 A 
ATOM      4  C15 UNL     1       1.840  -0.646  -3.308  0.00  0.00    +0.013 A 
ATOM      5  S1  UNL     1       0.325  -0.410  -2.632  0.00  0.00    -0.087 S 
ATOM      6  C16 UNL     1       2.337  -0.653  -4.705  0.00  0.00    +0.063 C 
ATOM      7  C17 UNL     1       3.828  -0.246  -4.526  0.00  0.00    +0.119 C 
ATOM      8  N2  UNL     1       4.035  -0.054  -3.083  0.00  0.00    -0.266 N 
ATOM      9  C18 UNL     1       5.221   0.505  -2.497  0.00  0.00    +0.251 C 
ATOM     10  O4  UNL     1       5.929   1.296  -3.177  0.00  0.00    -0.270 OA
ENDROOT
BRANCH   1  20
ATOM     11  C2  UNL     1      -6.225  -0.235   0.869  0.00  0.00    +0.162 A 
ATOM     12  C3  UNL     1      -5.210  -1.193   0.689  0.00  0.00    +0.053 A 
ATOM     13  C4  UNL     1      -3.861  -0.824   0.777  0.00  0.00    -0.037 A 
ATOM     14  C5  UNL     1      -3.515   0.504   1.060  0.00  0.00    -0.020 A 
ATOM     15  C6  UNL     1      -4.525   1.459   1.252  0.00  0.00    +0.055 A 
ATOM     16  C7  UNL     1      -5.881   1.096   1.151  0.00  0.00    +0.162 A 
ATOM     17  C9  UNL     1      -2.058   0.878   1.233  0.00  0.00    +0.104 C 
ATOM     18  C10 UNL     1      -1.653   0.706   2.704  0.00  0.00    +0.033 C 
ATOM     19  N1  UNL     1      -1.179   0.078   0.349  0.00  0.00    -0.290 N 
ATOM     20  C11 UNL     1       0.132   0.599   0.015  0.00  0.00    +0.254 C 
ATOM     21  O3  UNL     1       0.631   1.520   0.717  0.00  0.00    -0.269 OA
ATOM     22  C26 UNL     1      -1.601  -1.242  -0.166  0.00  0.00    +0.113 C 
ATOM     23  C27 UNL     1      -2.770  -1.841   0.622  0.00  0.00    +0.054 C 
BRANCH  11  25
ATOM     24  C1  UNL     1      -8.084  -1.871   0.500  0.00  0.00    +0.277 C 
ATOM     25  O1  UNL     1      -7.587  -0.567   0.782  0.00  0.00    -0.491 OA
ENDBRANCH  11  25
BRANCH  16  26
ATOM     26  O2  UNL     1      -6.917   2.028   1.329  0.00  0.00    -0.491 OA
ATOM     27  C8  UNL     1      -6.720   3.407   1.623  0.00  0.00    +0.277 C 
ENDBRANCH  16  26
ENDBRANCH   1  20
BRANCH   9  28
ATOM     28  C19 UNL     1       5.643   0.154  -1.123  0.00  0.00    +0.041 A 
ATOM     29  C20 UNL     1       5.311  -1.109  -0.563  0.00  0.00    +0.017 A 
ATOM     30  C21 UNL     1       5.712  -1.442   0.743  0.00  0.00    +0.050 A 
ATOM     31  C22 UNL     1       6.450  -0.503   1.455  0.00  0.00    +0.166 A 
ATOM     32  C23 UNL     1       6.786   0.699   0.925  0.00  0.00    +0.167 A 
ATOM     33  C24 UNL     1       6.409   1.069  -0.363  0.00  0.00    +0.062 A 
ATOM     34  O5  UNL     1       7.514   1.423   1.849  0.00  0.00    -0.453 OA
ATOM     35  C25 UNL     1       7.641   0.627   3.036  0.00  0.00    +0.466 C 
ATOM     36  O6  UNL     1       6.950  -0.595   2.740  0.00  0.00    -0.453 OA
ENDBRANCH   9  28
TORSDOF 4
