MODEL 1
REMARK VINA RESULT:    -7.565      0.000      0.000
REMARK INTER + INTRA:         -10.634
REMARK INTER:                  -9.776
REMARK INTRA:                  -0.858
REMARK UNBOUND:                -0.858
REMARK  Name = /home/qwerty/github/datacon2025hack/step_04_hit_selection/docking/ligands/lig_407.pdb
REMARK  6 active torsions:
REMARK  status: ('A' for Active; 'I' for Inactive)
REMARK    1  A    between atoms: C1_1  and  N1_2
REMARK    2  A    between atoms: N1_2  and  C2_3
REMARK    3  A    between atoms: N1_2  and  C9_10
REMARK    4  A    between atoms: C2_3  and  C3_4
REMARK    5  A    between atoms: C12_13  and  C13_14
REMARK    6  A    between atoms: C16_20  and  C17_21
REMARK                            x       y       z     vdW  Elec       q    Type
REMARK                         _______ _______ _______ _____ _____    ______ ____
ROOT
ATOM      1  C13 UNL     1      17.617   0.216  23.659  0.00  0.00    +0.002 A 
ATOM      2  C14 UNL     1      17.452  -1.160  23.334  0.00  0.00    +0.121 A 
ATOM      3  N2  UNL     1      16.844  -1.537  22.169  0.00  0.00    -0.235 NA
ATOM      4  C15 UNL     1      16.381  -0.580  21.332  0.00  0.00    +0.156 A 
ATOM      5  N3  UNL     1      15.807  -0.767  20.137  0.00  0.00    -0.260 N 
ATOM      6  N4  UNL     1      15.541   0.425  19.616  0.00  0.00    -0.171 NA
ATOM      7  C16 UNL     1      15.944   1.379  20.495  0.00  0.00    +0.102 A 
ATOM      8  C22 UNL     1      16.495   0.750  21.602  0.00  0.00    +0.047 A 
ATOM      9  C23 UNL     1      17.133   1.193  22.757  0.00  0.00    +0.023 A 
ATOM     10  H14 UNL     1      15.608  -1.680  19.671  0.00  0.00    +0.191 HD
ENDROOT
BRANCH   1  14
ATOM     11  C9  UNL     1      19.540   1.392  27.308  0.00  0.00    +0.121 A 
ATOM     12  C10 UNL     1      20.283   0.745  26.305  0.00  0.00    +0.044 A 
ATOM     13  C11 UNL     1      19.659   0.361  25.117  0.00  0.00    +0.013 A 
ATOM     14  C12 UNL     1      18.295   0.622  24.917  0.00  0.00    +0.002 A 
ATOM     15  C24 UNL     1      17.588   1.279  25.936  0.00  0.00    +0.121 A 
ATOM     16  N6  UNL     1      18.218   1.639  27.085  0.00  0.00    -0.240 NA
BRANCH  11  18
ATOM     17  C1  UNL     1      20.291   3.238  28.829  0.00  0.00    +0.131 C 
ATOM     18  N1  UNL     1      20.138   1.802  28.562  0.00  0.00    -0.314 N 
BRANCH  18  19
ATOM     19  C2  UNL     1      20.547   0.828  29.590  0.00  0.00    +0.141 C 
BRANCH  19  20
ATOM     20  C3  UNL     1      21.974   0.395  29.374  0.00  0.00    -0.030 A 
ATOM     21  C4  UNL     1      22.261  -0.934  29.016  0.00  0.00    +0.005 A 
ATOM     22  C5  UNL     1      23.583  -1.341  28.816  0.00  0.00    +0.000 A 
ATOM     23  C6  UNL     1      24.628  -0.427  28.979  0.00  0.00    +0.000 A 
ATOM     24  C7  UNL     1      24.354   0.893  29.346  0.00  0.00    +0.000 A 
ATOM     25  C8  UNL     1      23.033   1.303  29.547  0.00  0.00    +0.005 A 
ENDBRANCH  19  20
ENDBRANCH  18  19
ENDBRANCH  11  18
ENDBRANCH   1  14
BRANCH   7  26
ATOM     26  C17 UNL     1      15.804   2.829  20.245  0.00  0.00    +0.006 A 
ATOM     27  C18 UNL     1      14.528   3.384  20.063  0.00  0.00    +0.030 A 
ATOM     28  C19 UNL     1      14.398   4.757  19.839  0.00  0.00    +0.111 A 
ATOM     29  N5  UNL     1      15.499   5.551  19.812  0.00  0.00    -0.263 NA
ATOM     30  C20 UNL     1      16.746   5.045  20.003  0.00  0.00    +0.111 A 
ATOM     31  C21 UNL     1      16.922   3.678  20.229  0.00  0.00    +0.030 A 
ENDBRANCH   7  26
TORSDOF 5
ENDMDL
MODEL 2
REMARK VINA RESULT:    -7.483      6.772     12.508
REMARK INTER + INTRA:         -10.529
REMARK INTER:                  -9.441
REMARK INTRA:                  -1.088
REMARK UNBOUND:                -0.858
REMARK  Name = /home/qwerty/github/datacon2025hack/step_04_hit_selection/docking/ligands/lig_407.pdb
REMARK  6 active torsions:
REMARK  status: ('A' for Active; 'I' for Inactive)
REMARK    1  A    between atoms: C1_1  and  N1_2
REMARK    2  A    between atoms: N1_2  and  C2_3
REMARK    3  A    between atoms: N1_2  and  C9_10
REMARK    4  A    between atoms: C2_3  and  C3_4
REMARK    5  A    between atoms: C12_13  and  C13_14
REMARK    6  A    between atoms: C16_20  and  C17_21
REMARK                            x       y       z     vdW  Elec       q    Type
REMARK                         _______ _______ _______ _____ _____    ______ ____
ROOT
ATOM      1  C13 UNL     1      21.979   5.307  33.628  0.00  0.00    +0.002 A 
ATOM      2  C14 UNL     1      23.331   5.732  33.761  0.00  0.00    +0.121 A 
ATOM      3  N2  UNL     1      23.711   6.554  34.785  0.00  0.00    -0.235 NA
ATOM      4  C15 UNL     1      22.775   6.977  35.666  0.00  0.00    +0.156 A 
ATOM      5  N3  UNL     1      22.977   7.740  36.749  0.00  0.00    -0.260 N 
ATOM      6  N4  UNL     1      21.814   7.888  37.372  0.00  0.00    -0.171 NA
ATOM      7  C16 UNL     1      20.861   7.217  36.672  0.00  0.00    +0.102 A 
ATOM      8  C22 UNL     1      21.465   6.617  35.576  0.00  0.00    +0.047 A 
ATOM      9  C23 UNL     1      21.026   5.758  34.573  0.00  0.00    +0.023 A 
ATOM     10  H14 UNL     1      23.883   8.144  37.072  0.00  0.00    +0.191 HD
ENDROOT
BRANCH   1  14
ATOM     11  C9  UNL     1      20.815   2.716  30.414  0.00  0.00    +0.121 A 
ATOM     12  C10 UNL     1      21.189   2.167  31.654  0.00  0.00    +0.044 A 
ATOM     13  C11 UNL     1      21.570   3.008  32.700  0.00  0.00    +0.013 A 
ATOM     14  C12 UNL     1      21.575   4.400  32.523  0.00  0.00    +0.002 A 
ATOM     15  C24 UNL     1      21.184   4.912  31.277  0.00  0.00    +0.121 A 
ATOM     16  N6  UNL     1      20.822   4.072  30.272  0.00  0.00    -0.240 NA
BRANCH  11  18
ATOM     17  C1  UNL     1      19.078   1.293  29.299  0.00  0.00    +0.131 C 
ATOM     18  N1  UNL     1      20.421   1.886  29.294  0.00  0.00    -0.314 N 
BRANCH  18  19
ATOM     19  C2  UNL     1      21.306   1.664  28.137  0.00  0.00    +0.141 C 
BRANCH  19  20
ATOM     20  C3  UNL     1      22.452   0.759  28.509  0.00  0.00    -0.030 A 
ATOM     21  C4  UNL     1      22.277  -0.635  28.513  0.00  0.00    +0.005 A 
ATOM     22  C5  UNL     1      23.336  -1.479  28.859  0.00  0.00    +0.000 A 
ATOM     23  C6  UNL     1      24.576  -0.937  29.210  0.00  0.00    +0.000 A 
ATOM     24  C7  UNL     1      24.756   0.449  29.221  0.00  0.00    +0.000 A 
ATOM     25  C8  UNL     1      23.699   1.295  28.876  0.00  0.00    +0.005 A 
ENDBRANCH  19  20
ENDBRANCH  18  19
ENDBRANCH  11  18
ENDBRANCH   1  14
BRANCH   7  26
ATOM     26  C17 UNL     1      19.441   7.163  37.076  0.00  0.00    +0.006 A 
ATOM     27  C18 UNL     1      18.908   5.970  37.586  0.00  0.00    +0.030 A 
ATOM     28  C19 UNL     1      17.568   5.924  37.979  0.00  0.00    +0.111 A 
ATOM     29  N5  UNL     1      16.790   7.033  37.880  0.00  0.00    -0.263 NA
ATOM     30  C20 UNL     1      17.283   8.208  37.407  0.00  0.00    +0.111 A 
ATOM     31  C21 UNL     1      18.617   8.298  37.002  0.00  0.00    +0.030 A 
ENDBRANCH   7  26
TORSDOF 5
ENDMDL
MODEL 3
REMARK VINA RESULT:    -7.280     13.816     18.407
REMARK INTER + INTRA:         -10.266
REMARK INTER:                  -9.332
REMARK INTRA:                  -0.934
REMARK UNBOUND:                -0.858
REMARK  Name = /home/qwerty/github/datacon2025hack/step_04_hit_selection/docking/ligands/lig_407.pdb
REMARK  6 active torsions:
REMARK  status: ('A' for Active; 'I' for Inactive)
REMARK    1  A    between atoms: C1_1  and  N1_2
REMARK    2  A    between atoms: N1_2  and  C2_3
REMARK    3  A    between atoms: N1_2  and  C9_10
REMARK    4  A    between atoms: C2_3  and  C3_4
REMARK    5  A    between atoms: C12_13  and  C13_14
REMARK    6  A    between atoms: C16_20  and  C17_21
REMARK                            x       y       z     vdW  Elec       q    Type
REMARK                         _______ _______ _______ _____ _____    ______ ____
ROOT
ATOM      1  C13 UNL     1      13.022  13.625  33.582  0.00  0.00    +0.002 A 
ATOM      2  C14 UNL     1      12.216  14.035  34.681  0.00  0.00    +0.121 A 
ATOM      3  N2  UNL     1      12.727  14.080  35.948  0.00  0.00    -0.235 NA
ATOM      4  C15 UNL     1      14.013  13.708  36.149  0.00  0.00    +0.156 A 
ATOM      5  N3  UNL     1      14.686  13.735  37.307  0.00  0.00    -0.260 N 
ATOM      6  N4  UNL     1      15.931  13.339  37.070  0.00  0.00    -0.171 NA
ATOM      7  C16 UNL     1      16.047  13.048  35.748  0.00  0.00    +0.102 A 
ATOM      8  C22 UNL     1      14.823  13.289  35.138  0.00  0.00    +0.047 A 
ATOM      9  C23 UNL     1      14.367  13.253  33.824  0.00  0.00    +0.023 A 
ATOM     10  H14 UNL     1      14.320  14.028  38.240  0.00  0.00    +0.191 HD
ENDROOT
BRANCH   1  14
ATOM     11  C9  UNL     1      11.396  13.512  29.615  0.00  0.00    +0.121 A 
ATOM     12  C10 UNL     1      12.212  14.589  30.005  0.00  0.00    +0.044 A 
ATOM     13  C11 UNL     1      12.741  14.628  31.295  0.00  0.00    +0.013 A 
ATOM     14  C12 UNL     1      12.468  13.595  32.205  0.00  0.00    +0.002 A 
ATOM     15  C24 UNL     1      11.659  12.531  31.777  0.00  0.00    +0.121 A 
ATOM     16  N6  UNL     1      11.152  12.518  30.516  0.00  0.00    -0.240 NA
BRANCH  11  18
ATOM     17  C1  UNL     1      11.528  14.059  27.172  0.00  0.00    +0.131 C 
ATOM     18  N1  UNL     1      10.815  13.429  28.290  0.00  0.00    -0.314 N 
BRANCH  18  19
ATOM     19  C2  UNL     1       9.566  12.693  28.029  0.00  0.00    +0.141 C 
BRANCH  19  20
ATOM     20  C3  UNL     1       8.368  13.540  28.371  0.00  0.00    -0.030 A 
ATOM     21  C4  UNL     1       7.699  14.253  27.362  0.00  0.00    +0.005 A 
ATOM     22  C5  UNL     1       6.587  15.042  27.674  0.00  0.00    +0.000 A 
ATOM     23  C6  UNL     1       6.141  15.130  28.995  0.00  0.00    +0.000 A 
ATOM     24  C7  UNL     1       6.807  14.434  30.007  0.00  0.00    +0.000 A 
ATOM     25  C8  UNL     1       7.919  13.645  29.699  0.00  0.00    +0.005 A 
ENDBRANCH  19  20
ENDBRANCH  18  19
ENDBRANCH  11  18
ENDBRANCH   1  14
BRANCH   7  26
ATOM     26  C17 UNL     1      17.300  12.575  35.124  0.00  0.00    +0.006 A 
ATOM     27  C18 UNL     1      18.114  13.478  34.425  0.00  0.00    +0.030 A 
ATOM     28  C19 UNL     1      19.304  13.031  33.847  0.00  0.00    +0.111 A 
ATOM     29  N5  UNL     1      19.678  11.731  33.973  0.00  0.00    -0.263 NA
ATOM     30  C20 UNL     1      18.919  10.836  34.660  0.00  0.00    +0.111 A 
ATOM     31  C21 UNL     1      17.720  11.241  35.253  0.00  0.00    +0.030 A 
ENDBRANCH   7  26
TORSDOF 5
ENDMDL
MODEL 4
REMARK VINA RESULT:    -7.234      6.535     12.596
REMARK INTER + INTRA:         -10.207
REMARK INTER:                  -9.190
REMARK INTRA:                  -1.018
REMARK UNBOUND:                -0.858
REMARK  Name = /home/qwerty/github/datacon2025hack/step_04_hit_selection/docking/ligands/lig_407.pdb
REMARK  6 active torsions:
REMARK  status: ('A' for Active; 'I' for Inactive)
REMARK    1  A    between atoms: C1_1  and  N1_2
REMARK    2  A    between atoms: N1_2  and  C2_3
REMARK    3  A    between atoms: N1_2  and  C9_10
REMARK    4  A    between atoms: C2_3  and  C3_4
REMARK    5  A    between atoms: C12_13  and  C13_14
REMARK    6  A    between atoms: C16_20  and  C17_21
REMARK                            x       y       z     vdW  Elec       q    Type
REMARK                         _______ _______ _______ _____ _____    ______ ____
ROOT
ATOM      1  C13 UNL     1      21.990   5.246  33.583  0.00  0.00    +0.002 A 
ATOM      2  C14 UNL     1      23.314   5.765  33.623  0.00  0.00    +0.121 A 
ATOM      3  N2  UNL     1      23.677   6.693  34.559  0.00  0.00    -0.235 NA
ATOM      4  C15 UNL     1      22.748   7.129  35.442  0.00  0.00    +0.156 A 
ATOM      5  N3  UNL     1      22.940   7.992  36.448  0.00  0.00    -0.260 N 
ATOM      6  N4  UNL     1      21.794   8.119  37.107  0.00  0.00    -0.171 NA
ATOM      7  C16 UNL     1      20.862   7.333  36.506  0.00  0.00    +0.102 A 
ATOM      8  C22 UNL     1      21.463   6.681  35.437  0.00  0.00    +0.047 A 
ATOM      9  C23 UNL     1      21.045   5.715  34.528  0.00  0.00    +0.023 A 
ATOM     10  H14 UNL     1      23.829   8.480  36.698  0.00  0.00    +0.191 HD
ENDROOT
BRANCH   1  14
ATOM     11  C9  UNL     1      20.849   2.317  30.665  0.00  0.00    +0.121 A 
ATOM     12  C10 UNL     1      22.160   2.323  31.173  0.00  0.00    +0.044 A 
ATOM     13  C11 UNL     1      22.533   3.276  32.122  0.00  0.00    +0.013 A 
ATOM     14  C12 UNL     1      21.605   4.225  32.576  0.00  0.00    +0.002 A 
ATOM     15  C24 UNL     1      20.303   4.182  32.055  0.00  0.00    +0.121 A 
ATOM     16  N6  UNL     1      19.965   3.246  31.129  0.00  0.00    -0.240 NA
BRANCH  11  18
ATOM     17  C1  UNL     1      18.979   1.069  29.556  0.00  0.00    +0.131 C 
ATOM     18  N1  UNL     1      20.414   1.356  29.672  0.00  0.00    -0.314 N 
BRANCH  18  19
ATOM     19  C2  UNL     1      21.360   0.701  28.751  0.00  0.00    +0.141 C 
BRANCH  19  20
ATOM     20  C3  UNL     1      21.533   1.519  27.497  0.00  0.00    -0.030 A 
ATOM     21  C4  UNL     1      22.544   2.492  27.425  0.00  0.00    +0.005 A 
ATOM     22  C5  UNL     1      22.708   3.254  26.264  0.00  0.00    +0.000 A 
ATOM     23  C6  UNL     1      21.860   3.055  25.172  0.00  0.00    +0.000 A 
ATOM     24  C7  UNL     1      20.845   2.098  25.238  0.00  0.00    +0.000 A 
ATOM     25  C8  UNL     1      20.677   1.334  26.398  0.00  0.00    +0.005 A 
ENDBRANCH  19  20
ENDBRANCH  18  19
ENDBRANCH  11  18
ENDBRANCH   1  14
BRANCH   7  26
ATOM     26  C17 UNL     1      19.465   7.223  36.973  0.00  0.00    +0.006 A 
ATOM     27  C18 UNL     1      18.572   8.283  36.753  0.00  0.00    +0.030 A 
ATOM     28  C19 UNL     1      17.248   8.171  37.185  0.00  0.00    +0.111 A 
ATOM     29  N5  UNL     1      16.824   7.038  37.801  0.00  0.00    -0.263 NA
ATOM     30  C20 UNL     1      17.661   5.987  38.012  0.00  0.00    +0.111 A 
ATOM     31  C21 UNL     1      18.994   6.057  37.597  0.00  0.00    +0.030 A 
ENDBRANCH   7  26
TORSDOF 5
ENDMDL
MODEL 5
REMARK VINA RESULT:    -7.059     13.350     17.678
REMARK INTER + INTRA:          -9.981
REMARK INTER:                  -8.941
REMARK INTRA:                  -1.040
REMARK UNBOUND:                -0.858
REMARK  Name = /home/qwerty/github/datacon2025hack/step_04_hit_selection/docking/ligands/lig_407.pdb
REMARK  6 active torsions:
REMARK  status: ('A' for Active; 'I' for Inactive)
REMARK    1  A    between atoms: C1_1  and  N1_2
REMARK    2  A    between atoms: N1_2  and  C2_3
REMARK    3  A    between atoms: N1_2  and  C9_10
REMARK    4  A    between atoms: C2_3  and  C3_4
REMARK    5  A    between atoms: C12_13  and  C13_14
REMARK    6  A    between atoms: C16_20  and  C17_21
REMARK                            x       y       z     vdW  Elec       q    Type
REMARK                         _______ _______ _______ _____ _____    ______ ____
ROOT
ATOM      1  C13 UNL     1      12.597  13.301  33.528  0.00  0.00    +0.002 A 
ATOM      2  C14 UNL     1      11.762  13.649  34.627  0.00  0.00    +0.121 A 
ATOM      3  N2  UNL     1      12.284  13.816  35.880  0.00  0.00    -0.235 NA
ATOM      4  C15 UNL     1      13.611  13.627  36.066  0.00  0.00    +0.156 A 
ATOM      5  N3  UNL     1      14.294  13.793  37.206  0.00  0.00    -0.260 N 
ATOM      6  N4  UNL     1      15.576  13.554  36.958  0.00  0.00    -0.171 NA
ATOM      7  C16 UNL     1      15.707  13.224  35.646  0.00  0.00    +0.102 A 
ATOM      8  C22 UNL     1      14.452  13.275  35.055  0.00  0.00    +0.047 A 
ATOM      9  C23 UNL     1      13.983  13.122  33.754  0.00  0.00    +0.023 A 
ATOM     10  H14 UNL     1      13.908  14.076  38.135  0.00  0.00    +0.191 HD
ENDROOT
BRANCH   1  14
ATOM     11  C9  UNL     1      10.961  12.866  29.587  0.00  0.00    +0.121 A 
ATOM     12  C10 UNL     1      11.276  11.723  30.342  0.00  0.00    +0.044 A 
ATOM     13  C11 UNL     1      11.809  11.862  31.624  0.00  0.00    +0.013 A 
ATOM     14  C12 UNL     1      12.028  13.138  32.166  0.00  0.00    +0.002 A 
ATOM     15  C24 UNL     1      11.691  14.256  31.387  0.00  0.00    +0.121 A 
ATOM     16  N6  UNL     1      11.177  14.094  30.140  0.00  0.00    -0.240 NA
BRANCH  11  18
ATOM     17  C1  UNL     1      11.335  12.532  27.130  0.00  0.00    +0.131 C 
ATOM     18  N1  UNL     1      10.415  12.776  28.248  0.00  0.00    -0.314 N 
BRANCH  18  19
ATOM     19  C2  UNL     1       8.968  12.870  27.986  0.00  0.00    +0.141 C 
BRANCH  19  20
ATOM     20  C3  UNL     1       8.322  11.512  28.072  0.00  0.00    -0.030 A 
ATOM     21  C4  UNL     1       8.267  10.685  26.937  0.00  0.00    +0.005 A 
ATOM     22  C5  UNL     1       7.668   9.424  27.011  0.00  0.00    +0.000 A 
ATOM     23  C6  UNL     1       7.113   8.983  28.215  0.00  0.00    +0.000 A 
ATOM     24  C7  UNL     1       7.152   9.803  29.346  0.00  0.00    +0.000 A 
ATOM     25  C8  UNL     1       7.750  11.065  29.275  0.00  0.00    +0.005 A 
ENDBRANCH  19  20
ENDBRANCH  18  19
ENDBRANCH  11  18
ENDBRANCH   1  14
BRANCH   7  26
ATOM     26  C17 UNL     1      17.001  12.893  35.014  0.00  0.00    +0.006 A 
ATOM     27  C18 UNL     1      17.580  11.634  35.231  0.00  0.00    +0.030 A 
ATOM     28  C19 UNL     1      18.797  11.319  34.623  0.00  0.00    +0.111 A 
ATOM     29  N5  UNL     1      19.409  12.223  33.814  0.00  0.00    -0.263 NA
ATOM     30  C20 UNL     1      18.864  13.444  33.570  0.00  0.00    +0.111 A 
ATOM     31  C21 UNL     1      17.648  13.800  34.159  0.00  0.00    +0.030 A 
ENDBRANCH   7  26
TORSDOF 5
ENDMDL
MODEL 6
REMARK VINA RESULT:    -7.048      9.627     13.162
REMARK INTER + INTRA:          -9.967
REMARK INTER:                  -9.073
REMARK INTRA:                  -0.894
REMARK UNBOUND:                -0.858
REMARK  Name = /home/qwerty/github/datacon2025hack/step_04_hit_selection/docking/ligands/lig_407.pdb
REMARK  6 active torsions:
REMARK  status: ('A' for Active; 'I' for Inactive)
REMARK    1  A    between atoms: C1_1  and  N1_2
REMARK    2  A    between atoms: N1_2  and  C2_3
REMARK    3  A    between atoms: N1_2  and  C9_10
REMARK    4  A    between atoms: C2_3  and  C3_4
REMARK    5  A    between atoms: C12_13  and  C13_14
REMARK    6  A    between atoms: C16_20  and  C17_21
REMARK                            x       y       z     vdW  Elec       q    Type
REMARK                         _______ _______ _______ _____ _____    ______ ____
ROOT
ATOM      1  C13 UNL     1       9.093   8.763  23.519  0.00  0.00    +0.002 A 
ATOM      2  C14 UNL     1       8.842   9.504  22.329  0.00  0.00    +0.121 A 
ATOM      3  N2  UNL     1       8.942   8.915  21.100  0.00  0.00    -0.235 NA
ATOM      4  C15 UNL     1       9.304   7.613  21.027  0.00  0.00    +0.156 A 
ATOM      5  N3  UNL     1       9.405   6.869  19.918  0.00  0.00    -0.260 N 
ATOM      6  N4  UNL     1       9.738   5.635  20.278  0.00  0.00    -0.171 NA
ATOM      7  C16 UNL     1       9.859   5.598  21.631  0.00  0.00    +0.102 A 
ATOM      8  C22 UNL     1       9.574   6.862  22.130  0.00  0.00    +0.047 A 
ATOM      9  C23 UNL     1       9.458   7.400  23.408  0.00  0.00    +0.023 A 
ATOM     10  H14 UNL     1       9.239   7.179  18.935  0.00  0.00    +0.191 HD
ENDROOT
BRANCH   1  14
ATOM     11  C9  UNL     1       8.692  10.592  27.377  0.00  0.00    +0.121 A 
ATOM     12  C10 UNL     1       9.914  10.679  26.687  0.00  0.00    +0.044 A 
ATOM     13  C11 UNL     1      10.046  10.083  25.432  0.00  0.00    +0.013 A 
ATOM     14  C12 UNL     1       8.965   9.403  24.853  0.00  0.00    +0.002 A 
ATOM     15  C24 UNL     1       7.757   9.347  25.566  0.00  0.00    +0.121 A 
ATOM     16  N6  UNL     1       7.655   9.932  26.788  0.00  0.00    -0.240 NA
BRANCH  11  18
ATOM     17  C1  UNL     1       8.583  10.315  29.866  0.00  0.00    +0.131 C 
ATOM     18  N1  UNL     1       8.506  11.185  28.686  0.00  0.00    -0.314 N 
BRANCH  18  19
ATOM     19  C2  UNL     1       8.293  12.632  28.866  0.00  0.00    +0.141 C 
BRANCH  19  20
ATOM     20  C3  UNL     1       9.610  13.348  29.016  0.00  0.00    -0.030 A 
ATOM     21  C4  UNL     1      10.209  13.962  27.903  0.00  0.00    +0.005 A 
ATOM     22  C5  UNL     1      11.432  14.627  28.037  0.00  0.00    +0.000 A 
ATOM     23  C6  UNL     1      12.068  14.677  29.280  0.00  0.00    +0.000 A 
ATOM     24  C7  UNL     1      11.486  14.060  30.390  0.00  0.00    +0.000 A 
ATOM     25  C8  UNL     1      10.264  13.393  30.260  0.00  0.00    +0.005 A 
ENDBRANCH  19  20
ENDBRANCH  18  19
ENDBRANCH  11  18
ENDBRANCH   1  14
BRANCH   7  26
ATOM     26  C17 UNL     1      10.221   4.379  22.384  0.00  0.00    +0.006 A 
ATOM     27  C18 UNL     1       9.368   3.266  22.356  0.00  0.00    +0.030 A 
ATOM     28  C19 UNL     1       9.719   2.110  23.059  0.00  0.00    +0.111 A 
ATOM     29  N5  UNL     1      10.885   2.061  23.753  0.00  0.00    -0.263 NA
ATOM     30  C20 UNL     1      11.740   3.118  23.784  0.00  0.00    +0.111 A 
ATOM     31  C21 UNL     1      11.428   4.293  23.096  0.00  0.00    +0.030 A 
ENDBRANCH   7  26
TORSDOF 5
ENDMDL
MODEL 7
REMARK VINA RESULT:    -6.960     13.865     15.718
REMARK INTER + INTRA:          -9.852
REMARK INTER:                  -8.717
REMARK INTRA:                  -1.135
REMARK UNBOUND:                -0.858
REMARK  Name = /home/qwerty/github/datacon2025hack/step_04_hit_selection/docking/ligands/lig_407.pdb
REMARK  6 active torsions:
REMARK  status: ('A' for Active; 'I' for Inactive)
REMARK    1  A    between atoms: C1_1  and  N1_2
REMARK    2  A    between atoms: N1_2  and  C2_3
REMARK    3  A    between atoms: N1_2  and  C9_10
REMARK    4  A    between atoms: C2_3  and  C3_4
REMARK    5  A    between atoms: C12_13  and  C13_14
REMARK    6  A    between atoms: C16_20  and  C17_21
REMARK                            x       y       z     vdW  Elec       q    Type
REMARK                         _______ _______ _______ _____ _____    ______ ____
ROOT
ATOM      1  C13 UNL     1      11.716  13.369  31.112  0.00  0.00    +0.002 A 
ATOM      2  C14 UNL     1      12.001  14.413  30.188  0.00  0.00    +0.121 A 
ATOM      3  N2  UNL     1      11.419  14.435  28.951  0.00  0.00    -0.235 NA
ATOM      4  C15 UNL     1      10.576  13.434  28.607  0.00  0.00    +0.156 A 
ATOM      5  N3  UNL     1       9.887  13.322  27.464  0.00  0.00    -0.260 N 
ATOM      6  N4  UNL     1       9.141  12.226  27.538  0.00  0.00    -0.171 NA
ATOM      7  C16 UNL     1       9.367  11.631  28.739  0.00  0.00    +0.102 A 
ATOM      8  C22 UNL     1      10.282  12.401  29.443  0.00  0.00    +0.047 A 
ATOM      9  C23 UNL     1      10.820  12.342  30.725  0.00  0.00    +0.023 A 
ATOM     10  H14 UNL     1       9.905  13.978  26.652  0.00  0.00    +0.191 HD
ENDROOT
BRANCH   1  14
ATOM     11  C9  UNL     1      13.543  13.334  34.992  0.00  0.00    +0.121 A 
ATOM     12  C10 UNL     1      12.238  13.835  34.839  0.00  0.00    +0.044 A 
ATOM     13  C11 UNL     1      11.643  13.849  33.577  0.00  0.00    +0.013 A 
ATOM     14  C12 UNL     1      12.337  13.359  32.461  0.00  0.00    +0.002 A 
ATOM     15  C24 UNL     1      13.632  12.855  32.654  0.00  0.00    +0.121 A 
ATOM     16  N6  UNL     1      14.192  12.857  33.892  0.00  0.00    -0.240 NA
BRANCH  11  18
ATOM     17  C1  UNL     1      14.626  14.580  36.879  0.00  0.00    +0.131 C 
ATOM     18  N1  UNL     1      14.209  13.307  36.278  0.00  0.00    -0.314 N 
BRANCH  18  19
ATOM     19  C2  UNL     1      14.433  12.051  37.016  0.00  0.00    +0.141 C 
BRANCH  19  20
ATOM     20  C3  UNL     1      13.248  11.131  36.874  0.00  0.00    -0.030 A 
ATOM     21  C4  UNL     1      13.324  10.010  36.031  0.00  0.00    +0.005 A 
ATOM     22  C5  UNL     1      12.227   9.154  35.894  0.00  0.00    +0.000 A 
ATOM     23  C6  UNL     1      11.045   9.416  36.592  0.00  0.00    +0.000 A 
ATOM     24  C7  UNL     1      10.956  10.536  37.424  0.00  0.00    +0.000 A 
ATOM     25  C8  UNL     1      12.051  11.394  37.562  0.00  0.00    +0.005 A 
ENDBRANCH  19  20
ENDBRANCH  18  19
ENDBRANCH  11  18
ENDBRANCH   1  14
BRANCH   7  26
ATOM     26  C17 UNL     1       8.704  10.382  29.167  0.00  0.00    +0.006 A 
ATOM     27  C18 UNL     1       9.464   9.218  29.352  0.00  0.00    +0.030 A 
ATOM     28  C19 UNL     1       8.837   8.042  29.769  0.00  0.00    +0.111 A 
ATOM     29  N5  UNL     1       7.500   8.029  30.008  0.00  0.00    -0.263 NA
ATOM     30  C20 UNL     1       6.739   9.146  29.855  0.00  0.00    +0.111 A 
ATOM     31  C21 UNL     1       7.327  10.344  29.439  0.00  0.00    +0.030 A 
ENDBRANCH   7  26
TORSDOF 5
ENDMDL
MODEL 8
REMARK VINA RESULT:    -6.887      5.592     11.107
REMARK INTER + INTRA:          -9.759
REMARK INTER:                  -8.893
REMARK INTRA:                  -0.866
REMARK UNBOUND:                -0.858
REMARK  Name = /home/qwerty/github/datacon2025hack/step_04_hit_selection/docking/ligands/lig_407.pdb
REMARK  6 active torsions:
REMARK  status: ('A' for Active; 'I' for Inactive)
REMARK    1  A    between atoms: C1_1  and  N1_2
REMARK    2  A    between atoms: N1_2  and  C2_3
REMARK    3  A    between atoms: N1_2  and  C9_10
REMARK    4  A    between atoms: C2_3  and  C3_4
REMARK    5  A    between atoms: C12_13  and  C13_14
REMARK    6  A    between atoms: C16_20  and  C17_21
REMARK                            x       y       z     vdW  Elec       q    Type
REMARK                         _______ _______ _______ _____ _____    ______ ____
ROOT
ATOM      1  C13 UNL     1      13.642   1.642  21.164  0.00  0.00    +0.002 A 
ATOM      2  C14 UNL     1      14.571   1.443  20.104  0.00  0.00    +0.121 A 
ATOM      3  N2  UNL     1      15.589   0.539  20.223  0.00  0.00    -0.235 NA
ATOM      4  C15 UNL     1      15.716  -0.155  21.377  0.00  0.00    +0.156 A 
ATOM      5  N3  UNL     1      16.619  -1.107  21.647  0.00  0.00    -0.260 N 
ATOM      6  N4  UNL     1      16.377  -1.572  22.867  0.00  0.00    -0.171 NA
ATOM      7  C16 UNL     1      15.312  -0.901  23.380  0.00  0.00    +0.102 A 
ATOM      8  C22 UNL     1      14.869   0.009  22.430  0.00  0.00    +0.047 A 
ATOM      9  C23 UNL     1      13.796   0.891  22.355  0.00  0.00    +0.023 A 
ATOM     10  H14 UNL     1      17.379  -1.450  21.017  0.00  0.00    +0.191 HD
ENDROOT
BRANCH   1  14
ATOM     11  C9  UNL     1      10.402   4.426  20.785  0.00  0.00    +0.121 A 
ATOM     12  C10 UNL     1      11.646   4.719  20.199  0.00  0.00    +0.044 A 
ATOM     13  C11 UNL     1      12.702   3.815  20.323  0.00  0.00    +0.013 A 
ATOM     14  C12 UNL     1      12.527   2.612  21.024  0.00  0.00    +0.002 A 
ATOM     15  C24 UNL     1      11.268   2.349  21.585  0.00  0.00    +0.121 A 
ATOM     16  N6  UNL     1      10.257   3.247  21.455  0.00  0.00    -0.240 NA
BRANCH  11  18
ATOM     17  C1  UNL     1       7.921   4.787  20.821  0.00  0.00    +0.131 C 
ATOM     18  N1  UNL     1       9.277   5.335  20.695  0.00  0.00    -0.314 N 
BRANCH  18  19
ATOM     19  C2  UNL     1       9.458   6.788  20.531  0.00  0.00    +0.141 C 
BRANCH  19  20
ATOM     20  C3  UNL     1       9.081   7.517  21.795  0.00  0.00    -0.030 A 
ATOM     21  C4  UNL     1       8.238   8.640  21.736  0.00  0.00    +0.005 A 
ATOM     22  C5  UNL     1       7.887   9.320  22.906  0.00  0.00    +0.000 A 
ATOM     23  C6  UNL     1       8.380   8.889  24.141  0.00  0.00    +0.000 A 
ATOM     24  C7  UNL     1       9.229   7.781  24.207  0.00  0.00    +0.000 A 
ATOM     25  C8  UNL     1       9.583   7.099  23.040  0.00  0.00    +0.005 A 
ENDBRANCH  19  20
ENDBRANCH  18  19
ENDBRANCH  11  18
ENDBRANCH   1  14
BRANCH   7  26
ATOM     26  C17 UNL     1      14.759  -1.159  24.726  0.00  0.00    +0.006 A 
ATOM     27  C18 UNL     1      14.473  -2.474  25.121  0.00  0.00    +0.030 A 
ATOM     28  C19 UNL     1      13.962  -2.716  26.398  0.00  0.00    +0.111 A 
ATOM     29  N5  UNL     1      13.756  -1.684  27.258  0.00  0.00    -0.263 NA
ATOM     30  C20 UNL     1      14.042  -0.401  26.910  0.00  0.00    +0.111 A 
ATOM     31  C21 UNL     1      14.553  -0.115  25.642  0.00  0.00    +0.030 A 
ENDBRANCH   7  26
TORSDOF 5
ENDMDL
MODEL 9
REMARK VINA RESULT:    -6.866     12.603     16.560
REMARK INTER + INTRA:          -9.731
REMARK INTER:                  -8.950
REMARK INTRA:                  -0.781
REMARK UNBOUND:                -0.858
REMARK  Name = /home/qwerty/github/datacon2025hack/step_04_hit_selection/docking/ligands/lig_407.pdb
REMARK  6 active torsions:
REMARK  status: ('A' for Active; 'I' for Inactive)
REMARK    1  A    between atoms: C1_1  and  N1_2
REMARK    2  A    between atoms: N1_2  and  C2_3
REMARK    3  A    between atoms: N1_2  and  C9_10
REMARK    4  A    between atoms: C2_3  and  C3_4
REMARK    5  A    between atoms: C12_13  and  C13_14
REMARK    6  A    between atoms: C16_20  and  C17_21
REMARK                            x       y       z     vdW  Elec       q    Type
REMARK                         _______ _______ _______ _____ _____    ______ ____
ROOT
ATOM      1  C13 UNL     1      11.055  13.001  28.097  0.00  0.00    +0.002 A 
ATOM      2  C14 UNL     1      11.678  14.117  27.472  0.00  0.00    +0.121 A 
ATOM      3  N2  UNL     1      12.344  15.054  28.211  0.00  0.00    -0.235 NA
ATOM      4  C15 UNL     1      12.388  14.916  29.556  0.00  0.00    +0.156 A 
ATOM      5  N3  UNL     1      13.032  15.708  30.424  0.00  0.00    -0.260 N 
ATOM      6  N4  UNL     1      12.868  15.203  31.642  0.00  0.00    -0.171 NA
ATOM      7  C16 UNL     1      12.105  14.084  31.546  0.00  0.00    +0.102 A 
ATOM      8  C22 UNL     1      11.794  13.879  30.208  0.00  0.00    +0.047 A 
ATOM      9  C23 UNL     1      11.130  12.879  29.506  0.00  0.00    +0.023 A 
ATOM     10  H14 UNL     1      13.584  16.566  30.203  0.00  0.00    +0.191 HD
ENDROOT
BRANCH   1  14
ATOM     11  C9  UNL     1       9.045  10.025  25.752  0.00  0.00    +0.121 A 
ATOM     12  C10 UNL     1       8.314  10.806  26.664  0.00  0.00    +0.044 A 
ATOM     13  C11 UNL     1       8.967  11.773  27.429  0.00  0.00    +0.013 A 
ATOM     14  C12 UNL     1      10.348  11.975  27.288  0.00  0.00    +0.002 A 
ATOM     15  C24 UNL     1      11.043  11.185  26.359  0.00  0.00    +0.121 A 
ATOM     16  N6  UNL     1      10.385  10.246  25.630  0.00  0.00    -0.240 NA
BRANCH  11  18
ATOM     17  C1  UNL     1       8.486   7.607  25.397  0.00  0.00    +0.131 C 
ATOM     18  N1  UNL     1       8.417   9.001  24.942  0.00  0.00    -0.314 N 
BRANCH  18  19
ATOM     19  C2  UNL     1       7.675   9.324  23.711  0.00  0.00    +0.141 C 
BRANCH  19  20
ATOM     20  C3  UNL     1       8.570   9.208  22.504  0.00  0.00    -0.030 A 
ATOM     21  C4  UNL     1       8.580   8.025  21.746  0.00  0.00    +0.005 A 
ATOM     22  C5  UNL     1       9.410   7.912  20.626  0.00  0.00    +0.000 A 
ATOM     23  C6  UNL     1      10.240   8.975  20.260  0.00  0.00    +0.000 A 
ATOM     24  C7  UNL     1      10.245  10.151  21.015  0.00  0.00    +0.000 A 
ATOM     25  C8  UNL     1       9.417  10.267  22.136  0.00  0.00    +0.005 A 
ENDBRANCH  19  20
ENDBRANCH  18  19
ENDBRANCH  11  18
ENDBRANCH   1  14
BRANCH   7  26
ATOM     26  C17 UNL     1      11.719  13.258  32.709  0.00  0.00    +0.006 A 
ATOM     27  C18 UNL     1      11.301  13.879  33.895  0.00  0.00    +0.030 A 
ATOM     28  C19 UNL     1      10.925  13.096  34.989  0.00  0.00    +0.111 A 
ATOM     29  N5  UNL     1      10.951  11.740  34.899  0.00  0.00    -0.263 NA
ATOM     30  C20 UNL     1      11.334  11.110  33.757  0.00  0.00    +0.111 A 
ATOM     31  C21 UNL     1      11.719  11.855  32.640  0.00  0.00    +0.030 A 
ENDBRANCH   7  26
TORSDOF 5
ENDMDL
