REMARK  Name = /home/qwerty/github/datacon2025hack/step_04_hit_selection/docking/ligands/lig_254.pdb
REMARK  4 active torsions:
REMARK  status: ('A' for Active; 'I' for Inactive)
REMARK    1  A    between atoms: C1_1  and  C2_2
REMARK    2  A    between atoms: N1_10  and  C9_11
REMARK    3  A    between atoms: C9_11  and  C10_12
REMARK    4  A    between atoms: N2_14  and  C11_15
REMARK                            x       y       z     vdW  Elec       q    Type
REMARK                         _______ _______ _______ _____ _____    ______ ____
ROOT
ATOM      1  C10 UNL     1       0.726   1.850   0.349  0.00  0.00    +0.235 C 
ATOM      2  O2  UNL     1       0.862   1.673   1.590  0.00  0.00    -0.274 OA
ATOM      3  N2  UNL     1       1.525   1.110  -0.587  0.00  0.00    -0.284 N 
ATOM      4  H9  UNL     1       1.206   1.080  -1.582  0.00  0.00    +0.155 HD
ENDROOT
BRANCH   3   5
ATOM      5  C11 UNL     1       2.660   0.308  -0.222  0.00  0.00    +0.035 A 
ATOM      6  C12 UNL     1       2.949  -0.859  -0.967  0.00  0.00    +0.024 A 
ATOM      7  C13 UNL     1       4.063  -1.656  -0.653  0.00  0.00    +0.015 A 
ATOM      8  C14 UNL     1       4.889  -1.267   0.403  0.00  0.00    +0.040 A 
ATOM      9  C15 UNL     1       4.618  -0.121   1.116  0.00  0.00    +0.124 A 
ATOM     10  C16 UNL     1       3.524   0.691   0.828  0.00  0.00    +0.053 A 
ATOM     11  S1  UNL     1       5.834   0.093   2.324  0.00  0.00    +0.101 S 
ATOM     12  O3  UNL     1       5.286   0.008   3.720  0.00  0.00    -0.146 OA
ATOM     13  O4  UNL     1       6.660   1.328   2.102  0.00  0.00    -0.146 OA
ATOM     14  N3  UNL     1       6.696  -1.339   1.886  0.00  0.00    -0.116 NA
ATOM     15  C17 UNL     1       6.107  -1.937   0.894  0.00  0.00    +0.160 C 
ATOM     16 CL1  UNL     1       6.740  -3.425   0.216  0.00  0.00    -0.060 Cl
ENDBRANCH   3   5
BRANCH   1  17
ATOM     17  C9  UNL     1      -0.348   2.769  -0.145  0.00  0.00    +0.213 C 
BRANCH  17  27
ATOM     18  C1  UNL     1      -6.197  -1.895   0.774  0.00  0.00    +0.044 C 
ATOM     19  C2  UNL     1      -5.122  -1.085   0.114  0.00  0.00    -0.050 A 
ATOM     20  C3  UNL     1      -4.782  -1.324  -1.241  0.00  0.00    +0.004 A 
ATOM     21  C4  UNL     1      -3.749  -0.597  -1.860  0.00  0.00    +0.014 A 
ATOM     22  C5  UNL     1      -3.071   0.353  -1.101  0.00  0.00    +0.049 A 
ATOM     23  C6  UNL     1      -3.386   0.579   0.221  0.00  0.00    +0.050 A 
ATOM     24  C7  UNL     1      -4.401  -0.129   0.862  0.00  0.00    +0.017 A 
ATOM     25  C8  UNL     1      -2.475   1.601   0.724  0.00  0.00    +0.254 C 
ATOM     26  O1  UNL     1      -2.436   2.032   1.907  0.00  0.00    -0.270 OA
ATOM     27  N1  UNL     1      -1.597   2.033  -0.319  0.00  0.00    -0.225 N 
ATOM     28  C18 UNL     1      -1.959   1.231  -1.447  0.00  0.00    +0.254 C 
ATOM     29  O5  UNL     1      -1.382   1.278  -2.565  0.00  0.00    -0.270 OA
ENDBRANCH  17  27
ENDBRANCH   1  17
TORSDOF 3
