REMARK  Name = /home/qwerty/github/datacon2025hack/step_04_hit_selection/docking/ligands/lig_683.pdb
REMARK  9 active torsions:
REMARK  status: ('A' for Active; 'I' for Inactive)
REMARK    1  A    between atoms: C1_1  and  C2_2
REMARK    2  A    between atoms: C6_8  and  C7_9
REMARK    3  A    between atoms: N2_11  and  C8_12
REMARK    4  A    between atoms: C8_12  and  C9_13
REMARK    5  A    between atoms: C9_13  and  C10_14
REMARK    6  A    between atoms: C9_13  and  N3_15
REMARK    7  A    between atoms: C11_16  and  C12_18
REMARK    8  A    between atoms: N4_21  and  C15_22
REMARK    9  A    between atoms: C16_23  and  C17_24
REMARK                            x       y       z     vdW  Elec       q    Type
REMARK                         _______ _______ _______ _____ _____    ______ ____
ROOT
ATOM      1  C8  UNL     1      -0.221   1.420  -0.570  0.00  0.00    +0.126 C 
ENDROOT
BRANCH   1   4
ATOM      2  C7  UNL     1      -2.656   0.721  -0.743  0.00  0.00    +0.234 C 
ATOM      3  O2  UNL     1      -2.362  -0.216  -1.535  0.00  0.00    -0.274 OA
ATOM      4  N2  UNL     1      -1.640   1.621  -0.280  0.00  0.00    -0.312 N 
ATOM      5  H11 UNL     1      -1.921   2.470   0.259  0.00  0.00    +0.149 HD
BRANCH   2  13
ATOM      6  C1  UNL     1      -3.419  -0.955   1.992  0.00  0.00    +0.109 C 
ATOM      7  C2  UNL     1      -4.493  -1.245   0.989  0.00  0.00    +0.213 C 
ATOM      8  O1  UNL     1      -5.161  -2.309   1.104  0.00  0.00    -0.276 OA
ATOM      9  N1  UNL     1      -4.753  -0.355  -0.113  0.00  0.00    -0.290 N 
ATOM     10  C3  UNL     1      -5.778  -0.624  -1.108  0.00  0.00    +0.108 C 
ATOM     11  C4  UNL     1      -5.681   0.511  -2.119  0.00  0.00    +0.021 C 
ATOM     12  C5  UNL     1      -4.891   1.618  -1.426  0.00  0.00    +0.033 C 
ATOM     13  C6  UNL     1      -4.089   0.926  -0.323  0.00  0.00    +0.162 C 
ENDBRANCH   2  13
ENDBRANCH   1   4
BRANCH   1  14
ATOM     14  C9  UNL     1       0.361   0.266   0.270  0.00  0.00    +0.087 C 
ATOM     15  C10 UNL     1       0.323   0.604   1.766  0.00  0.00    +0.029 C 
BRANCH  14  16
ATOM     16  N3  UNL     1       1.743  -0.007  -0.138  0.00  0.00    -0.307 N 
ATOM     17  C11 UNL     1       2.424  -1.216   0.232  0.00  0.00    +0.246 C 
ATOM     18  O3  UNL     1       1.768  -2.194   0.682  0.00  0.00    -0.270 OA
ATOM     19  H18 UNL     1       2.231   0.664  -0.772  0.00  0.00    +0.149 HD
BRANCH  17  20
ATOM     20  C12 UNL     1       3.882  -1.352   0.051  0.00  0.00    +0.057 A 
ATOM     21  C13 UNL     1       4.541  -2.544  -0.196  0.00  0.00    +0.032 A 
ATOM     22  C14 UNL     1       5.882  -2.239  -0.299  0.00  0.00    +0.086 A 
ATOM     23  N4  UNL     1       6.070  -0.917  -0.122  0.00  0.00    -0.353 N 
ATOM     24  C15 UNL     1       7.364  -0.240  -0.114  0.00  0.00    +0.148 C 
ATOM     25  C16 UNL     1       4.860  -0.365   0.122  0.00  0.00    +0.027 A 
ATOM     26  C17 UNL     1       4.644   1.086   0.445  0.00  0.00    +0.064 C 
ENDBRANCH  17  20
ENDBRANCH  14  16
ENDBRANCH   1  14
TORSDOF 5
