REMARK  Name = /home/qwerty/github/datacon2025hack/step_04_hit_selection/docking/ligands/lig_122.pdb
REMARK  4 active torsions:
REMARK  status: ('A' for Active; 'I' for Inactive)
REMARK    1  A    between atoms: C1_1  and  C2_2
REMARK    2  A    between atoms: C4_4  and  C5_5
REMARK    3  A    between atoms: C7_8  and  C8_10
REMARK    4  A    between atoms: C10_12  and  C11_13
REMARK                            x       y       z     vdW  Elec       q    Type
REMARK                         _______ _______ _______ _____ _____    ______ ____
ROOT
ATOM      1  C8  UNL     1       1.769  -0.405  -0.505  0.00  0.00    +0.073 A 
ATOM      2  C9  UNL     1       3.036   0.122  -0.812  0.00  0.00    +0.028 A 
ATOM      3  C10 UNL     1       4.126  -0.068   0.054  0.00  0.00    +0.056 A 
ATOM      4  C12 UNL     1       3.928  -0.766   1.257  0.00  0.00    +0.015 A 
ATOM      5  C13 UNL     1       2.678  -1.308   1.561  0.00  0.00    +0.039 A 
ATOM      6  C14 UNL     1       1.604  -1.139   0.684  0.00  0.00    +0.136 A 
ATOM      7  F4  UNL     1       0.414  -1.714   0.989  0.00  0.00    -0.205 F 
ENDROOT
BRANCH   1  15
ATOM      8  C1  UNL     1      -2.887  -2.234  -0.516  0.00  0.00    +0.009 C 
ATOM      9  C2  UNL     1      -3.061  -0.811  -1.071  0.00  0.00    +0.004 C 
ATOM     10  C3  UNL     1      -3.393   0.207   0.039  0.00  0.00    +0.009 C 
ATOM     11  C4  UNL     1      -2.180   0.504   0.941  0.00  0.00    +0.004 C 
ATOM     12  C5  UNL     1      -2.532   1.572   1.983  0.00  0.00    +0.009 C 
ATOM     13  C6  UNL     1      -0.977   0.952   0.095  0.00  0.00    +0.111 C 
ATOM     14  N1  UNL     1      -0.710  -0.018  -0.977  0.00  0.00    -0.297 N 
ATOM     15  C7  UNL     1       0.642  -0.199  -1.444  0.00  0.00    +0.249 C 
ATOM     16  O1  UNL     1       0.878  -0.173  -2.684  0.00  0.00    -0.270 OA
ATOM     17  C15 UNL     1      -1.824  -0.365  -1.871  0.00  0.00    +0.111 C 
ENDBRANCH   1  15
BRANCH   3  18
ATOM     18  C11 UNL     1       5.465   0.554  -0.257  0.00  0.00    +0.417 C 
ATOM     19  F1  UNL     1       5.678   0.592  -1.624  0.00  0.00    -0.166 F 
ATOM     20  F2  UNL     1       6.491  -0.174   0.320  0.00  0.00    -0.166 F 
ATOM     21  F3  UNL     1       5.493   1.844   0.240  0.00  0.00    -0.166 F 
ENDBRANCH   3  18
TORSDOF 2
