REMARK  Name = /home/qwerty/github/datacon2025hack/step_04_hit_selection/docking/ligands/lig_662.pdb
REMARK  4 active torsions:
REMARK  status: ('A' for Active; 'I' for Inactive)
REMARK    1  A    between atoms: C1_1  and  C2_2
REMARK    2  A    between atoms: C3_3  and  N1_4
REMARK    3  A    between atoms: C10_13  and  C11_14
REMARK    4  A    between atoms: C19_23  and  C20_24
REMARK                            x       y       z     vdW  Elec       q    Type
REMARK                         _______ _______ _______ _____ _____    ______ ____
ROOT
ATOM      1  N1  UNL     1       1.565  -0.245   0.288  0.00  0.00    -0.269 N 
ATOM      2  C4  UNL     1       0.392   0.214  -0.396  0.00  0.00    +0.307 C 
ATOM      3  O1  UNL     1       0.419   1.281  -1.067  0.00  0.00    -0.252 OA
ATOM      4  N2  UNL     1      -0.812  -0.549  -0.333  0.00  0.00    -0.281 N 
ATOM      5  C5  UNL     1      -1.240  -1.841   0.250  0.00  0.00    +0.118 C 
ATOM      6  C6  UNL     1      -2.639  -1.778  -0.274  0.00  0.00    +0.005 C 
ATOM      7  C7  UNL     1      -3.785  -2.078   0.687  0.00  0.00    +0.010 C 
ATOM      8  C8  UNL     1      -4.230  -3.197  -0.258  0.00  0.00    +0.001 C 
ATOM      9  C9  UNL     1      -3.090  -2.875  -1.228  0.00  0.00    +0.010 C 
ATOM     10  C10 UNL     1      -2.200  -0.452  -0.848  0.00  0.00    +0.088 C 
ATOM     11  H4  UNL     1       1.535  -1.179   0.754  0.00  0.00    +0.156 HD
ENDROOT
BRANCH   1  14
ATOM     12  C1  UNL     1       4.157  -1.385  -0.470  0.00  0.00    +0.046 C 
ATOM     13  C2  UNL     1       4.036   0.013   0.097  0.00  0.00    -0.018 A 
ATOM     14  C3  UNL     1       2.757   0.549   0.407  0.00  0.00    +0.038 A 
ATOM     15  C16 UNL     1       2.648   1.856   0.902  0.00  0.00    +0.023 A 
ATOM     16  C17 UNL     1       3.781   2.636   1.099  0.00  0.00    +0.003 A 
ATOM     17  C18 UNL     1       5.041   2.124   0.810  0.00  0.00    +0.012 A 
ATOM     18  C19 UNL     1       5.196   0.820   0.302  0.00  0.00    +0.027 A 
BRANCH  18  19
ATOM     19  C20 UNL     1       6.583   0.356   0.016  0.00  0.00    +0.205 A 
ATOM     20  N3  UNL     1       7.692   0.958   0.500  0.00  0.00    -0.108 NA
ATOM     21  N4  UNL     1       8.706   0.273  -0.001  0.00  0.00    -0.049 NA
ATOM     22  N5  UNL     1       8.236  -0.700  -0.761  0.00  0.00    -0.176 N 
ATOM     23  N6  UNL     1       6.915  -0.680  -0.780  0.00  0.00    -0.133 NA
ATOM     24  H26 UNL     1       8.826  -1.389  -1.278  0.00  0.00    +0.214 HD
ENDBRANCH  18  19
ENDBRANCH   1  14
BRANCH  10  25
ATOM     25  C11 UNL     1      -2.873   0.870  -0.386  0.00  0.00    +0.014 C 
ATOM     26  C12 UNL     1      -2.845   1.119   1.137  0.00  0.00    +0.033 C 
ATOM     27  C13 UNL     1      -3.614   2.403   1.471  0.00  0.00    +0.160 C 
ATOM     28  O2  UNL     1      -4.940   2.337   0.980  0.00  0.00    -0.380 OA
ATOM     29  C14 UNL     1      -4.930   2.328  -0.435  0.00  0.00    +0.160 C 
ATOM     30  C15 UNL     1      -4.285   1.044  -0.973  0.00  0.00    +0.033 C 
ENDBRANCH  10  25
TORSDOF 3
