REMARK  Name = /home/qwerty/github/datacon2025hack/step_04_hit_selection/docking/ligands/lig_670.pdb
REMARK  8 active torsions:
REMARK  status: ('A' for Active; 'I' for Inactive)
REMARK    1  A    between atoms: C1_1  and  C2_2
REMARK    2  A    between atoms: C2_2  and  C3_3
REMARK    3  A    between atoms: C2_2  and  C4_4
REMARK    4  A    between atoms: N1_6  and  C5_7
REMARK    5  A    between atoms: C8_10  and  C9_11
REMARK    6  A    between atoms: N2_13  and  C10_14
REMARK    7  A    between atoms: C10_14  and  C11_15
REMARK    8  A    between atoms: C15_20  and  C16_21
REMARK                            x       y       z     vdW  Elec       q    Type
REMARK                         _______ _______ _______ _____ _____    ______ ____
ROOT
ATOM      1  C9  UNL     1      -0.674   0.640  -0.376  0.00  0.00    +0.244 C 
ATOM      2  O2  UNL     1      -1.158   1.193   0.649  0.00  0.00    -0.270 OA
ATOM      3  N2  UNL     1      -1.549   0.222  -1.438  0.00  0.00    -0.311 N 
ATOM      4  H11 UNL     1      -1.168  -0.302  -2.256  0.00  0.00    +0.149 HD
ENDROOT
BRANCH   1   8
ATOM      5  C5  UNL     1       3.585   0.026  -0.571  0.00  0.00    +0.033 A 
ATOM      6  C6  UNL     1       2.927   0.100   0.669  0.00  0.00    +0.024 A 
ATOM      7  C7  UNL     1       1.545   0.305   0.725  0.00  0.00    +0.015 A 
ATOM      8  C8  UNL     1       0.790   0.419  -0.455  0.00  0.00    +0.037 A 
ATOM      9  C19 UNL     1       1.450   0.335  -1.694  0.00  0.00    +0.015 A 
ATOM     10  C20 UNL     1       2.832   0.130  -1.748  0.00  0.00    +0.024 A 
BRANCH   5  13
ATOM     11  C4  UNL     1       5.957   0.288   0.296  0.00  0.00    +0.220 C 
ATOM     12  O1  UNL     1       5.632   1.192   1.114  0.00  0.00    -0.275 OA
ATOM     13  N1  UNL     1       5.001  -0.207  -0.657  0.00  0.00    -0.285 N 
ATOM     14  H8  UNL     1       5.367  -0.693  -1.507  0.00  0.00    +0.155 HD
BRANCH  11  16
ATOM     15  C1  UNL     1       7.858  -0.596   1.664  0.00  0.00    +0.017 C 
ATOM     16  C2  UNL     1       7.379  -0.209   0.260  0.00  0.00    +0.069 C 
ATOM     17  C3  UNL     1       8.295   0.850  -0.358  0.00  0.00    +0.017 C 
ENDBRANCH  11  16
ENDBRANCH   5  13
ENDBRANCH   1   8
BRANCH   3  18
ATOM     18  C10 UNL     1      -2.989   0.481  -1.412  0.00  0.00    +0.111 C 
BRANCH  18  19
ATOM     19  C11 UNL     1      -3.712  -0.479  -0.437  0.00  0.00    +0.040 C 
ATOM     20  C12 UNL     1      -3.496  -1.944  -0.866  0.00  0.00    +0.010 C 
ATOM     21  C13 UNL     1      -4.344  -2.887  -0.015  0.00  0.00    +0.028 C 
ATOM     22  C14 UNL     1      -5.797  -2.411  -0.007  0.00  0.00    +0.160 C 
ATOM     23  O3  UNL     1      -5.886  -1.095   0.503  0.00  0.00    -0.372 OA
ATOM     24  C15 UNL     1      -5.236  -0.181  -0.365  0.00  0.00    +0.156 C 
BRANCH  24  25
ATOM     25  C16 UNL     1      -5.488   1.206   0.156  0.00  0.00    +0.019 A 
ATOM     26  C17 UNL     1      -5.239   1.685   1.428  0.00  0.00    +0.140 A 
ATOM     27  N3  UNL     1      -5.570   2.990   1.480  0.00  0.00    -0.182 NA
ATOM     28  N4  UNL     1      -6.014   3.344   0.284  0.00  0.00    -0.284 N 
ATOM     29  C18 UNL     1      -5.977   2.287  -0.546  0.00  0.00    +0.111 A 
ATOM     30  H23 UNL     1      -6.337   4.305   0.038  0.00  0.00    +0.188 HD
ENDBRANCH  24  25
ENDBRANCH  18  19
ENDBRANCH   3  18
TORSDOF 6
