MODEL 1
REMARK VINA RESULT:    -5.832      0.000      0.000
REMARK INTER + INTRA:          -9.216
REMARK INTER:                  -8.219
REMARK INTRA:                  -0.997
REMARK UNBOUND:                -0.997
REMARK  Name = /home/qwerty/github/datacon2025hack/step_04_hit_selection/docking/ligands/lig_696.pdb
REMARK  8 active torsions:
REMARK  status: ('A' for Active; 'I' for Inactive)
REMARK    1  A    between atoms: C1_1  and  O1_2
REMARK    2  A    between atoms: O1_2  and  C2_3
REMARK    3  A    between atoms: C7_9  and  N1_10
REMARK    4  A    between atoms: C8_11  and  C9_13
REMARK    5  A    between atoms: N2_15  and  C10_16
REMARK    6  A    between atoms: N4_19  and  C12_20
REMARK    7  A    between atoms: C12_20  and  C13_21
REMARK    8  A    between atoms: N5_23  and  C14_24
REMARK                            x       y       z     vdW  Elec       q    Type
REMARK                         _______ _______ _______ _____ _____    ______ ____
ROOT
ATOM      1  C9  UNL     1      21.378   5.906  23.560  0.00  0.00    +0.304 C 
ATOM      2  O3  UNL     1      20.713   6.977  23.534  0.00  0.00    -0.265 OA
ATOM      3  N2  UNL     1      22.310   5.608  22.507  0.00  0.00    -0.275 N 
ATOM      4  H8  UNL     1      22.655   4.625  22.408  0.00  0.00    +0.155 HD
ENDROOT
BRANCH   3   5
ATOM      5  C10 UNL     1      22.768   6.568  21.544  0.00  0.00    +0.072 A 
ATOM      6  C11 UNL     1      22.091   6.957  20.406  0.00  0.00    +0.157 A 
ATOM      7  N3  UNL     1      22.866   7.813  19.710  0.00  0.00    -0.177 NA
ATOM      8  N4  UNL     1      23.999   7.967  20.380  0.00  0.00    -0.261 N 
ATOM      9  C17 UNL     1      23.988   7.211  21.496  0.00  0.00    +0.132 A 
BRANCH   8  10
ATOM     10  C12 UNL     1      25.122   8.766  19.902  0.00  0.00    +0.239 C 
BRANCH  10  11
ATOM     11  C13 UNL     1      24.728  10.210  19.835  0.00  0.00    +0.235 C 
ATOM     12  O4  UNL     1      25.278  10.962  18.986  0.00  0.00    -0.274 OA
ATOM     13  N5  UNL     1      23.715  10.723  20.708  0.00  0.00    -0.311 N 
ATOM     14  H12 UNL     1      23.181  10.063  21.316  0.00  0.00    +0.149 HD
BRANCH  13  15
ATOM     15  C14 UNL     1      23.267  12.110  20.624  0.00  0.00    +0.073 C 
ATOM     16  C15 UNL     1      23.672  12.947  21.827  0.00  0.00    +0.024 C 
ATOM     17  C16 UNL     1      22.232  12.485  21.669  0.00  0.00    +0.024 C 
ENDBRANCH  13  15
ENDBRANCH  10  11
ENDBRANCH   8  10
ENDBRANCH   3   5
BRANCH   1  19
ATOM     18  N1  UNL     1      21.884   3.706  24.694  0.00  0.00    -0.275 N 
ATOM     19  C8  UNL     1      21.162   4.948  24.660  0.00  0.00    +0.304 C 
ATOM     20  O2  UNL     1      20.313   5.210  25.555  0.00  0.00    -0.265 OA
ATOM     21  H7  UNL     1      22.336   3.371  23.814  0.00  0.00    +0.155 HD
BRANCH  18  28
ATOM     22  C2  UNL     1      20.901   1.743  25.856  0.00  0.00    +0.143 A 
ATOM     23  C3  UNL     1      20.891   0.883  26.973  0.00  0.00    +0.067 A 
ATOM     24  C4  UNL     1      21.776   1.092  28.034  0.00  0.00    +0.045 A 
ATOM     25 CL1  UNL     1      21.748   0.022  29.424  0.00  0.00    -0.083 Cl
ATOM     26  C5  UNL     1      22.674   2.160  27.996  0.00  0.00    +0.022 A 
ATOM     27  C6  UNL     1      22.698   3.013  26.891  0.00  0.00    +0.028 A 
ATOM     28  C7  UNL     1      21.836   2.799  25.807  0.00  0.00    +0.076 A 
BRANCH  22  30
ATOM     29  C1  UNL     1      19.193   0.431  24.577  0.00  0.00    +0.277 C 
ATOM     30  O1  UNL     1      19.987   1.592  24.801  0.00  0.00    -0.493 OA
ENDBRANCH  22  30
ENDBRANCH  18  28
ENDBRANCH   1  19
TORSDOF 7
ENDMDL
MODEL 2
REMARK VINA RESULT:    -5.815      7.270      8.448
REMARK INTER + INTRA:          -9.192
REMARK INTER:                  -8.537
REMARK INTRA:                  -0.655
REMARK UNBOUND:                -0.997
REMARK  Name = /home/qwerty/github/datacon2025hack/step_04_hit_selection/docking/ligands/lig_696.pdb
REMARK  8 active torsions:
REMARK  status: ('A' for Active; 'I' for Inactive)
REMARK    1  A    between atoms: C1_1  and  O1_2
REMARK    2  A    between atoms: O1_2  and  C2_3
REMARK    3  A    between atoms: C7_9  and  N1_10
REMARK    4  A    between atoms: C8_11  and  C9_13
REMARK    5  A    between atoms: N2_15  and  C10_16
REMARK    6  A    between atoms: N4_19  and  C12_20
REMARK    7  A    between atoms: C12_20  and  C13_21
REMARK    8  A    between atoms: N5_23  and  C14_24
REMARK                            x       y       z     vdW  Elec       q    Type
REMARK                         _______ _______ _______ _____ _____    ______ ____
ROOT
ATOM      1  C9  UNL     1      18.984   0.738  24.921  0.00  0.00    +0.304 C 
ATOM      2  O3  UNL     1      19.857   0.738  24.012  0.00  0.00    -0.265 OA
ATOM      3  N2  UNL     1      17.602   0.509  24.599  0.00  0.00    -0.275 N 
ATOM      4  H8  UNL     1      16.875   0.761  25.306  0.00  0.00    +0.155 HD
ENDROOT
BRANCH   3   5
ATOM      5  C10 UNL     1      17.146  -0.006  23.339  0.00  0.00    +0.072 A 
ATOM      6  C11 UNL     1      17.175  -1.331  22.950  0.00  0.00    +0.157 A 
ATOM      7  N3  UNL     1      16.740  -1.420  21.677  0.00  0.00    -0.177 NA
ATOM      8  N4  UNL     1      16.442  -0.195  21.267  0.00  0.00    -0.261 N 
ATOM      9  C17 UNL     1      16.692   0.699  22.244  0.00  0.00    +0.132 A 
BRANCH   8  10
ATOM     10  C12 UNL     1      16.005   0.123  19.912  0.00  0.00    +0.239 C 
BRANCH  10  11
ATOM     11  C13 UNL     1      15.066   1.290  19.940  0.00  0.00    +0.235 C 
ATOM     12  O4  UNL     1      13.890   1.127  20.365  0.00  0.00    -0.274 OA
ATOM     13  N5  UNL     1      15.509   2.584  19.516  0.00  0.00    -0.311 N 
ATOM     14  H12 UNL     1      16.518   2.730  19.288  0.00  0.00    +0.149 HD
BRANCH  13  15
ATOM     15  C14 UNL     1      14.635   3.751  19.589  0.00  0.00    +0.073 C 
ATOM     16  C15 UNL     1      15.391   5.070  19.606  0.00  0.00    +0.024 C 
ATOM     17  C16 UNL     1      14.764   4.535  20.884  0.00  0.00    +0.024 C 
ENDBRANCH  13  15
ENDBRANCH  10  11
ENDBRANCH   8  10
ENDBRANCH   3   5
BRANCH   1  19
ATOM     18  N1  UNL     1      20.768   1.273  26.628  0.00  0.00    -0.275 N 
ATOM     19  C8  UNL     1      19.390   1.012  26.313  0.00  0.00    +0.304 C 
ATOM     20  O2  UNL     1      18.527   0.983  27.231  0.00  0.00    -0.265 OA
ATOM     21  H7  UNL     1      21.498   0.995  25.934  0.00  0.00    +0.155 HD
BRANCH  18  28
ATOM     22  C2  UNL     1      21.920   0.823  28.783  0.00  0.00    +0.143 A 
ATOM     23  C3  UNL     1      22.327   1.283  30.052  0.00  0.00    +0.067 A 
ATOM     24  C4  UNL     1      22.006   2.577  30.472  0.00  0.00    +0.045 A 
ATOM     25 CL1  UNL     1      22.509   3.135  32.057  0.00  0.00    -0.083 Cl
ATOM     26  C5  UNL     1      21.273   3.421  29.637  0.00  0.00    +0.022 A 
ATOM     27  C6  UNL     1      20.871   2.979  28.375  0.00  0.00    +0.028 A 
ATOM     28  C7  UNL     1      21.210   1.694  27.929  0.00  0.00    +0.076 A 
BRANCH  22  30
ATOM     29  C1  UNL     1      23.244  -1.303  28.840  0.00  0.00    +0.277 C 
ATOM     30  O1  UNL     1      22.180  -0.489  28.355  0.00  0.00    -0.493 OA
ENDBRANCH  22  30
ENDBRANCH  18  28
ENDBRANCH   1  19
TORSDOF 7
ENDMDL
MODEL 3
REMARK VINA RESULT:    -5.678     14.225     16.132
REMARK INTER + INTRA:          -8.999
REMARK INTER:                  -8.299
REMARK INTRA:                  -0.701
REMARK UNBOUND:                -0.997
REMARK  Name = /home/qwerty/github/datacon2025hack/step_04_hit_selection/docking/ligands/lig_696.pdb
REMARK  8 active torsions:
REMARK  status: ('A' for Active; 'I' for Inactive)
REMARK    1  A    between atoms: C1_1  and  O1_2
REMARK    2  A    between atoms: O1_2  and  C2_3
REMARK    3  A    between atoms: C7_9  and  N1_10
REMARK    4  A    between atoms: C8_11  and  C9_13
REMARK    5  A    between atoms: N2_15  and  C10_16
REMARK    6  A    between atoms: N4_19  and  C12_20
REMARK    7  A    between atoms: C12_20  and  C13_21
REMARK    8  A    between atoms: N5_23  and  C14_24
REMARK                            x       y       z     vdW  Elec       q    Type
REMARK                         _______ _______ _______ _____ _____    ______ ____
ROOT
ATOM      1  C9  UNL     1      18.144  12.868  35.471  0.00  0.00    +0.304 C 
ATOM      2  O3  UNL     1      18.200  13.399  34.329  0.00  0.00    -0.265 OA
ATOM      3  N2  UNL     1      17.086  13.216  36.379  0.00  0.00    -0.275 N 
ATOM      4  H8  UNL     1      17.193  12.970  37.390  0.00  0.00    +0.155 HD
ENDROOT
BRANCH   3   5
ATOM      5  C10 UNL     1      15.899  13.926  35.996  0.00  0.00    +0.072 A 
ATOM      6  C11 UNL     1      15.409  15.066  36.602  0.00  0.00    +0.157 A 
ATOM      7  N3  UNL     1      14.239  15.398  36.020  0.00  0.00    -0.177 NA
ATOM      8  N4  UNL     1      13.990  14.504  35.074  0.00  0.00    -0.261 N 
ATOM      9  C17 UNL     1      14.970  13.578  35.038  0.00  0.00    +0.132 A 
BRANCH   8  10
ATOM     10  C12 UNL     1      12.773  14.488  34.271  0.00  0.00    +0.239 C 
BRANCH  10  11
ATOM     11  C13 UNL     1      11.930  13.309  34.646  0.00  0.00    +0.235 C 
ATOM     12  O4  UNL     1      11.383  12.625  33.739  0.00  0.00    -0.274 OA
ATOM     13  N5  UNL     1      11.771  12.943  36.022  0.00  0.00    -0.311 N 
ATOM     14  H12 UNL     1      12.330  13.440  36.751  0.00  0.00    +0.149 HD
BRANCH  13  15
ATOM     15  C14 UNL     1      11.006  11.764  36.414  0.00  0.00    +0.073 C 
ATOM     16  C15 UNL     1      10.532  11.806  37.858  0.00  0.00    +0.024 C 
ATOM     17  C16 UNL     1      11.693  10.907  37.463  0.00  0.00    +0.024 C 
ENDBRANCH  13  15
ENDBRANCH  10  11
ENDBRANCH   8  10
ENDBRANCH   3   5
BRANCH   1  19
ATOM     18  N1  UNL     1      19.031  10.508  35.635  0.00  0.00    -0.275 N 
ATOM     19  C8  UNL     1      19.194  11.916  35.877  0.00  0.00    +0.304 C 
ATOM     20  O2  UNL     1      20.223  12.340  36.470  0.00  0.00    -0.265 OA
ATOM     21  H7  UNL     1      18.072  10.147  35.434  0.00  0.00    +0.155 HD
BRANCH  18  28
ATOM     22  C2  UNL     1      20.033   8.669  36.971  0.00  0.00    +0.143 A 
ATOM     23  C3  UNL     1      21.082   7.746  37.156  0.00  0.00    +0.067 A 
ATOM     24  C4  UNL     1      22.164   7.719  36.272  0.00  0.00    +0.045 A 
ATOM     25 CL1  UNL     1      23.470   6.572  36.518  0.00  0.00    -0.083 Cl
ATOM     26  C5  UNL     1      22.215   8.613  35.201  0.00  0.00    +0.022 A 
ATOM     27  C6  UNL     1      21.178   9.526  35.003  0.00  0.00    +0.028 A 
ATOM     28  C7  UNL     1      20.073   9.546  35.865  0.00  0.00    +0.076 A 
BRANCH  22  30
ATOM     29  C1  UNL     1      17.809   7.921  37.846  0.00  0.00    +0.277 C 
ATOM     30  O1  UNL     1      18.961   8.757  37.873  0.00  0.00    -0.493 OA
ENDBRANCH  22  30
ENDBRANCH  18  28
ENDBRANCH   1  19
TORSDOF 7
ENDMDL
MODEL 4
REMARK VINA RESULT:    -5.642      7.004     11.819
REMARK INTER + INTRA:          -8.947
REMARK INTER:                  -8.106
REMARK INTRA:                  -0.841
REMARK UNBOUND:                -0.997
REMARK  Name = /home/qwerty/github/datacon2025hack/step_04_hit_selection/docking/ligands/lig_696.pdb
REMARK  8 active torsions:
REMARK  status: ('A' for Active; 'I' for Inactive)
REMARK    1  A    between atoms: C1_1  and  O1_2
REMARK    2  A    between atoms: O1_2  and  C2_3
REMARK    3  A    between atoms: C7_9  and  N1_10
REMARK    4  A    between atoms: C8_11  and  C9_13
REMARK    5  A    between atoms: N2_15  and  C10_16
REMARK    6  A    between atoms: N4_19  and  C12_20
REMARK    7  A    between atoms: C12_20  and  C13_21
REMARK    8  A    between atoms: N5_23  and  C14_24
REMARK                            x       y       z     vdW  Elec       q    Type
REMARK                         _______ _______ _______ _____ _____    ______ ____
ROOT
ATOM      1  C9  UNL     1      15.944   5.563  20.027  0.00  0.00    +0.304 C 
ATOM      2  O3  UNL     1      16.450   4.506  19.561  0.00  0.00    -0.265 OA
ATOM      3  N2  UNL     1      14.564   5.589  20.430  0.00  0.00    -0.275 N 
ATOM      4  H8  UNL     1      14.101   6.516  20.568  0.00  0.00    +0.155 HD
ENDROOT
BRANCH   3   5
ATOM      5  C10 UNL     1      13.760   4.415  20.613  0.00  0.00    +0.072 A 
ATOM      6  C11 UNL     1      12.777   3.967  19.752  0.00  0.00    +0.157 A 
ATOM      7  N3  UNL     1      12.186   2.883  20.293  0.00  0.00    -0.177 NA
ATOM      8  N4  UNL     1      12.771   2.645  21.459  0.00  0.00    -0.261 N 
ATOM      9  C17 UNL     1      13.724   3.567  21.700  0.00  0.00    +0.132 A 
BRANCH   8  10
ATOM     10  C12 UNL     1      12.353   1.590  22.376  0.00  0.00    +0.239 C 
BRANCH  10  11
ATOM     11  C13 UNL     1      13.555   0.881  22.919  0.00  0.00    +0.235 C 
ATOM     12  O4  UNL     1      13.884   1.053  24.124  0.00  0.00    -0.274 OA
ATOM     13  N5  UNL     1      14.306  -0.009  22.085  0.00  0.00    -0.311 N 
ATOM     14  H12 UNL     1      13.949  -0.240  21.130  0.00  0.00    +0.149 HD
BRANCH  13  15
ATOM     15  C14 UNL     1      15.446  -0.761  22.602  0.00  0.00    +0.073 C 
ATOM     16  C15 UNL     1      16.768  -0.025  22.459  0.00  0.00    +0.024 C 
ATOM     17  C16 UNL     1      16.438  -1.185  21.534  0.00  0.00    +0.024 C 
ENDBRANCH  13  15
ENDBRANCH  10  11
ENDBRANCH   8  10
ENDBRANCH   3   5
BRANCH   1  19
ATOM     18  N1  UNL     1      16.936   7.635  18.975  0.00  0.00    -0.275 N 
ATOM     19  C8  UNL     1      16.772   6.781  20.119  0.00  0.00    +0.304 C 
ATOM     20  O2  UNL     1      17.364   7.051  21.198  0.00  0.00    -0.265 OA
ATOM     21  H7  UNL     1      16.705   7.251  18.031  0.00  0.00    +0.155 HD
BRANCH  18  28
ATOM     22  C2  UNL     1      18.997   9.017  18.865  0.00  0.00    +0.143 A 
ATOM     23  C3  UNL     1      19.601  10.289  18.937  0.00  0.00    +0.067 A 
ATOM     24  C4  UNL     1      18.830  11.425  19.200  0.00  0.00    +0.045 A 
ATOM     25 CL1  UNL     1      19.595  13.001  19.297  0.00  0.00    -0.083 Cl
ATOM     26  C5  UNL     1      17.454  11.305  19.400  0.00  0.00    +0.022 A 
ATOM     27  C6  UNL     1      16.843  10.052  19.324  0.00  0.00    +0.028 A 
ATOM     28  C7  UNL     1      17.599   8.908  19.033  0.00  0.00    +0.076 A 
BRANCH  22  30
ATOM     29  C1  UNL     1      20.913   7.496  19.403  0.00  0.00    +0.277 C 
ATOM     30  O1  UNL     1      19.752   7.853  18.658  0.00  0.00    -0.493 OA
ENDBRANCH  22  30
ENDBRANCH  18  28
ENDBRANCH   1  19
TORSDOF 7
ENDMDL
MODEL 5
REMARK VINA RESULT:    -5.641      9.659     11.027
REMARK INTER + INTRA:          -8.946
REMARK INTER:                  -7.984
REMARK INTRA:                  -0.962
REMARK UNBOUND:                -0.997
REMARK  Name = /home/qwerty/github/datacon2025hack/step_04_hit_selection/docking/ligands/lig_696.pdb
REMARK  8 active torsions:
REMARK  status: ('A' for Active; 'I' for Inactive)
REMARK    1  A    between atoms: C1_1  and  O1_2
REMARK    2  A    between atoms: O1_2  and  C2_3
REMARK    3  A    between atoms: C7_9  and  N1_10
REMARK    4  A    between atoms: C8_11  and  C9_13
REMARK    5  A    between atoms: N2_15  and  C10_16
REMARK    6  A    between atoms: N4_19  and  C12_20
REMARK    7  A    between atoms: C12_20  and  C13_21
REMARK    8  A    between atoms: N5_23  and  C14_24
REMARK                            x       y       z     vdW  Elec       q    Type
REMARK                         _______ _______ _______ _____ _____    ______ ____
ROOT
ATOM      1  C9  UNL     1      12.473   2.404  22.100  0.00  0.00    +0.304 C 
ATOM      2  O3  UNL     1      11.490   1.788  21.604  0.00  0.00    -0.265 OA
ATOM      3  N2  UNL     1      12.571   3.833  21.971  0.00  0.00    -0.275 N 
ATOM      4  H8  UNL     1      13.493   4.289  22.156  0.00  0.00    +0.155 HD
ENDROOT
BRANCH   3   5
ATOM      5  C10 UNL     1      11.487   4.678  21.558  0.00  0.00    +0.072 A 
ATOM      6  C11 UNL     1      11.272   5.148  20.277  0.00  0.00    +0.157 A 
ATOM      7  N3  UNL     1      10.206   5.973  20.290  0.00  0.00    -0.177 NA
ATOM      8  N4  UNL     1       9.754   6.028  21.536  0.00  0.00    -0.261 N 
ATOM      9  C17 UNL     1      10.518   5.267  22.344  0.00  0.00    +0.132 A 
BRANCH   8  10
ATOM     10  C12 UNL     1       8.649   6.880  21.961  0.00  0.00    +0.239 C 
BRANCH  10  11
ATOM     11  C13 UNL     1       8.896   8.291  21.523  0.00  0.00    +0.235 C 
ATOM     12  O4  UNL     1       7.925   9.090  21.433  0.00  0.00    -0.274 OA
ATOM     13  N5  UNL     1      10.228   8.737  21.240  0.00  0.00    -0.311 N 
ATOM     14  H12 UNL     1      11.033   8.103  21.442  0.00  0.00    +0.149 HD
BRANCH  13  15
ATOM     15  C14 UNL     1      10.506  10.122  20.871  0.00  0.00    +0.073 C 
ATOM     16  C15 UNL     1      10.903  10.288  19.414  0.00  0.00    +0.024 C 
ATOM     17  C16 UNL     1      11.958  10.379  20.506  0.00  0.00    +0.024 C 
ENDBRANCH  13  15
ENDBRANCH  10  11
ENDBRANCH   8  10
ENDBRANCH   3   5
BRANCH   1  19
ATOM     18  N1  UNL     1      13.654   0.223  22.576  0.00  0.00    -0.275 N 
ATOM     19  C8  UNL     1      13.536   1.641  22.778  0.00  0.00    +0.304 C 
ATOM     20  O2  UNL     1      14.322   2.234  23.566  0.00  0.00    -0.265 OA
ATOM     21  H7  UNL     1      12.835  -0.293  22.182  0.00  0.00    +0.155 HD
BRANCH  18  28
ATOM     22  C2  UNL     1      15.900  -0.801  22.300  0.00  0.00    +0.143 A 
ATOM     23  C3  UNL     1      16.948  -1.575  22.841  0.00  0.00    +0.067 A 
ATOM     24  C4  UNL     1      16.838  -2.116  24.125  0.00  0.00    +0.045 A 
ATOM     25 CL1  UNL     1      18.143  -3.085  24.783  0.00  0.00    -0.083 Cl
ATOM     26  C5  UNL     1      15.684  -1.897  24.879  0.00  0.00    +0.022 A 
ATOM     27  C6  UNL     1      14.643  -1.127  24.357  0.00  0.00    +0.028 A 
ATOM     28  C7  UNL     1      14.751  -0.555  23.082  0.00  0.00    +0.076 A 
BRANCH  22  30
ATOM     29  C1  UNL     1      16.708  -0.872  19.930  0.00  0.00    +0.277 C 
ATOM     30  O1  UNL     1      15.959  -0.292  20.994  0.00  0.00    -0.493 OA
ENDBRANCH  22  30
ENDBRANCH  18  28
ENDBRANCH   1  19
TORSDOF 7
ENDMDL
MODEL 6
REMARK VINA RESULT:    -5.609     13.791     15.500
REMARK INTER + INTRA:          -8.902
REMARK INTER:                  -8.041
REMARK INTRA:                  -0.861
REMARK UNBOUND:                -0.997
REMARK  Name = /home/qwerty/github/datacon2025hack/step_04_hit_selection/docking/ligands/lig_696.pdb
REMARK  8 active torsions:
REMARK  status: ('A' for Active; 'I' for Inactive)
REMARK    1  A    between atoms: C1_1  and  O1_2
REMARK    2  A    between atoms: O1_2  and  C2_3
REMARK    3  A    between atoms: C7_9  and  N1_10
REMARK    4  A    between atoms: C8_11  and  C9_13
REMARK    5  A    between atoms: N2_15  and  C10_16
REMARK    6  A    between atoms: N4_19  and  C12_20
REMARK    7  A    between atoms: C12_20  and  C13_21
REMARK    8  A    between atoms: N5_23  and  C14_24
REMARK                            x       y       z     vdW  Elec       q    Type
REMARK                         _______ _______ _______ _____ _____    ______ ____
ROOT
ATOM      1  C9  UNL     1      17.788  12.694  35.724  0.00  0.00    +0.304 C 
ATOM      2  O3  UNL     1      17.648  12.982  34.505  0.00  0.00    -0.265 OA
ATOM      3  N2  UNL     1      16.898  13.250  36.707  0.00  0.00    -0.275 N 
ATOM      4  H8  UNL     1      17.176  13.209  37.714  0.00  0.00    +0.155 HD
ENDROOT
BRANCH   3   5
ATOM      5  C10 UNL     1      15.661  13.904  36.390  0.00  0.00    +0.072 A 
ATOM      6  C11 UNL     1      15.451  15.269  36.371  0.00  0.00    +0.157 A 
ATOM      7  N3  UNL     1      14.150  15.505  36.108  0.00  0.00    -0.177 NA
ATOM      8  N4  UNL     1      13.548  14.332  35.963  0.00  0.00    -0.261 N 
ATOM      9  C17 UNL     1      14.431  13.329  36.145  0.00  0.00    +0.132 A 
BRANCH   8  10
ATOM     10  C12 UNL     1      12.115  14.177  35.741  0.00  0.00    +0.239 C 
BRANCH  10  11
ATOM     11  C13 UNL     1      11.850  13.910  34.291  0.00  0.00    +0.235 C 
ATOM     12  O4  UNL     1      11.193  12.885  33.961  0.00  0.00    -0.274 OA
ATOM     13  N5  UNL     1      12.313  14.825  33.291  0.00  0.00    -0.311 N 
ATOM     14  H12 UNL     1      12.743  15.731  33.586  0.00  0.00    +0.149 HD
BRANCH  13  15
ATOM     15  C14 UNL     1      12.017  14.623  31.876  0.00  0.00    +0.073 C 
ATOM     16  C15 UNL     1      12.994  13.685  31.185  0.00  0.00    +0.024 C 
ATOM     17  C16 UNL     1      13.075  15.184  30.942  0.00  0.00    +0.024 C 
ENDBRANCH  13  15
ENDBRANCH  10  11
ENDBRANCH   8  10
ENDBRANCH   3   5
BRANCH   1  19
ATOM     18  N1  UNL     1      18.852  10.405  35.839  0.00  0.00    -0.275 N 
ATOM     19  C8  UNL     1      18.896  11.811  36.135  0.00  0.00    +0.304 C 
ATOM     20  O2  UNL     1      19.868  12.290  36.779  0.00  0.00    -0.265 OA
ATOM     21  H7  UNL     1      17.931   9.978  35.591  0.00  0.00    +0.155 HD
BRANCH  18  28
ATOM     22  C2  UNL     1      21.074   9.491  35.210  0.00  0.00    +0.143 A 
ATOM     23  C3  UNL     1      22.132   8.598  35.481  0.00  0.00    +0.067 A 
ATOM     24  C4  UNL     1      22.062   7.730  36.573  0.00  0.00    +0.045 A 
ATOM     25 CL1  UNL     1      23.380   6.616  36.894  0.00  0.00    -0.083 Cl
ATOM     26  C5  UNL     1      20.939   7.737  37.402  0.00  0.00    +0.022 A 
ATOM     27  C6  UNL     1      19.889   8.622  37.149  0.00  0.00    +0.028 A 
ATOM     28  C7  UNL     1      19.957   9.518  36.073  0.00  0.00    +0.076 A 
BRANCH  22  30
ATOM     29  C1  UNL     1      20.726   9.939  32.771  0.00  0.00    +0.277 C 
ATOM     30  O1  UNL     1      21.091  10.336  34.089  0.00  0.00    -0.493 OA
ENDBRANCH  22  30
ENDBRANCH  18  28
ENDBRANCH   1  19
TORSDOF 7
ENDMDL
MODEL 7
REMARK VINA RESULT:    -5.571     13.333     15.900
REMARK INTER + INTRA:          -8.848
REMARK INTER:                  -7.933
REMARK INTRA:                  -0.915
REMARK UNBOUND:                -0.997
REMARK  Name = /home/qwerty/github/datacon2025hack/step_04_hit_selection/docking/ligands/lig_696.pdb
REMARK  8 active torsions:
REMARK  status: ('A' for Active; 'I' for Inactive)
REMARK    1  A    between atoms: C1_1  and  O1_2
REMARK    2  A    between atoms: O1_2  and  C2_3
REMARK    3  A    between atoms: C7_9  and  N1_10
REMARK    4  A    between atoms: C8_11  and  C9_13
REMARK    5  A    between atoms: N2_15  and  C10_16
REMARK    6  A    between atoms: N4_19  and  C12_20
REMARK    7  A    between atoms: C12_20  and  C13_21
REMARK    8  A    between atoms: N5_23  and  C14_24
REMARK                            x       y       z     vdW  Elec       q    Type
REMARK                         _______ _______ _______ _____ _____    ______ ____
ROOT
ATOM      1  C9  UNL     1      17.082  10.268  35.935  0.00  0.00    +0.304 C 
ATOM      2  O3  UNL     1      17.218   9.646  34.847  0.00  0.00    -0.265 OA
ATOM      3  N2  UNL     1      18.089  10.168  36.956  0.00  0.00    -0.275 N 
ATOM      4  H8  UNL     1      17.848  10.473  37.927  0.00  0.00    +0.155 HD
ENDROOT
BRANCH   3   5
ATOM      5  C10 UNL     1      19.402   9.631  36.740  0.00  0.00    +0.072 A 
ATOM      6  C11 UNL     1      20.367  10.167  35.911  0.00  0.00    +0.157 A 
ATOM      7  N3  UNL     1      21.438   9.347  35.903  0.00  0.00    -0.177 NA
ATOM      8  N4  UNL     1      21.167   8.323  36.701  0.00  0.00    -0.261 N 
ATOM      9  C17 UNL     1      19.928   8.448  37.217  0.00  0.00    +0.132 A 
BRANCH   8  10
ATOM     10  C12 UNL     1      22.060   7.186  36.893  0.00  0.00    +0.239 C 
BRANCH  10  11
ATOM     11  C13 UNL     1      22.683   6.801  35.586  0.00  0.00    +0.235 C 
ATOM     12  O4  UNL     1      22.299   5.752  35.003  0.00  0.00    -0.274 OA
ATOM     13  N5  UNL     1      23.685   7.634  34.991  0.00  0.00    -0.311 N 
ATOM     14  H12 UNL     1      23.901   8.562  35.421  0.00  0.00    +0.149 HD
BRANCH  13  15
ATOM     15  C14 UNL     1      24.267   7.317  33.690  0.00  0.00    +0.073 C 
ATOM     16  C15 UNL     1      24.801   8.536  32.957  0.00  0.00    +0.024 C 
ATOM     17  C16 UNL     1      23.495   7.894  32.516  0.00  0.00    +0.024 C 
ENDBRANCH  13  15
ENDBRANCH  10  11
ENDBRANCH   8  10
ENDBRANCH   3   5
BRANCH   1  19
ATOM     18  N1  UNL     1      15.150  11.636  35.052  0.00  0.00    -0.275 N 
ATOM     19  C8  UNL     1      15.864  11.067  36.162  0.00  0.00    +0.304 C 
ATOM     20  O2  UNL     1      15.469  11.279  37.341  0.00  0.00    -0.265 OA
ATOM     21  H7  UNL     1      15.642  11.715  34.134  0.00  0.00    +0.155 HD
BRANCH  18  28
ATOM     22  C2  UNL     1      13.793  13.664  35.513  0.00  0.00    +0.143 A 
ATOM     23  C3  UNL     1      12.522  14.262  35.640  0.00  0.00    +0.067 A 
ATOM     24  C4  UNL     1      11.362  13.500  35.475  0.00  0.00    +0.045 A 
ATOM     25 CL1  UNL     1       9.787  14.253  35.645  0.00  0.00    -0.083 Cl
ATOM     26  C5  UNL     1      11.456  12.137  35.189  0.00  0.00    +0.022 A 
ATOM     27  C6  UNL     1      12.708  11.536  35.053  0.00  0.00    +0.028 A 
ATOM     28  C7  UNL     1      13.880  12.293  35.188  0.00  0.00    +0.076 A 
BRANCH  22  30
ATOM     29  C1  UNL     1      15.042  15.651  36.388  0.00  0.00    +0.277 C 
ATOM     30  O1  UNL     1      14.975  14.391  35.727  0.00  0.00    -0.493 OA
ENDBRANCH  22  30
ENDBRANCH  18  28
ENDBRANCH   1  19
TORSDOF 7
ENDMDL
MODEL 8
REMARK VINA RESULT:    -5.539      9.605     13.321
REMARK INTER + INTRA:          -8.803
REMARK INTER:                  -8.044
REMARK INTRA:                  -0.759
REMARK UNBOUND:                -0.997
REMARK  Name = /home/qwerty/github/datacon2025hack/step_04_hit_selection/docking/ligands/lig_696.pdb
REMARK  8 active torsions:
REMARK  status: ('A' for Active; 'I' for Inactive)
REMARK    1  A    between atoms: C1_1  and  O1_2
REMARK    2  A    between atoms: O1_2  and  C2_3
REMARK    3  A    between atoms: C7_9  and  N1_10
REMARK    4  A    between atoms: C8_11  and  C9_13
REMARK    5  A    between atoms: N2_15  and  C10_16
REMARK    6  A    between atoms: N4_19  and  C12_20
REMARK    7  A    between atoms: C12_20  and  C13_21
REMARK    8  A    between atoms: N5_23  and  C14_24
REMARK                            x       y       z     vdW  Elec       q    Type
REMARK                         _______ _______ _______ _____ _____    ______ ____
ROOT
ATOM      1  C9  UNL     1      13.158   4.503  20.695  0.00  0.00    +0.304 C 
ATOM      2  O3  UNL     1      13.015   3.979  19.557  0.00  0.00    -0.265 OA
ATOM      3  N2  UNL     1      13.951   3.847  21.699  0.00  0.00    -0.275 N 
ATOM      4  H8  UNL     1      13.852   4.155  22.694  0.00  0.00    +0.155 HD
ENDROOT
BRANCH   3   5
ATOM      5  C10 UNL     1      14.845   2.757  21.431  0.00  0.00    +0.072 A 
ATOM      6  C11 UNL     1      16.005   2.829  20.685  0.00  0.00    +0.157 A 
ATOM      7  N3  UNL     1      16.535   1.593  20.587  0.00  0.00    -0.177 NA
ATOM      8  N4  UNL     1      15.743   0.760  21.248  0.00  0.00    -0.261 N 
ATOM      9  C17 UNL     1      14.690   1.427  21.763  0.00  0.00    +0.132 A 
BRANCH   8  10
ATOM     10  C12 UNL     1      15.950  -0.682  21.306  0.00  0.00    +0.239 C 
BRANCH  10  11
ATOM     11  C13 UNL     1      16.253  -1.097  22.713  0.00  0.00    +0.235 C 
ATOM     12  O4  UNL     1      17.267  -0.622  23.293  0.00  0.00    -0.274 OA
ATOM     13  N5  UNL     1      15.384  -2.003  23.403  0.00  0.00    -0.311 N 
ATOM     14  H12 UNL     1      14.483  -2.288  22.956  0.00  0.00    +0.149 HD
BRANCH  13  15
ATOM     15  C14 UNL     1      15.620  -2.378  24.793  0.00  0.00    +0.073 C 
ATOM     16  C15 UNL     1      14.434  -3.075  25.440  0.00  0.00    +0.024 C 
ATOM     17  C16 UNL     1      14.751  -1.629  25.788  0.00  0.00    +0.024 C 
ENDBRANCH  13  15
ENDBRANCH  10  11
ENDBRANCH   8  10
ENDBRANCH   3   5
BRANCH   1  19
ATOM     18  N1  UNL     1      11.359   6.206  20.197  0.00  0.00    -0.275 N 
ATOM     19  C8  UNL     1      12.473   5.774  20.996  0.00  0.00    +0.304 C 
ATOM     20  O2  UNL     1      12.893   6.499  21.939  0.00  0.00    -0.265 OA
ATOM     21  H7  UNL     1      11.222   5.768  19.259  0.00  0.00    +0.155 HD
BRANCH  18  28
ATOM     22  C2  UNL     1       9.358   7.221  21.262  0.00  0.00    +0.143 A 
ATOM     23  C3  UNL     1       8.601   8.375  21.553  0.00  0.00    +0.067 A 
ATOM     24  C4  UNL     1       9.015   9.627  21.091  0.00  0.00    +0.045 A 
ATOM     25 CL1  UNL     1       8.060  11.054  21.451  0.00  0.00    -0.083 Cl
ATOM     26  C5  UNL     1      10.181   9.742  20.332  0.00  0.00    +0.022 A 
ATOM     27  C6  UNL     1      10.942   8.608  20.044  0.00  0.00    +0.028 A 
ATOM     28  C7  UNL     1      10.555   7.350  20.524  0.00  0.00    +0.076 A 
BRANCH  22  30
ATOM     29  C1  UNL     1       7.913   5.189  21.026  0.00  0.00    +0.277 C 
ATOM     30  O1  UNL     1       8.939   5.943  21.664  0.00  0.00    -0.493 OA
ENDBRANCH  22  30
ENDBRANCH  18  28
ENDBRANCH   1  19
TORSDOF 7
ENDMDL
MODEL 9
REMARK VINA RESULT:    -5.504     13.346     15.709
REMARK INTER + INTRA:          -8.754
REMARK INTER:                  -7.863
REMARK INTRA:                  -0.891
REMARK UNBOUND:                -0.997
REMARK  Name = /home/qwerty/github/datacon2025hack/step_04_hit_selection/docking/ligands/lig_696.pdb
REMARK  8 active torsions:
REMARK  status: ('A' for Active; 'I' for Inactive)
REMARK    1  A    between atoms: C1_1  and  O1_2
REMARK    2  A    between atoms: O1_2  and  C2_3
REMARK    3  A    between atoms: C7_9  and  N1_10
REMARK    4  A    between atoms: C8_11  and  C9_13
REMARK    5  A    between atoms: N2_15  and  C10_16
REMARK    6  A    between atoms: N4_19  and  C12_20
REMARK    7  A    between atoms: C12_20  and  C13_21
REMARK    8  A    between atoms: N5_23  and  C14_24
REMARK                            x       y       z     vdW  Elec       q    Type
REMARK                         _______ _______ _______ _____ _____    ______ ____
ROOT
ATOM      1  C9  UNL     1      17.015  10.278  36.272  0.00  0.00    +0.304 C 
ATOM      2  O3  UNL     1      16.912   9.241  35.564  0.00  0.00    -0.265 OA
ATOM      3  N2  UNL     1      18.253  10.579  36.940  0.00  0.00    -0.275 N 
ATOM      4  H8  UNL     1      18.246  11.285  37.711  0.00  0.00    +0.155 HD
ENDROOT
BRANCH   3   5
ATOM      5  C10 UNL     1      19.500   9.934  36.646  0.00  0.00    +0.072 A 
ATOM      6  C11 UNL     1      20.386  10.303  35.653  0.00  0.00    +0.157 A 
ATOM      7  N3  UNL     1      21.404   9.419  35.628  0.00  0.00    -0.177 NA
ATOM      8  N4  UNL     1      21.178   8.517  36.572  0.00  0.00    -0.261 N 
ATOM      9  C17 UNL     1      20.018   8.784  37.205  0.00  0.00    +0.132 A 
BRANCH   8  10
ATOM     10  C12 UNL     1      22.027   7.354  36.803  0.00  0.00    +0.239 C 
BRANCH  10  11
ATOM     11  C13 UNL     1      22.691   6.945  35.524  0.00  0.00    +0.235 C 
ATOM     12  O4  UNL     1      22.328   5.882  34.951  0.00  0.00    -0.274 OA
ATOM     13  N5  UNL     1      23.706   7.770  34.941  0.00  0.00    -0.311 N 
ATOM     14  H12 UNL     1      23.906   8.707  35.358  0.00  0.00    +0.149 HD
BRANCH  13  15
ATOM     15  C14 UNL     1      24.327   7.429  33.665  0.00  0.00    +0.073 C 
ATOM     16  C15 UNL     1      24.861   8.637  32.913  0.00  0.00    +0.024 C 
ATOM     17  C16 UNL     1      23.578   7.960  32.456  0.00  0.00    +0.024 C 
ENDBRANCH  13  15
ENDBRANCH  10  11
ENDBRANCH   8  10
ENDBRANCH   3   5
BRANCH   1  19
ATOM     18  N1  UNL     1      14.847  11.245  35.407  0.00  0.00    -0.275 N 
ATOM     19  C8  UNL     1      15.844  11.159  36.439  0.00  0.00    +0.304 C 
ATOM     20  O2  UNL     1      15.738  11.864  37.479  0.00  0.00    -0.265 OA
ATOM     21  H7  UNL     1      15.094  10.908  34.449  0.00  0.00    +0.155 HD
BRANCH  18  28
ATOM     22  C2  UNL     1      12.467  11.341  36.112  0.00  0.00    +0.143 A 
ATOM     23  C3  UNL     1      11.277  12.086  36.242  0.00  0.00    +0.067 A 
ATOM     24  C4  UNL     1      11.222  13.413  35.808  0.00  0.00    +0.045 A 
ATOM     25 CL1  UNL     1       9.733  14.327  35.965  0.00  0.00    -0.083 Cl
ATOM     26  C5  UNL     1      12.348  14.009  35.235  0.00  0.00    +0.022 A 
ATOM     27  C6  UNL     1      13.534  13.284  35.109  0.00  0.00    +0.028 A 
ATOM     28  C7  UNL     1      13.612  11.961  35.565  0.00  0.00    +0.076 A 
BRANCH  22  30
ATOM     29  C1  UNL     1      12.447   8.893  35.584  0.00  0.00    +0.277 C 
ATOM     30  O1  UNL     1      12.536   9.990  36.488  0.00  0.00    -0.493 OA
ENDBRANCH  22  30
ENDBRANCH  18  28
ENDBRANCH   1  19
TORSDOF 7
ENDMDL
