REMARK  Name = /home/qwerty/github/datacon2025hack/step_04_hit_selection/docking/ligands/lig_49.pdb
REMARK  5 active torsions:
REMARK  status: ('A' for Active; 'I' for Inactive)
REMARK    1  A    between atoms: C1_1  and  C2_2
REMARK    2  A    between atoms: C6_6  and  C7_7
REMARK    3  A    between atoms: C11_13  and  N2_14
REMARK    4  A    between atoms: C12_15  and  C13_17
REMARK    5  A    between atoms: C13_17  and  C14_18
REMARK                            x       y       z     vdW  Elec       q    Type
REMARK                         _______ _______ _______ _____ _____    ______ ____
ROOT
ATOM      1  C7  UNL     1       2.574  -0.003  -0.878  0.00  0.00    +0.265 C 
ATOM      2  O1  UNL     1       2.192   1.064  -1.432  0.00  0.00    -0.268 OA
ATOM      3  N1  UNL     1       1.758  -1.187  -0.981  0.00  0.00    -0.296 N 
ATOM      4  C8  UNL     1       1.552  -2.028   0.216  0.00  0.00    +0.108 C 
ATOM      5  C9  UNL     1       0.217  -2.795   0.206  0.00  0.00    +0.021 C 
ATOM      6  C10 UNL     1      -1.026  -1.888   0.244  0.00  0.00    +0.024 C 
ATOM      7  C11 UNL     1      -0.966  -0.626  -0.648  0.00  0.00    +0.074 C 
ATOM      8  C18 UNL     1      -0.483  -0.920  -2.088  0.00  0.00    +0.041 C 
ATOM      9  C19 UNL     1       0.980  -1.407  -2.211  0.00  0.00    +0.110 C 
ENDROOT
BRANCH   1  15
ATOM     10  C1  UNL     1       5.777   2.520   1.869  0.00  0.00    +0.065 C 
ATOM     11  C2  UNL     1       5.397   1.237   1.202  0.00  0.00    +0.039 A 
ATOM     12  C3  UNL     1       6.231   0.116   1.295  0.00  0.00    +0.023 A 
ATOM     13  C4  UNL     1       5.861  -1.066   0.654  0.00  0.00    +0.004 A 
ATOM     14  C5  UNL     1       4.665  -1.125  -0.062  0.00  0.00    +0.033 A 
ATOM     15  C6  UNL     1       3.838   0.007  -0.118  0.00  0.00    +0.126 A 
ATOM     16  N3  UNL     1       4.234   1.155   0.500  0.00  0.00    -0.247 NA
ENDBRANCH   1  15
BRANCH   7  17
ATOM     17  N2  UNL     1      -2.296  -0.007  -0.692  0.00  0.00    -0.312 N 
ATOM     18  C12 UNL     1      -2.823   0.764   0.403  0.00  0.00    +0.219 C 
ATOM     19  O2  UNL     1      -2.101   0.978   1.417  0.00  0.00    -0.275 OA
ATOM     20  H14 UNL     1      -2.884  -0.139  -1.546  0.00  0.00    +0.149 HD
BRANCH  18  21
ATOM     21  C13 UNL     1      -4.235   1.330   0.352  0.00  0.00    +0.044 C 
ATOM     22  C14 UNL     1      -4.630   2.106   1.625  0.00  0.00    +0.021 C 
ATOM     23  C15 UNL     1      -5.292   0.294  -0.054  0.00  0.00    +0.016 C 
ATOM     24  C16 UNL     1      -5.575   1.085  -1.328  0.00  0.00    +0.002 C 
ATOM     25  C17 UNL     1      -4.528   2.120  -0.931  0.00  0.00    +0.016 C 
ENDBRANCH  18  21
ENDBRANCH   7  17
TORSDOF 3
