MODEL 1
REMARK VINA RESULT:    -6.276      0.000      0.000
REMARK INTER + INTRA:          -7.762
REMARK INTER:                  -7.010
REMARK INTRA:                  -0.752
REMARK UNBOUND:                -0.752
REMARK  Name = /home/qwerty/github/datacon2025hack/step_04_hit_selection/docking/ligands/lig_218.pdb
REMARK  4 active torsions:
REMARK  status: ('A' for Active; 'I' for Inactive)
REMARK    1  A    between atoms: C1_1  and  C2_2
REMARK    2  A    between atoms: C5_5  and  C6_6
REMARK    3  A    between atoms: C12_15  and  C13_16
REMARK    4  A    between atoms: N3_17  and  C14_18
REMARK                            x       y       z     vdW  Elec       q    Type
REMARK                         _______ _______ _______ _____ _____    ______ ____
ROOT
ATOM      1  C1  UNL     1      21.763   4.684  27.461  0.00  0.00    +0.064 C 
ATOM      2  C2  UNL     1      21.299   3.722  26.412  0.00  0.00    +0.030 A 
ATOM      3  C3  UNL     1      21.193   3.979  25.065  0.00  0.00    +0.022 A 
ATOM      4  C4  UNL     1      21.322   4.966  24.120  0.00  0.00    +0.042 A 
ATOM      5  C5  UNL     1      20.884   4.337  22.938  0.00  0.00    +0.103 A 
ATOM      6  N2  UNL     1      20.493   3.050  23.171  0.00  0.00    -0.349 N 
ATOM      7  C11 UNL     1      20.717   2.894  24.480  0.00  0.00    +0.068 A 
ATOM      8  C12 UNL     1      20.505   1.916  25.420  0.00  0.00    +0.045 A 
ATOM      9  C13 UNL     1      19.926   0.557  25.178  0.00  0.00    +0.066 C 
ATOM     10  N3  UNL     1      20.875   2.438  26.629  0.00  0.00    -0.315 N 
ATOM     11  H13 UNL     1      20.046   2.370  22.519  0.00  0.00    +0.166 HD
ENDROOT
BRANCH  10  12
ATOM     12  C14 UNL     1      20.802   1.773  27.901  0.00  0.00    +0.050 A 
ATOM     13  C15 UNL     1      21.923   1.062  28.401  0.00  0.00    +0.030 A 
ATOM     14  C16 UNL     1      21.858   0.407  29.644  0.00  0.00    +0.051 A 
ATOM     15  C17 UNL     1      20.664   0.484  30.355  0.00  0.00    +0.166 A 
ATOM     16  C18 UNL     1      19.588   1.161  29.883  0.00  0.00    +0.168 A 
ATOM     17  C19 UNL     1      19.611   1.822  28.658  0.00  0.00    +0.075 A 
ATOM     18  O2  UNL     1      18.551   1.069  30.792  0.00  0.00    -0.453 OA
ATOM     19  C20 UNL     1      19.005   0.284  31.904  0.00  0.00    +0.466 C 
ATOM     20  O3  UNL     1      20.359  -0.070  31.584  0.00  0.00    -0.453 OA
ENDBRANCH  10  12
BRANCH   5  21
ATOM     21  C6  UNL     1      20.773   5.014  21.632  0.00  0.00    +0.263 C 
ATOM     22  O1  UNL     1      21.822   5.204  20.960  0.00  0.00    -0.268 OA
ATOM     23  N1  UNL     1      19.504   5.438  21.101  0.00  0.00    -0.296 N 
ATOM     24  C7  UNL     1      19.401   6.306  19.940  0.00  0.00    +0.108 C 
ATOM     25  C8  UNL     1      17.916   6.390  19.620  0.00  0.00    +0.020 C 
ATOM     26  C9  UNL     1      17.280   5.192  20.314  0.00  0.00    +0.020 C 
ATOM     27  C10 UNL     1      18.230   4.824  21.446  0.00  0.00    +0.108 C 
ENDBRANCH   5  21
TORSDOF 2
ENDMDL
MODEL 2
REMARK VINA RESULT:    -6.268     11.934     13.747
REMARK INTER + INTRA:          -7.753
REMARK INTER:                  -7.002
REMARK INTRA:                  -0.751
REMARK UNBOUND:                -0.752
REMARK  Name = /home/qwerty/github/datacon2025hack/step_04_hit_selection/docking/ligands/lig_218.pdb
REMARK  4 active torsions:
REMARK  status: ('A' for Active; 'I' for Inactive)
REMARK    1  A    between atoms: C1_1  and  C2_2
REMARK    2  A    between atoms: C5_5  and  C6_6
REMARK    3  A    between atoms: C12_15  and  C13_16
REMARK    4  A    between atoms: N3_17  and  C14_18
REMARK                            x       y       z     vdW  Elec       q    Type
REMARK                         _______ _______ _______ _____ _____    ______ ____
ROOT
ATOM      1  C1  UNL     1      20.103  12.595  36.074  0.00  0.00    +0.064 C 
ATOM      2  C2  UNL     1      18.930  11.705  35.805  0.00  0.00    +0.030 A 
ATOM      3  C3  UNL     1      17.615  12.101  35.713  0.00  0.00    +0.022 A 
ATOM      4  C4  UNL     1      16.782  13.184  35.840  0.00  0.00    +0.042 A 
ATOM      5  C5  UNL     1      15.500  12.624  35.670  0.00  0.00    +0.103 A 
ATOM      6  N2  UNL     1      15.566  11.274  35.476  0.00  0.00    -0.349 N 
ATOM      7  C11 UNL     1      16.880  11.024  35.503  0.00  0.00    +0.068 A 
ATOM      8  C12 UNL     1      17.687   9.915  35.451  0.00  0.00    +0.045 A 
ATOM      9  C13 UNL     1      17.242   8.496  35.280  0.00  0.00    +0.066 C 
ATOM     10  N3  UNL     1      18.971  10.346  35.636  0.00  0.00    -0.315 N 
ATOM     11  H13 UNL     1      14.790  10.581  35.409  0.00  0.00    +0.166 HD
ENDROOT
BRANCH  10  12
ATOM     12  C14 UNL     1      20.148   9.523  35.681  0.00  0.00    +0.050 A 
ATOM     13  C15 UNL     1      21.037   9.488  34.576  0.00  0.00    +0.030 A 
ATOM     14  C16 UNL     1      22.190   8.682  34.612  0.00  0.00    +0.051 A 
ATOM     15  C17 UNL     1      22.420   7.930  35.759  0.00  0.00    +0.166 A 
ATOM     16  C18 UNL     1      21.573   7.956  36.819  0.00  0.00    +0.168 A 
ATOM     17  C19 UNL     1      20.422   8.740  36.824  0.00  0.00    +0.075 A 
ATOM     18  O2  UNL     1      22.047   7.119  37.809  0.00  0.00    -0.453 OA
ATOM     19  C20 UNL     1      23.268   6.528  37.342  0.00  0.00    +0.466 C 
ATOM     20  O3  UNL     1      23.469   7.072  36.030  0.00  0.00    -0.453 OA
ENDBRANCH  10  12
BRANCH   5  21
ATOM     21  C6  UNL     1      14.243  13.385  35.783  0.00  0.00    +0.263 C 
ATOM     22  O1  UNL     1      13.939  13.887  36.899  0.00  0.00    -0.268 OA
ATOM     23  N1  UNL     1      13.371  13.588  34.655  0.00  0.00    -0.296 N 
ATOM     24  C7  UNL     1      12.029  14.127  34.800  0.00  0.00    +0.108 C 
ATOM     25  C8  UNL     1      11.509  14.321  33.383  0.00  0.00    +0.020 C 
ATOM     26  C9  UNL     1      12.746  14.334  32.492  0.00  0.00    +0.020 C 
ATOM     27  C10 UNL     1      13.817  13.581  33.270  0.00  0.00    +0.108 C 
ENDBRANCH   5  21
TORSDOF 2
ENDMDL
MODEL 3
REMARK VINA RESULT:    -6.257     10.906     13.842
REMARK INTER + INTRA:          -7.741
REMARK INTER:                  -6.865
REMARK INTRA:                  -0.876
REMARK UNBOUND:                -0.752
REMARK  Name = /home/qwerty/github/datacon2025hack/step_04_hit_selection/docking/ligands/lig_218.pdb
REMARK  4 active torsions:
REMARK  status: ('A' for Active; 'I' for Inactive)
REMARK    1  A    between atoms: C1_1  and  C2_2
REMARK    2  A    between atoms: C5_5  and  C6_6
REMARK    3  A    between atoms: C12_15  and  C13_16
REMARK    4  A    between atoms: N3_17  and  C14_18
REMARK                            x       y       z     vdW  Elec       q    Type
REMARK                         _______ _______ _______ _____ _____    ______ ____
ROOT
ATOM      1  C1  UNL     1      19.756  12.471  36.054  0.00  0.00    +0.064 C 
ATOM      2  C2  UNL     1      19.290  11.049  36.038  0.00  0.00    +0.030 A 
ATOM      3  C3  UNL     1      20.094   9.932  36.019  0.00  0.00    +0.022 A 
ATOM      4  C4  UNL     1      21.401   9.519  35.948  0.00  0.00    +0.042 A 
ATOM      5  C5  UNL     1      21.290   8.117  35.870  0.00  0.00    +0.103 A 
ATOM      6  N2  UNL     1      19.984   7.717  35.870  0.00  0.00    -0.349 N 
ATOM      7  C11 UNL     1      19.311   8.869  35.974  0.00  0.00    +0.068 A 
ATOM      8  C12 UNL     1      17.996   9.261  35.965  0.00  0.00    +0.045 A 
ATOM      9  C13 UNL     1      16.800   8.367  35.867  0.00  0.00    +0.066 C 
ATOM     10  N3  UNL     1      17.987  10.628  36.009  0.00  0.00    -0.315 N 
ATOM     11  H13 UNL     1      19.589   6.762  35.736  0.00  0.00    +0.166 HD
ENDROOT
BRANCH  10  12
ATOM     12  C14 UNL     1      16.824  11.473  35.994  0.00  0.00    +0.050 A 
ATOM     13  C15 UNL     1      16.154  11.787  37.204  0.00  0.00    +0.030 A 
ATOM     14  C16 UNL     1      15.014  12.611  37.196  0.00  0.00    +0.051 A 
ATOM     15  C17 UNL     1      14.576  13.100  35.970  0.00  0.00    +0.166 A 
ATOM     16  C18 UNL     1      15.210  12.802  34.808  0.00  0.00    +0.168 A 
ATOM     17  C19 UNL     1      16.341  11.991  34.773  0.00  0.00    +0.075 A 
ATOM     18  O2  UNL     1      14.561  13.419  33.757  0.00  0.00    -0.453 OA
ATOM     19  C20 UNL     1      13.447  14.149  34.291  0.00  0.00    +0.466 C 
ATOM     20  O3  UNL     1      13.493  13.918  35.707  0.00  0.00    -0.453 OA
ENDBRANCH  10  12
BRANCH   5  21
ATOM     21  C6  UNL     1      22.436   7.203  35.711  0.00  0.00    +0.263 C 
ATOM     22  O1  UNL     1      22.815   6.532  36.709  0.00  0.00    -0.268 OA
ATOM     23  N1  UNL     1      23.112   7.043  34.451  0.00  0.00    -0.296 N 
ATOM     24  C7  UNL     1      24.375   6.333  34.334  0.00  0.00    +0.108 C 
ATOM     25  C8  UNL     1      24.670   6.261  32.842  0.00  0.00    +0.020 C 
ATOM     26  C9  UNL     1      23.334   6.508  32.150  0.00  0.00    +0.020 C 
ATOM     27  C10 UNL     1      22.490   7.278  33.157  0.00  0.00    +0.108 C 
ENDBRANCH   5  21
TORSDOF 2
ENDMDL
MODEL 4
REMARK VINA RESULT:    -6.214      1.476      2.070
REMARK INTER + INTRA:          -7.692
REMARK INTER:                  -7.206
REMARK INTRA:                  -0.486
REMARK UNBOUND:                -0.752
REMARK  Name = /home/qwerty/github/datacon2025hack/step_04_hit_selection/docking/ligands/lig_218.pdb
REMARK  4 active torsions:
REMARK  status: ('A' for Active; 'I' for Inactive)
REMARK    1  A    between atoms: C1_1  and  C2_2
REMARK    2  A    between atoms: C5_5  and  C6_6
REMARK    3  A    between atoms: C12_15  and  C13_16
REMARK    4  A    between atoms: N3_17  and  C14_18
REMARK                            x       y       z     vdW  Elec       q    Type
REMARK                         _______ _______ _______ _____ _____    ______ ____
ROOT
ATOM      1  C1  UNL     1      21.305   4.687  27.926  0.00  0.00    +0.064 C 
ATOM      2  C2  UNL     1      20.967   3.668  26.882  0.00  0.00    +0.030 A 
ATOM      3  C3  UNL     1      20.909   3.885  25.525  0.00  0.00    +0.022 A 
ATOM      4  C4  UNL     1      21.009   4.857  24.562  0.00  0.00    +0.042 A 
ATOM      5  C5  UNL     1      20.679   4.170  23.377  0.00  0.00    +0.103 A 
ATOM      6  N2  UNL     1      20.374   2.862  23.626  0.00  0.00    -0.349 N 
ATOM      7  C11 UNL     1      20.545   2.754  24.948  0.00  0.00    +0.068 A 
ATOM      8  C12 UNL     1      20.362   1.785  25.902  0.00  0.00    +0.045 A 
ATOM      9  C13 UNL     1      19.900   0.380  25.669  0.00  0.00    +0.066 C 
ATOM     10  N3  UNL     1      20.632   2.360  27.113  0.00  0.00    -0.315 N 
ATOM     11  H13 UNL     1      20.013   2.136  22.971  0.00  0.00    +0.166 HD
ENDROOT
BRANCH  10  12
ATOM     12  C14 UNL     1      20.547   1.722  28.398  0.00  0.00    +0.050 A 
ATOM     13  C15 UNL     1      21.664   1.023  28.923  0.00  0.00    +0.030 A 
ATOM     14  C16 UNL     1      21.587   0.394  30.178  0.00  0.00    +0.051 A 
ATOM     15  C17 UNL     1      20.386   0.482  30.876  0.00  0.00    +0.166 A 
ATOM     16  C18 UNL     1      19.313   1.147  30.379  0.00  0.00    +0.168 A 
ATOM     17  C19 UNL     1      19.348   1.783  29.141  0.00  0.00    +0.075 A 
ATOM     18  O2  UNL     1      18.267   1.071  31.278  0.00  0.00    -0.453 OA
ATOM     19  C20 UNL     1      18.710   0.310  32.410  0.00  0.00    +0.466 C 
ATOM     20  O3  UNL     1      20.068  -0.048  32.112  0.00  0.00    -0.453 OA
ENDBRANCH  10  12
BRANCH   5  21
ATOM     21  C6  UNL     1      20.580   4.806  22.050  0.00  0.00    +0.263 C 
ATOM     22  O1  UNL     1      19.504   4.690  21.404  0.00  0.00    -0.268 OA
ATOM     23  N1  UNL     1      21.664   5.570  21.490  0.00  0.00    -0.296 N 
ATOM     24  C7  UNL     1      21.672   6.001  20.102  0.00  0.00    +0.108 C 
ATOM     25  C8  UNL     1      22.898   6.892  19.956  0.00  0.00    +0.020 C 
ATOM     26  C9  UNL     1      23.267   7.315  21.372  0.00  0.00    +0.020 C 
ATOM     27  C10 UNL     1      22.680   6.245  22.284  0.00  0.00    +0.108 C 
ENDBRANCH   5  21
TORSDOF 2
ENDMDL
MODEL 5
REMARK VINA RESULT:    -6.167      7.637     11.474
REMARK INTER + INTRA:          -7.640
REMARK INTER:                  -7.085
REMARK INTRA:                  -0.554
REMARK UNBOUND:                -0.752
REMARK  Name = /home/qwerty/github/datacon2025hack/step_04_hit_selection/docking/ligands/lig_218.pdb
REMARK  4 active torsions:
REMARK  status: ('A' for Active; 'I' for Inactive)
REMARK    1  A    between atoms: C1_1  and  C2_2
REMARK    2  A    between atoms: C5_5  and  C6_6
REMARK    3  A    between atoms: C12_15  and  C13_16
REMARK    4  A    between atoms: N3_17  and  C14_18
REMARK                            x       y       z     vdW  Elec       q    Type
REMARK                         _______ _______ _______ _____ _____    ______ ____
ROOT
ATOM      1  C1  UNL     1      10.676   1.842  23.821  0.00  0.00    +0.064 C 
ATOM      2  C2  UNL     1      11.642   2.086  22.703  0.00  0.00    +0.030 A 
ATOM      3  C3  UNL     1      12.757   1.334  22.415  0.00  0.00    +0.022 A 
ATOM      4  C4  UNL     1      13.510   0.273  22.851  0.00  0.00    +0.042 A 
ATOM      5  C5  UNL     1      14.602   0.268  21.960  0.00  0.00    +0.103 A 
ATOM      6  N2  UNL     1      14.515   1.288  21.056  0.00  0.00    -0.349 N 
ATOM      7  C11 UNL     1      13.365   1.888  21.381  0.00  0.00    +0.068 A 
ATOM      8  C12 UNL     1      12.669   2.999  20.976  0.00  0.00    +0.045 A 
ATOM      9  C13 UNL     1      13.051   3.937  19.874  0.00  0.00    +0.066 C 
ATOM     10  N3  UNL     1      11.588   3.118  21.804  0.00  0.00    -0.315 N 
ATOM     11  H13 UNL     1      15.207   1.590  20.338  0.00  0.00    +0.166 HD
ENDROOT
BRANCH  10  12
ATOM     12  C14 UNL     1      10.592   4.154  21.763  0.00  0.00    +0.050 A 
ATOM     13  C15 UNL     1      10.810   5.381  22.440  0.00  0.00    +0.030 A 
ATOM     14  C16 UNL     1       9.839   6.398  22.405  0.00  0.00    +0.051 A 
ATOM     15  C17 UNL     1       8.671   6.156  21.689  0.00  0.00    +0.166 A 
ATOM     16  C18 UNL     1       8.455   4.984  21.040  0.00  0.00    +0.168 A 
ATOM     17  C19 UNL     1       9.390   3.953  21.050  0.00  0.00    +0.075 A 
ATOM     18  O2  UNL     1       7.222   5.022  20.418  0.00  0.00    -0.453 OA
ATOM     19  C20 UNL     1       6.625   6.296  20.695  0.00  0.00    +0.466 C 
ATOM     20  O3  UNL     1       7.583   6.989  21.510  0.00  0.00    -0.453 OA
ENDBRANCH  10  12
BRANCH   5  21
ATOM     21  C6  UNL     1      15.743  -0.661  22.054  0.00  0.00    +0.263 C 
ATOM     22  O1  UNL     1      16.283  -1.063  20.988  0.00  0.00    -0.268 OA
ATOM     23  N1  UNL     1      16.266  -1.099  23.322  0.00  0.00    -0.296 N 
ATOM     24  C7  UNL     1      17.226  -2.185  23.431  0.00  0.00    +0.108 C 
ATOM     25  C8  UNL     1      17.629  -2.231  24.898  0.00  0.00    +0.020 C 
ATOM     26  C9  UNL     1      17.247  -0.871  25.470  0.00  0.00    +0.020 C 
ATOM     27  C10 UNL     1      16.150  -0.338  24.557  0.00  0.00    +0.108 C 
ENDBRANCH   5  21
TORSDOF 2
ENDMDL
MODEL 6
REMARK VINA RESULT:    -6.130     11.715     13.774
REMARK INTER + INTRA:          -7.599
REMARK INTER:                  -7.068
REMARK INTRA:                  -0.531
REMARK UNBOUND:                -0.752
REMARK  Name = /home/qwerty/github/datacon2025hack/step_04_hit_selection/docking/ligands/lig_218.pdb
REMARK  4 active torsions:
REMARK  status: ('A' for Active; 'I' for Inactive)
REMARK    1  A    between atoms: C1_1  and  C2_2
REMARK    2  A    between atoms: C5_5  and  C6_6
REMARK    3  A    between atoms: C12_15  and  C13_16
REMARK    4  A    between atoms: N3_17  and  C14_18
REMARK                            x       y       z     vdW  Elec       q    Type
REMARK                         _______ _______ _______ _____ _____    ______ ____
ROOT
ATOM      1  C1  UNL     1      17.423   8.332  36.512  0.00  0.00    +0.064 C 
ATOM      2  C2  UNL     1      18.029   9.697  36.397  0.00  0.00    +0.030 A 
ATOM      3  C3  UNL     1      17.342  10.887  36.327  0.00  0.00    +0.022 A 
ATOM      4  C4  UNL     1      16.082  11.427  36.260  0.00  0.00    +0.042 A 
ATOM      5  C5  UNL     1      16.331  12.803  36.092  0.00  0.00    +0.103 A 
ATOM      6  N2  UNL     1      17.670  13.065  36.037  0.00  0.00    -0.349 N 
ATOM      7  C11 UNL     1      18.226  11.860  36.197  0.00  0.00    +0.068 A 
ATOM      8  C12 UNL     1      19.494  11.334  36.182  0.00  0.00    +0.045 A 
ATOM      9  C13 UNL     1      20.771  12.093  36.001  0.00  0.00    +0.066 C 
ATOM     10  N3  UNL     1      19.366   9.979  36.311  0.00  0.00    -0.315 N 
ATOM     11  H13 UNL     1      18.156  13.966  35.834  0.00  0.00    +0.166 HD
ENDROOT
BRANCH  10  12
ATOM     12  C14 UNL     1      20.437   9.020  36.322  0.00  0.00    +0.050 A 
ATOM     13  C15 UNL     1      20.712   8.270  37.494  0.00  0.00    +0.030 A 
ATOM     14  C16 UNL     1      21.759   7.331  37.513  0.00  0.00    +0.051 A 
ATOM     15  C17 UNL     1      22.507   7.171  36.350  0.00  0.00    +0.166 A 
ATOM     16  C18 UNL     1      22.251   7.886  35.226  0.00  0.00    +0.168 A 
ATOM     17  C19 UNL     1      21.224   8.824  35.166  0.00  0.00    +0.075 A 
ATOM     18  O2  UNL     1      23.142   7.522  34.236  0.00  0.00    -0.453 OA
ATOM     19  C20 UNL     1      24.013   6.516  34.772  0.00  0.00    +0.466 C 
ATOM     20  O3  UNL     1      23.573   6.322  36.124  0.00  0.00    -0.453 OA
ENDBRANCH  10  12
BRANCH   5  21
ATOM     21  C6  UNL     1      15.279  13.818  35.902  0.00  0.00    +0.263 C 
ATOM     22  O1  UNL     1      15.199  14.766  36.730  0.00  0.00    -0.268 OA
ATOM     23  N1  UNL     1      14.363  13.767  34.793  0.00  0.00    -0.296 N 
ATOM     24  C7  UNL     1      13.186  14.616  34.720  0.00  0.00    +0.108 C 
ATOM     25  C8  UNL     1      12.581  14.364  33.346  0.00  0.00    +0.020 C 
ATOM     26  C9  UNL     1      13.700  13.747  32.515  0.00  0.00    +0.020 C 
ATOM     27  C10 UNL     1      14.660  13.125  33.521  0.00  0.00    +0.108 C 
ENDBRANCH   5  21
TORSDOF 2
ENDMDL
MODEL 7
REMARK VINA RESULT:    -6.113      7.351     10.214
REMARK INTER + INTRA:          -7.579
REMARK INTER:                  -6.986
REMARK INTRA:                  -0.593
REMARK UNBOUND:                -0.752
REMARK  Name = /home/qwerty/github/datacon2025hack/step_04_hit_selection/docking/ligands/lig_218.pdb
REMARK  4 active torsions:
REMARK  status: ('A' for Active; 'I' for Inactive)
REMARK    1  A    between atoms: C1_1  and  C2_2
REMARK    2  A    between atoms: C5_5  and  C6_6
REMARK    3  A    between atoms: C12_15  and  C13_16
REMARK    4  A    between atoms: N3_17  and  C14_18
REMARK                            x       y       z     vdW  Elec       q    Type
REMARK                         _______ _______ _______ _____ _____    ______ ____
ROOT
ATOM      1  C1  UNL     1      14.501   4.671  19.778  0.00  0.00    +0.064 C 
ATOM      2  C2  UNL     1      13.262   4.103  20.399  0.00  0.00    +0.030 A 
ATOM      3  C3  UNL     1      12.048   4.740  20.517  0.00  0.00    +0.022 A 
ATOM      4  C4  UNL     1      11.406   5.932  20.294  0.00  0.00    +0.042 A 
ATOM      5  C5  UNL     1      10.129   5.717  20.850  0.00  0.00    +0.103 A 
ATOM      6  N2  UNL     1      10.026   4.470  21.397  0.00  0.00    -0.349 N 
ATOM      7  C11 UNL     1      11.222   3.927  21.150  0.00  0.00    +0.068 A 
ATOM      8  C12 UNL     1      11.869   2.755  21.454  0.00  0.00    +0.045 A 
ATOM      9  C13 UNL     1      11.303   1.595  22.213  0.00  0.00    +0.066 C 
ATOM     10  N3  UNL     1      13.146   2.868  20.979  0.00  0.00    -0.315 N 
ATOM     11  H13 UNL     1       9.244   4.058  21.951  0.00  0.00    +0.166 HD
ENDROOT
BRANCH  10  12
ATOM     12  C14 UNL     1      14.188   1.884  21.093  0.00  0.00    +0.050 A 
ATOM     13  C15 UNL     1      14.640   1.186  19.945  0.00  0.00    +0.030 A 
ATOM     14  C16 UNL     1      15.657   0.220  20.051  0.00  0.00    +0.051 A 
ATOM     15  C17 UNL     1      16.196  -0.019  21.311  0.00  0.00    +0.166 A 
ATOM     16  C18 UNL     1      15.767   0.644  22.414  0.00  0.00    +0.168 A 
ATOM     17  C19 UNL     1      14.763   1.606  22.353  0.00  0.00    +0.075 A 
ATOM     18  O2  UNL     1      16.473   0.207  23.518  0.00  0.00    -0.453 OA
ATOM     19  C20 UNL     1      17.403  -0.795  23.081  0.00  0.00    +0.466 C 
ATOM     20  O3  UNL     1      17.192  -0.909  21.666  0.00  0.00    -0.453 OA
ENDBRANCH  10  12
BRANCH   5  21
ATOM     21  C6  UNL     1       9.072   6.743  20.917  0.00  0.00    +0.263 C 
ATOM     22  O1  UNL     1       7.957   6.496  20.382  0.00  0.00    -0.268 OA
ATOM     23  N1  UNL     1       9.272   7.998  21.593  0.00  0.00    -0.296 N 
ATOM     24  C7  UNL     1       8.334   9.102  21.469  0.00  0.00    +0.108 C 
ATOM     25  C8  UNL     1       8.824  10.167  22.440  0.00  0.00    +0.020 C 
ATOM     26  C9  UNL     1       9.737   9.439  23.419  0.00  0.00    +0.020 C 
ATOM     27  C10 UNL     1      10.217   8.195  22.681  0.00  0.00    +0.108 C 
ENDBRANCH   5  21
TORSDOF 2
ENDMDL
MODEL 8
REMARK VINA RESULT:    -6.104      4.789      8.750
REMARK INTER + INTRA:          -7.569
REMARK INTER:                  -6.704
REMARK INTRA:                  -0.865
REMARK UNBOUND:                -0.752
REMARK  Name = /home/qwerty/github/datacon2025hack/step_04_hit_selection/docking/ligands/lig_218.pdb
REMARK  4 active torsions:
REMARK  status: ('A' for Active; 'I' for Inactive)
REMARK    1  A    between atoms: C1_1  and  C2_2
REMARK    2  A    between atoms: C5_5  and  C6_6
REMARK    3  A    between atoms: C12_15  and  C13_16
REMARK    4  A    between atoms: N3_17  and  C14_18
REMARK                            x       y       z     vdW  Elec       q    Type
REMARK                         _______ _______ _______ _____ _____    ______ ____
ROOT
ATOM      1  C1  UNL     1      20.069   4.913  28.027  0.00  0.00    +0.064 C 
ATOM      2  C2  UNL     1      20.560   3.954  29.067  0.00  0.00    +0.030 A 
ATOM      3  C3  UNL     1      21.251   4.281  30.210  0.00  0.00    +0.022 A 
ATOM      4  C4  UNL     1      21.822   5.328  30.889  0.00  0.00    +0.042 A 
ATOM      5  C5  UNL     1      22.450   4.698  31.982  0.00  0.00    +0.103 A 
ATOM      6  N2  UNL     1      22.281   3.344  31.942  0.00  0.00    -0.349 N 
ATOM      7  C11 UNL     1      21.535   3.159  30.848  0.00  0.00    +0.068 A 
ATOM      8  C12 UNL     1      21.040   2.089  30.146  0.00  0.00    +0.045 A 
ATOM      9  C13 UNL     1      21.193   0.643  30.500  0.00  0.00    +0.066 C 
ATOM     10  N3  UNL     1      20.426   2.591  29.031  0.00  0.00    -0.315 N 
ATOM     11  H13 UNL     1      22.697   2.612  32.558  0.00  0.00    +0.166 HD
ENDROOT
BRANCH  10  12
ATOM     12  C14 UNL     1      19.786   1.829  27.995  0.00  0.00    +0.050 A 
ATOM     13  C15 UNL     1      20.525   1.401  26.863  0.00  0.00    +0.030 A 
ATOM     14  C16 UNL     1      19.904   0.656  25.844  0.00  0.00    +0.051 A 
ATOM     15  C17 UNL     1      18.552   0.362  25.988  0.00  0.00    +0.166 A 
ATOM     16  C18 UNL     1      17.838   0.770  27.067  0.00  0.00    +0.168 A 
ATOM     17  C19 UNL     1      18.415   1.507  28.097  0.00  0.00    +0.075 A 
ATOM     18  O2  UNL     1      16.532   0.337  26.946  0.00  0.00    -0.453 OA
ATOM     19  C20 UNL     1      16.418  -0.386  25.712  0.00  0.00    +0.466 C 
ATOM     20  O3  UNL     1      17.730  -0.346  25.132  0.00  0.00    -0.453 OA
ENDBRANCH  10  12
BRANCH   5  21
ATOM     21  C6  UNL     1      23.266   5.404  32.987  0.00  0.00    +0.263 C 
ATOM     22  O1  UNL     1      24.449   5.723  32.687  0.00  0.00    -0.268 OA
ATOM     23  N1  UNL     1      22.744   5.754  34.281  0.00  0.00    -0.296 N 
ATOM     24  C7  UNL     1      23.597   6.234  35.357  0.00  0.00    +0.108 C 
ATOM     25  C8  UNL     1      22.653   6.627  36.484  0.00  0.00    +0.020 C 
ATOM     26  C9  UNL     1      21.288   6.805  35.831  0.00  0.00    +0.020 C 
ATOM     27  C10 UNL     1      21.332   5.968  34.559  0.00  0.00    +0.108 C 
ENDBRANCH   5  21
TORSDOF 2
ENDMDL
MODEL 9
REMARK VINA RESULT:    -6.078      6.982     10.185
REMARK INTER + INTRA:          -7.541
REMARK INTER:                  -6.721
REMARK INTRA:                  -0.820
REMARK UNBOUND:                -0.752
REMARK  Name = /home/qwerty/github/datacon2025hack/step_04_hit_selection/docking/ligands/lig_218.pdb
REMARK  4 active torsions:
REMARK  status: ('A' for Active; 'I' for Inactive)
REMARK    1  A    between atoms: C1_1  and  C2_2
REMARK    2  A    between atoms: C5_5  and  C6_6
REMARK    3  A    between atoms: C12_15  and  C13_16
REMARK    4  A    between atoms: N3_17  and  C14_18
REMARK                            x       y       z     vdW  Elec       q    Type
REMARK                         _______ _______ _______ _____ _____    ______ ____
ROOT
ATOM      1  C1  UNL     1      22.530   6.079  34.914  0.00  0.00    +0.064 C 
ATOM      2  C2  UNL     1      21.236   5.407  34.575  0.00  0.00    +0.030 A 
ATOM      3  C3  UNL     1      21.088   4.267  33.818  0.00  0.00    +0.022 A 
ATOM      4  C4  UNL     1      21.777   3.350  33.066  0.00  0.00    +0.042 A 
ATOM      5  C5  UNL     1      20.755   2.538  32.535  0.00  0.00    +0.103 A 
ATOM      6  N2  UNL     1      19.520   2.965  32.931  0.00  0.00    -0.349 N 
ATOM      7  C11 UNL     1      19.796   4.012  33.717  0.00  0.00    +0.068 A 
ATOM      8  C12 UNL     1      19.080   4.964  34.398  0.00  0.00    +0.045 A 
ATOM      9  C13 UNL     1      17.589   5.066  34.487  0.00  0.00    +0.066 C 
ATOM     10  N3  UNL     1      19.986   5.835  34.938  0.00  0.00    -0.315 N 
ATOM     11  H13 UNL     1      18.581   2.624  32.634  0.00  0.00    +0.166 HD
ENDROOT
BRANCH  10  12
ATOM     12  C14 UNL     1      19.685   7.005  35.716  0.00  0.00    +0.050 A 
ATOM     13  C15 UNL     1      19.533   6.907  37.123  0.00  0.00    +0.030 A 
ATOM     14  C16 UNL     1      19.235   8.048  37.890  0.00  0.00    +0.051 A 
ATOM     15  C17 UNL     1      19.097   9.261  37.223  0.00  0.00    +0.166 A 
ATOM     16  C18 UNL     1      19.238   9.361  35.877  0.00  0.00    +0.168 A 
ATOM     17  C19 UNL     1      19.533   8.257  35.082  0.00  0.00    +0.075 A 
ATOM     18  O2  UNL     1      19.048  10.674  35.491  0.00  0.00    -0.453 OA
ATOM     19  C20 UNL     1      18.769  11.446  36.667  0.00  0.00    +0.466 C 
ATOM     20  O3  UNL     1      18.808  10.505  37.750  0.00  0.00    -0.453 OA
ENDBRANCH  10  12
BRANCH   5  21
ATOM     21  C6  UNL     1      20.986   1.427  31.593  0.00  0.00    +0.263 C 
ATOM     22  O1  UNL     1      20.645   0.263  31.938  0.00  0.00    -0.268 OA
ATOM     23  N1  UNL     1      21.563   1.640  30.292  0.00  0.00    -0.296 N 
ATOM     24  C7  UNL     1      22.009   0.540  29.453  0.00  0.00    +0.108 C 
ATOM     25  C8  UNL     1      22.408   1.170  28.126  0.00  0.00    +0.020 C 
ATOM     26  C9  UNL     1      21.726   2.533  28.101  0.00  0.00    +0.020 C 
ATOM     27  C10 UNL     1      21.481   2.894  29.560  0.00  0.00    +0.108 C 
ENDBRANCH   5  21
TORSDOF 2
ENDMDL
