REMARK  Name = /home/qwerty/github/datacon2025hack/step_04_hit_selection/docking/ligands/lig_391.pdb
REMARK  9 active torsions:
REMARK  status: ('A' for Active; 'I' for Inactive)
REMARK    1  A    between atoms: C1_1  and  C2_2
REMARK    2  A    between atoms: C2_2  and  C3_3
REMARK    3  A    between atoms: C3_3  and  C4_4
REMARK    4  A    between atoms: C3_3  and  N1_5
REMARK    5  A    between atoms: C5_6  and  C6_8
REMARK    6  A    between atoms: C9_11  and  N2_12
REMARK    7  A    between atoms: C10_13  and  C11_15
REMARK    8  A    between atoms: C14_20  and  N4_21
REMARK    9  A    between atoms: C20_27  and  C21_28
REMARK                            x       y       z     vdW  Elec       q    Type
REMARK                         _______ _______ _______ _____ _____    ______ ____
ROOT
ATOM      1  N2  UNL     1      -0.308  -1.043   2.299  0.00  0.00    -0.278 N 
ATOM      2  C10 UNL     1       0.954  -0.607   1.768  0.00  0.00    +0.303 C 
ATOM      3  O2  UNL     1       1.002  -0.115   0.609  0.00  0.00    -0.265 OA
ATOM      4  H13 UNL     1      -0.410  -1.162   3.332  0.00  0.00    +0.155 HD
ENDROOT
BRANCH   1   8
ATOM      5  C6  UNL     1      -3.856  -1.033  -0.050  0.00  0.00    +0.037 A 
ATOM      6  C7  UNL     1      -3.740  -0.228   1.096  0.00  0.00    +0.015 A 
ATOM      7  C8  UNL     1      -2.577  -0.257   1.866  0.00  0.00    +0.024 A 
ATOM      8  C9  UNL     1      -1.500  -1.074   1.502  0.00  0.00    +0.037 A 
ATOM      9  C20 UNL     1      -1.615  -1.917   0.373  0.00  0.00    -0.029 A 
ATOM     10  C21 UNL     1      -0.506  -2.851  -0.031  0.00  0.00    +0.045 C 
ATOM     11  C22 UNL     1      -2.783  -1.869  -0.406  0.00  0.00    +0.018 A 
BRANCH   5  13
ATOM     12  N1  UNL     1      -6.331  -0.541  -0.360  0.00  0.00    -0.309 N 
ATOM     13  C5  UNL     1      -5.073  -0.985  -0.896  0.00  0.00    +0.244 C 
ATOM     14  O1  UNL     1      -5.003  -1.349  -2.102  0.00  0.00    -0.270 OA
ATOM     15  H10 UNL     1      -6.460  -0.531   0.677  0.00  0.00    +0.149 HD
BRANCH  12  16
ATOM     16  C3  UNL     1      -7.466  -0.191  -1.222  0.00  0.00    +0.070 C 
ATOM     17  C4  UNL     1      -8.760  -0.098  -0.401  0.00  0.00    +0.028 C 
BRANCH  16  19
ATOM     18  C1  UNL     1      -6.837   2.305  -1.110  0.00  0.00    +0.005 C 
ATOM     19  C2  UNL     1      -7.186   1.112  -2.004  0.00  0.00    +0.018 C 
ENDBRANCH  16  19
ENDBRANCH  12  16
ENDBRANCH   5  13
ENDBRANCH   1   8
BRANCH   2  20
ATOM     20  C11 UNL     1       2.182  -0.708   2.593  0.00  0.00    +0.302 C 
ATOM     21  O3  UNL     1       2.075  -1.121   3.780  0.00  0.00    -0.265 OA
ATOM     22  N3  UNL     1       3.488  -0.350   2.096  0.00  0.00    -0.292 N 
ATOM     23  C12 UNL     1       4.660  -0.314   2.954  0.00  0.00    +0.110 C 
ATOM     24  C13 UNL     1       5.780   0.250   2.093  0.00  0.00    +0.039 C 
ATOM     25  C14 UNL     1       5.339   0.025   0.641  0.00  0.00    +0.075 C 
ATOM     26  C19 UNL     1       3.808  -0.027   0.714  0.00  0.00    +0.127 C 
BRANCH  25  27
ATOM     27  N4  UNL     1       5.812   1.108  -0.254  0.00  0.00    -0.298 NA
ATOM     28  C15 UNL     1       7.278   1.179  -0.314  0.00  0.00    +0.085 C 
ATOM     29  C16 UNL     1       7.645   1.757  -1.674  0.00  0.00    +0.017 C 
ATOM     30  C17 UNL     1       6.386   1.647  -2.515  0.00  0.00    +0.017 C 
ATOM     31  C18 UNL     1       5.391   0.900  -1.645  0.00  0.00    +0.085 C 
ENDBRANCH  25  27
ENDBRANCH   2  20
TORSDOF 6
