REMARK  Name = /home/qwerty/github/datacon2025hack/step_04_hit_selection/docking/ligands/lig_79.pdb
REMARK  9 active torsions:
REMARK  status: ('A' for Active; 'I' for Inactive)
REMARK    1  A    between atoms: C1_1  and  O1_2
REMARK    2  A    between atoms: O1_2  and  C2_3
REMARK    3  A    between atoms: C2_3  and  C3_4
REMARK    4  A    between atoms: C6_10  and  C7_11
REMARK    5  A    between atoms: N5_16  and  C11_17
REMARK    6  A    between atoms: C11_17  and  C12_18
REMARK    7  A    between atoms: C12_18  and  C13_19
REMARK    8  A    between atoms: C12_18  and  C14_20
REMARK    9  A    between atoms: C21_28  and  C22_29
REMARK                            x       y       z     vdW  Elec       q    Type
REMARK                         _______ _______ _______ _____ _____    ______ ____
ROOT
ATOM      1  C3  UNL     1      -2.538  -1.541   0.426  0.00  0.00    +0.161 C 
ATOM      2  C4  UNL     1      -2.546  -0.073  -0.084  0.00  0.00    +0.142 C 
ATOM      3  N1  UNL     1      -1.716   0.041  -1.283  0.00  0.00    -0.295 N 
ATOM      4  C5  UNL     1      -0.942   1.223  -1.523  0.00  0.00    +0.220 A 
ATOM      5  N2  UNL     1      -1.109   2.003  -2.606  0.00  0.00    -0.113 NA
ATOM      6  N3  UNL     1      -0.183   2.947  -2.540  0.00  0.00    -0.126 NA
ATOM      7  C6  UNL     1       0.534   2.729  -1.419  0.00  0.00    +0.182 A 
ATOM      8  N5  UNL     1       0.089   1.636  -0.753  0.00  0.00    -0.294 N 
ATOM      9  C20 UNL     1      -1.898  -0.932  -2.361  0.00  0.00    +0.139 C 
ATOM     10  C21 UNL     1      -2.739  -2.118  -1.859  0.00  0.00    +0.133 C 
ATOM     11  C22 UNL     1      -2.638  -3.300  -2.820  0.00  0.00    +0.039 C 
ATOM     12  O2  UNL     1      -2.278  -2.518  -0.581  0.00  0.00    -0.368 OA
ENDROOT
BRANCH   7  13
ATOM     13  C7  UNL     1       1.708   3.551  -1.067  0.00  0.00    +0.084 A 
ATOM     14  C8  UNL     1       2.136   3.887   0.206  0.00  0.00    +0.031 A 
ATOM     15  C9  UNL     1       3.242   4.697   0.041  0.00  0.00    +0.020 A 
ATOM     16  C10 UNL     1       3.435   4.831  -1.319  0.00  0.00    +0.083 A 
ATOM     17  N4  UNL     1       2.495   4.140  -1.987  0.00  0.00    -0.358 N 
ATOM     18  H12 UNL     1       2.401   4.075  -3.025  0.00  0.00    +0.165 HD
ENDBRANCH   7  13
BRANCH   1  19
ATOM     19  C2  UNL     1      -3.829  -1.893   1.174  0.00  0.00    +0.192 C 
BRANCH  19  21
ATOM     20  C1  UNL     1      -5.181  -1.346   2.957  0.00  0.00    +0.194 C 
ATOM     21  O1  UNL     1      -3.982  -1.034   2.285  0.00  0.00    -0.380 OA
ENDBRANCH  19  21
ENDBRANCH   1  19
BRANCH   8  22
ATOM     22  C11 UNL     1       0.738   0.889   0.334  0.00  0.00    +0.134 C 
BRANCH  22  23
ATOM     23  C12 UNL     1       2.057   0.238  -0.131  0.00  0.00    +0.036 C 
ATOM     24  C13 UNL     1       1.820  -0.820  -1.218  0.00  0.00    +0.014 C 
BRANCH  23  25
ATOM     25  C14 UNL     1       2.795  -0.358   1.053  0.00  0.00    -0.043 A 
ATOM     26  C15 UNL     1       2.258  -1.443   1.774  0.00  0.00    +0.007 A 
ATOM     27  C16 UNL     1       2.942  -1.971   2.873  0.00  0.00    +0.038 A 
ATOM     28  C17 UNL     1       4.163  -1.421   3.269  0.00  0.00    +0.123 A 
ATOM     29  F1  UNL     1       4.824  -1.933   4.336  0.00  0.00    -0.205 F 
ATOM     30  C18 UNL     1       4.702  -0.339   2.567  0.00  0.00    +0.038 A 
ATOM     31  C19 UNL     1       4.022   0.192   1.467  0.00  0.00    +0.007 A 
ENDBRANCH  23  25
ENDBRANCH  22  23
ENDBRANCH   8  22
TORSDOF 6
