REMARK  Name = /home/qwerty/github/datacon2025hack/step_04_hit_selection/docking/ligands/lig_570.pdb
REMARK  4 active torsions:
REMARK  status: ('A' for Active; 'I' for Inactive)
REMARK    1  A    between atoms: N1_3  and  C2_4
REMARK    2  A    between atoms: C5_7  and  C6_8
REMARK    3  A    between atoms: N6_24  and  C16_25
REMARK    4  A    between atoms: C16_25  and  C17_26
REMARK                            x       y       z     vdW  Elec       q    Type
REMARK                         _______ _______ _______ _____ _____    ______ ____
ROOT
ATOM      1  O1  UNL     1       2.422  -0.041   1.883  0.00  0.00    -0.252 OA
ATOM      2  C1  UNL     1       1.745  -0.516   0.930  0.00  0.00    +0.307 C 
ATOM      3  N1  UNL     1       2.373  -0.710  -0.353  0.00  0.00    -0.269 N 
ATOM      4  N4  UNL     1       0.358  -0.866   1.151  0.00  0.00    -0.283 N 
ATOM      5  C10 UNL     1      -0.276  -0.344   2.401  0.00  0.00    +0.111 C 
ATOM      6  C11 UNL     1      -1.792  -0.637   2.585  0.00  0.00    +0.043 C 
ATOM      7  C12 UNL     1      -2.429  -0.864   1.230  0.00  0.00    +0.101 C 
ATOM      8  C13 UNL     1      -1.730  -2.055   0.595  0.00  0.00    +0.112 C 
ATOM      9  C14 UNL     1      -0.371  -1.612   0.093  0.00  0.00    +0.133 C 
ATOM     10  N5  UNL     1      -2.671  -2.529  -0.404  0.00  0.00    -0.293 N 
ATOM     11  C15 UNL     1      -3.936  -2.129   0.104  0.00  0.00    +0.303 C 
ATOM     12  O2  UNL     1      -5.028  -2.541  -0.368  0.00  0.00    -0.253 OA
ATOM     13  N6  UNL     1      -3.840  -1.233   1.210  0.00  0.00    -0.276 N 
ATOM     14  H1  UNL     1       1.976  -1.409  -1.018  0.00  0.00    +0.156 HD
ATOM     15  H15 UNL     1      -2.514  -3.333  -1.052  0.00  0.00    +0.151 HD
ENDROOT
BRANCH   3  16
ATOM     16  C2  UNL     1       3.603  -0.071  -0.738  0.00  0.00    +0.035 A 
ATOM     17  C3  UNL     1       4.483  -0.736  -1.602  0.00  0.00    +0.024 A 
ATOM     18  C4  UNL     1       5.675  -0.129  -2.009  0.00  0.00    +0.012 A 
ATOM     19  C5  UNL     1       6.003   1.169  -1.573  0.00  0.00    +0.003 A 
ATOM     20  C8  UNL     1       5.106   1.840  -0.721  0.00  0.00    +0.012 A 
ATOM     21  C9  UNL     1       3.916   1.230  -0.314  0.00  0.00    +0.024 A 
BRANCH  19  22
ATOM     22  C6  UNL     1       7.265   1.836  -1.992  0.00  0.00    +0.102 A 
ATOM     23  C7  UNL     1       8.124   1.350  -2.987  0.00  0.00    +0.097 A 
ATOM     24  S1  UNL     1       9.359   2.467  -3.057  0.00  0.00    +0.029 S 
ATOM     25  N2  UNL     1       8.818   3.503  -1.884  0.00  0.00    -0.110 NA
ATOM     26  N3  UNL     1       7.676   3.011  -1.415  0.00  0.00    -0.141 NA
ENDBRANCH  19  22
ENDBRANCH   3  16
BRANCH  13  27
ATOM     27  C16 UNL     1      -4.935  -0.396   1.700  0.00  0.00    +0.144 C 
BRANCH  27  28
ATOM     28  C17 UNL     1      -5.103   0.822   0.831  0.00  0.00    -0.030 A 
ATOM     29  C18 UNL     1      -4.405   2.005   1.126  0.00  0.00    +0.005 A 
ATOM     30  C19 UNL     1      -4.531   3.123   0.297  0.00  0.00    +0.000 A 
ATOM     31  C20 UNL     1      -5.349   3.067  -0.835  0.00  0.00    +0.000 A 
ATOM     32  C21 UNL     1      -6.040   1.892  -1.140  0.00  0.00    +0.000 A 
ATOM     33  C22 UNL     1      -5.916   0.771  -0.313  0.00  0.00    +0.005 A 
ENDBRANCH  27  28
ENDBRANCH  13  27
TORSDOF 4
