REMARK  Name = /home/qwerty/github/datacon2025hack/step_04_hit_selection/docking/ligands/lig_265.pdb
REMARK  6 active torsions:
REMARK  status: ('A' for Active; 'I' for Inactive)
REMARK    1  A    between atoms: C1_1  and  O1_2
REMARK    2  A    between atoms: O1_2  and  C2_3
REMARK    3  A    between atoms: C5_6  and  C6_7
REMARK    4  A    between atoms: N2_12  and  C9_13
REMARK    5  A    between atoms: C12_16  and  C13_17
REMARK    6  A    between atoms: N3_19  and  C14_20
REMARK                            x       y       z     vdW  Elec       q    Type
REMARK                         _______ _______ _______ _____ _____    ______ ____
ROOT
ATOM      1  C9  UNL     1      -0.458  -0.726  -0.434  0.00  0.00    +0.121 A 
ATOM      2  C10 UNL     1      -1.355  -1.103   0.577  0.00  0.00    +0.044 A 
ATOM      3  C11 UNL     1      -2.727  -0.945   0.377  0.00  0.00    +0.018 A 
ATOM      4  C12 UNL     1      -3.209  -0.405  -0.827  0.00  0.00    +0.055 A 
ATOM      5  C21 UNL     1      -2.275  -0.013  -1.800  0.00  0.00    +0.126 A 
ATOM      6  N4  UNL     1      -0.944  -0.179  -1.582  0.00  0.00    -0.240 NA
ENDROOT
BRANCH   1  12
ATOM      7  C6  UNL     1       4.616  -0.186   1.646  0.00  0.00    +0.247 C 
ATOM      8  O2  UNL     1       4.440  -0.073   2.890  0.00  0.00    -0.270 OA
ATOM      9  N1  UNL     1       3.533  -0.658   0.821  0.00  0.00    -0.295 N 
ATOM     10  C7  UNL     1       2.611  -1.665   1.370  0.00  0.00    +0.127 C 
ATOM     11  C8  UNL     1       1.551  -2.067   0.343  0.00  0.00    +0.125 C 
ATOM     12  N2  UNL     1       0.965  -0.860  -0.257  0.00  0.00    -0.312 N 
ATOM     13  C22 UNL     1       1.849   0.199  -0.769  0.00  0.00    +0.125 C 
ATOM     14  C23 UNL     1       3.330  -0.129  -0.537  0.00  0.00    +0.127 C 
BRANCH   7  18
ATOM     15  C2  UNL     1       8.469   0.811   0.013  0.00  0.00    +0.120 A 
ATOM     16  C3  UNL     1       7.963   1.509   1.125  0.00  0.00    +0.046 A 
ATOM     17  C4  UNL     1       6.710   1.182   1.653  0.00  0.00    +0.016 A 
ATOM     18  C5  UNL     1       5.937   0.162   1.074  0.00  0.00    +0.037 A 
ATOM     19  C24 UNL     1       6.453  -0.544  -0.025  0.00  0.00    +0.016 A 
ATOM     20  C25 UNL     1       7.706  -0.217  -0.552  0.00  0.00    +0.046 A 
BRANCH  15  22
ATOM     21  C1  UNL     1      10.596   2.121  -0.086  0.00  0.00    +0.277 C 
ATOM     22  O1  UNL     1       9.718   1.103  -0.555  0.00  0.00    -0.495 OA
ENDBRANCH  15  22
ENDBRANCH   7  18
ENDBRANCH   1  12
BRANCH   4  23
ATOM     23  C13 UNL     1      -4.662  -0.222  -1.060  0.00  0.00    +0.250 C 
ATOM     24  O3  UNL     1      -5.050   0.548  -1.981  0.00  0.00    -0.270 OA
ATOM     25  N3  UNL     1      -5.631  -0.950  -0.286  0.00  0.00    -0.281 N 
ATOM     26  H12 UNL     1      -5.348  -1.874   0.111  0.00  0.00    +0.155 HD
BRANCH  25  27
ATOM     27  C14 UNL     1      -7.009  -0.559  -0.159  0.00  0.00    +0.037 A 
ATOM     28  C15 UNL     1      -7.996  -1.555   0.057  0.00  0.00    +0.027 A 
ATOM     29  C16 UNL     1      -9.350  -1.204   0.207  0.00  0.00    +0.051 A 
ATOM     30  C17 UNL     1      -9.680   0.145   0.149  0.00  0.00    +0.166 A 
ATOM     31  C18 UNL     1      -8.743   1.107  -0.040  0.00  0.00    +0.168 A 
ATOM     32  C19 UNL     1      -7.393   0.803  -0.193  0.00  0.00    +0.072 A 
ATOM     33  O4  UNL     1      -9.350   2.348  -0.042  0.00  0.00    -0.453 OA
ATOM     34  C20 UNL     1     -10.758   2.153   0.154  0.00  0.00    +0.466 C 
ATOM     35  O5  UNL     1     -10.925   0.733   0.272  0.00  0.00    -0.453 OA
ENDBRANCH  25  27
ENDBRANCH   4  23
TORSDOF 5
