REMARK  Name = /home/qwerty/github/datacon2025hack/step_04_hit_selection/docking/ligands/lig_760.pdb
REMARK  4 active torsions:
REMARK  status: ('A' for Active; 'I' for Inactive)
REMARK    1  A    between atoms: C1_1  and  N1_2
REMARK    2  A    between atoms: C3_4  and  C4_5
REMARK    3  A    between atoms: C10_13  and  N3_14
REMARK    4  A    between atoms: C11_15  and  C12_17
REMARK                            x       y       z     vdW  Elec       q    Type
REMARK                         _______ _______ _______ _____ _____    ______ ____
ROOT
ATOM      1  C4  UNL     1      -2.832  -0.339  -1.343  0.00  0.00    +0.250 C 
ATOM      2  O1  UNL     1      -3.559  -1.088  -2.049  0.00  0.00    -0.270 OA
ATOM      3  N2  UNL     1      -1.404  -0.531  -1.353  0.00  0.00    -0.295 N 
ATOM      4  C5  UNL     1      -0.753  -1.430  -2.293  0.00  0.00    +0.113 C 
ATOM      5  C6  UNL     1       0.728  -1.451  -1.890  0.00  0.00    +0.031 C 
ATOM      6  C7  UNL     1       1.352  -2.851  -1.904  0.00  0.00    +0.007 C 
ATOM      7  C8  UNL     1       1.430  -3.316  -0.451  0.00  0.00    +0.003 C 
ATOM      8  C9  UNL     1       0.704  -2.271   0.385  0.00  0.00    +0.027 C 
ATOM      9  C10 UNL     1       0.752  -0.973  -0.436  0.00  0.00    +0.055 C 
ATOM     10  C16 UNL     1      -0.512  -0.113  -0.281  0.00  0.00    +0.134 C 
ENDROOT
BRANCH   1  14
ATOM     11  C1  UNL     1      -6.259   2.157   1.291  0.00  0.00    +0.172 C 
ATOM     12  N1  UNL     1      -5.018   1.802   0.618  0.00  0.00    -0.274 N 
ATOM     13  C2  UNL     1      -4.783   0.656  -0.044  0.00  0.00    +0.121 A 
ATOM     14  C3  UNL     1      -3.486   0.691  -0.513  0.00  0.00    +0.074 A 
ATOM     15  C17 UNL     1      -2.991   1.920  -0.105  0.00  0.00    +0.147 A 
ATOM     16  N6  UNL     1      -3.943   2.574   0.589  0.00  0.00    -0.179 NA
ENDBRANCH   1  14
BRANCH   9  17
ATOM     17  N3  UNL     1       1.977  -0.209  -0.136  0.00  0.00    -0.303 N 
ATOM     18  C11 UNL     1       2.213   0.437   1.129  0.00  0.00    +0.264 C 
ATOM     19  O2  UNL     1       1.331   0.397   2.030  0.00  0.00    -0.268 OA
ATOM     20  H14 UNL     1       2.719  -0.143  -0.869  0.00  0.00    +0.150 HD
BRANCH  18  21
ATOM     21  C12 UNL     1       3.484   1.151   1.382  0.00  0.00    +0.143 A 
ATOM     22  C13 UNL     1       3.724   1.802   2.604  0.00  0.00    +0.143 A 
ATOM     23  N4  UNL     1       4.905   2.445   2.802  0.00  0.00    -0.259 NA
ATOM     24  C14 UNL     1       5.863   2.472   1.840  0.00  0.00    +0.130 A 
ATOM     25  C15 UNL     1       5.631   1.828   0.624  0.00  0.00    +0.131 A 
ATOM     26  N5  UNL     1       4.451   1.184   0.424  0.00  0.00    -0.247 NA
ENDBRANCH  18  21
ENDBRANCH   9  17
TORSDOF 3
