REMARK  Name = /home/qwerty/github/datacon2025hack/step_04_hit_selection/docking/ligands/lig_807.pdb
REMARK  4 active torsions:
REMARK  status: ('A' for Active; 'I' for Inactive)
REMARK    1  A    between atoms: C1_1  and  C2_2
REMARK    2  A    between atoms: C2_2  and  C3_3
REMARK    3  A    between atoms: C2_2  and  N1_4
REMARK    4  A    between atoms: N3_11  and  C8_12
REMARK                            x       y       z     vdW  Elec       q    Type
REMARK                         _______ _______ _______ _____ _____    ______ ____
ROOT
ATOM      1  N1  UNL     1       3.190  -0.357  -0.739  0.00  0.00    -0.268 N 
ATOM      2  C4  UNL     1       2.557  -1.313  -0.013  0.00  0.00    +0.114 A 
ATOM      3  C5  UNL     1       1.243  -1.342  -0.425  0.00  0.00    +0.020 A 
ATOM      4  C6  UNL     1       1.144  -0.363  -1.358  0.00  0.00    +0.152 A 
ATOM      5  N2  UNL     1       2.314   0.280  -1.509  0.00  0.00    -0.166 NA
ATOM      6  C7  UNL     1      -0.173   0.205  -1.256  0.00  0.00    +0.268 C 
ATOM      7  O1  UNL     1      -0.596   1.202  -1.899  0.00  0.00    -0.268 OA
ATOM      8  N3  UNL     1      -0.909  -0.493  -0.246  0.00  0.00    -0.289 N 
ATOM      9  C14 UNL     1      -0.026  -1.501   0.359  0.00  0.00    +0.147 C 
ENDROOT
BRANCH   8  10
ATOM     10  C8  UNL     1      -2.279  -0.219   0.204  0.00  0.00    +0.077 C 
ATOM     11  C9  UNL     1      -2.394   1.204   0.777  0.00  0.00    +0.022 C 
ATOM     12  C10 UNL     1      -3.794   1.460   1.372  0.00  0.00    +0.002 C 
ATOM     13  C11 UNL     1      -4.916   0.668   0.668  0.00  0.00    +0.000 C 
ATOM     14  C12 UNL     1      -4.579   0.383  -0.799  0.00  0.00    +0.002 C 
ATOM     15  C13 UNL     1      -3.296  -0.463  -0.938  0.00  0.00    +0.022 C 
ENDBRANCH   8  10
BRANCH   1  17
ATOM     16  C1  UNL     1       5.552  -1.062  -0.629  0.00  0.00    +0.032 C 
ATOM     17  C2  UNL     1       4.566   0.108  -0.546  0.00  0.00    +0.101 C 
ATOM     18  C3  UNL     1       4.697   0.849   0.787  0.00  0.00    +0.032 C 
ENDBRANCH   1  17
TORSDOF 2
