REMARK  Name = /home/qwerty/github/datacon2025hack/step_04_hit_selection/docking/ligands/lig_744.pdb
REMARK  7 active torsions:
REMARK  status: ('A' for Active; 'I' for Inactive)
REMARK    1  A    between atoms: C1_1  and  C2_2
REMARK    2  A    between atoms: C2_2  and  C3_3
REMARK    3  A    between atoms: C3_3  and  C4_4
REMARK    4  A    between atoms: C3_3  and  C13_20
REMARK    5  A    between atoms: C4_4  and  N1_5
REMARK    6  A    between atoms: C5_6  and  C6_8
REMARK    7  A    between atoms: N2_10  and  C7_11
REMARK                            x       y       z     vdW  Elec       q    Type
REMARK                         _______ _______ _______ _____ _____    ______ ____
ROOT
ATOM      1  N1  UNL     1      -0.531   0.186   1.584  0.00  0.00    -0.307 N 
ATOM      2  C5  UNL     1       0.682   0.591   0.932  0.00  0.00    +0.299 C 
ATOM      3  O1  UNL     1       0.887   1.811   0.686  0.00  0.00    -0.265 OA
ATOM      4  H9  UNL     1      -0.643  -0.807   1.892  0.00  0.00    +0.149 HD
ENDROOT
BRANCH   2   5
ATOM      5  C6  UNL     1       1.697  -0.409   0.550  0.00  0.00    +0.303 C 
ATOM      6  O2  UNL     1       1.491  -1.627   0.800  0.00  0.00    -0.265 OA
ATOM      7  N2  UNL     1       2.892  -0.004  -0.141  0.00  0.00    -0.275 N 
ATOM      8  H10 UNL     1       2.904   0.937  -0.594  0.00  0.00    +0.155 HD
BRANCH   7   9
ATOM      9  C7  UNL     1       4.028  -0.864  -0.344  0.00  0.00    +0.072 A 
ATOM     10  C8  UNL     1       4.432  -1.782   0.644  0.00  0.00    +0.029 A 
ATOM     11  C9  UNL     1       5.553  -2.591   0.439  0.00  0.00    +0.043 A 
ATOM     12  C10 UNL     1       6.288  -2.485  -0.744  0.00  0.00    +0.161 A 
ATOM     13  F1  UNL     1       7.376  -3.272  -0.937  0.00  0.00    -0.202 F 
ATOM     14  C11 UNL     1       5.907  -1.563  -1.723  0.00  0.00    +0.195 A 
ATOM     15  F2  UNL     1       6.626  -1.455  -2.868  0.00  0.00    -0.199 F 
ATOM     16  C12 UNL     1       4.786  -0.749  -1.522  0.00  0.00    +0.182 A 
ATOM     17  F3  UNL     1       4.427   0.140  -2.483  0.00  0.00    -0.200 F 
ENDBRANCH   7   9
ENDBRANCH   2   5
BRANCH   1  18
ATOM     18  C4  UNL     1      -1.628   1.116   1.857  0.00  0.00    +0.112 C 
BRANCH  18  19
ATOM     19  C3  UNL     1      -2.350   1.522   0.552  0.00  0.00    +0.036 C 
BRANCH  19  20
ATOM     20  C13 UNL     1      -2.757   0.294  -0.245  0.00  0.00    -0.043 A 
ATOM     21  C14 UNL     1      -2.177   0.046  -1.503  0.00  0.00    +0.004 A 
ATOM     22  C15 UNL     1      -2.529  -1.093  -2.233  0.00  0.00    +0.000 A 
ATOM     23  C16 UNL     1      -3.459  -1.997  -1.716  0.00  0.00    +0.000 A 
ATOM     24  C17 UNL     1      -4.038  -1.766  -0.466  0.00  0.00    +0.000 A 
ATOM     25  C18 UNL     1      -3.689  -0.629   0.269  0.00  0.00    +0.004 A 
ENDBRANCH  19  20
BRANCH  19  27
ATOM     26  C1  UNL     1      -3.205   3.811   1.324  0.00  0.00    +0.004 C 
ATOM     27  C2  UNL     1      -3.582   2.416   0.825  0.00  0.00    +0.006 C 
ENDBRANCH  19  27
ENDBRANCH  18  19
ENDBRANCH   1  18
TORSDOF 6
