REMARK  Name = /home/qwerty/github/datacon2025hack/step_04_hit_selection/docking/ligands/lig_525.pdb
REMARK  4 active torsions:
REMARK  status: ('A' for Active; 'I' for Inactive)
REMARK    1  A    between atoms: C1_2  and  C9_16
REMARK    2  A    between atoms: N1_3  and  C2_4
REMARK    3  A    between atoms: C4_7  and  C5_9
REMARK    4  A    between atoms: C7_12  and  O3_13
REMARK                            x       y       z     vdW  Elec       q    Type
REMARK                         _______ _______ _______ _____ _____    ______ ____
ROOT
ATOM      1  O1  UNL     1      -1.316  -1.895  -1.496  0.00  0.00    -0.270 OA
ATOM      2  C1  UNL     1      -1.691  -0.928  -0.779  0.00  0.00    +0.248 C 
ATOM      3  N1  UNL     1      -0.844   0.218  -0.625  0.00  0.00    -0.305 N 
ATOM      4  H1  UNL     1      -1.058   0.903   0.134  0.00  0.00    +0.149 HD
ENDROOT
BRANCH   2   5
ATOM      5  C9  UNL     1      -2.979  -1.020  -0.071  0.00  0.00    +0.083 A 
ATOM      6  C10 UNL     1      -3.592  -2.187   0.377  0.00  0.00    +0.148 A 
ATOM      7  N4  UNL     1      -4.763  -1.890   0.987  0.00  0.00    -0.174 NA
ATOM      8  N5  UNL     1      -4.904  -0.577   0.924  0.00  0.00    -0.236 N 
ATOM      9  C11 UNL     1      -5.954   0.142   1.391  0.00  0.00    +0.132 A 
ATOM     10  C12 UNL     1      -5.939   1.529   1.181  0.00  0.00    +0.130 A 
ATOM     11  N6  UNL     1      -4.893   2.099   0.511  0.00  0.00    -0.260 NA
ATOM     12  C13 UNL     1      -3.845   1.357   0.050  0.00  0.00    +0.139 A 
ATOM     13  C14 UNL     1      -3.861  -0.018   0.291  0.00  0.00    +0.097 A 
ENDBRANCH   2   5
BRANCH   3  14
ATOM     14  C2  UNL     1       0.333   0.412  -1.476  0.00  0.00    +0.108 C 
ATOM     15  C3  UNL     1       1.509  -0.396  -1.025  0.00  0.00    +0.132 C 
ATOM     16  N2  UNL     1       2.347   0.752  -0.624  0.00  0.00    -0.293 N 
ATOM     17  C4  UNL     1       3.636   1.037  -0.072  0.00  0.00    +0.266 C 
ATOM     18  O2  UNL     1       3.955   2.241   0.122  0.00  0.00    -0.268 OA
ATOM     19  C8  UNL     1       1.196   1.564  -1.063  0.00  0.00    +0.132 C 
BRANCH  17  20
ATOM     20  C5  UNL     1       4.608  -0.018   0.285  0.00  0.00    +0.137 A 
ATOM     21  C6  UNL     1       4.409  -1.391   0.105  0.00  0.00    +0.083 A 
ATOM     22  S1  UNL     1       5.781  -2.199   0.652  0.00  0.00    -0.037 S 
ATOM     23  C7  UNL     1       6.561  -0.783   1.089  0.00  0.00    +0.254 A 
ATOM     24  N3  UNL     1       5.812   0.309   0.833  0.00  0.00    -0.201 NA
BRANCH  23  25
ATOM     25  O3  UNL     1       7.832  -0.727   1.649  0.00  0.00    -0.487 OA
ATOM     26  H6  UNL     1       8.250   0.163   1.891  0.00  0.00    +0.294 HD
ENDBRANCH  23  25
ENDBRANCH  17  20
ENDBRANCH   3  14
TORSDOF 4
