REMARK  Name = /home/qwerty/github/datacon2025hack/step_04_hit_selection/docking/ligands/lig_565.pdb
REMARK  6 active torsions:
REMARK  status: ('A' for Active; 'I' for Inactive)
REMARK    1  A    between atoms: C2_2  and  C3_3
REMARK    2  A    between atoms: C2_2  and  C4_4
REMARK    3  A    between atoms: C4_4  and  N1_5
REMARK    4  A    between atoms: C5_6  and  C6_7
REMARK    5  A    between atoms: C9_10  and  C10_11
REMARK    6  A    between atoms: C13_14  and  C14_15
REMARK                            x       y       z     vdW  Elec       q    Type
REMARK                         _______ _______ _______ _____ _____    ______ ____
ROOT
ATOM      1  N1  UNL     1      -1.642  -1.142   0.320  0.00  0.00    -0.335 N 
ATOM      2  C5  UNL     1      -0.610  -0.276   0.116  0.00  0.00    +0.061 A 
ATOM      3  C13 UNL     1       0.578  -0.801   0.638  0.00  0.00    +0.050 A 
ATOM      4  C21 UNL     1       0.233  -2.025   1.185  0.00  0.00    +0.012 A 
ATOM      5  C22 UNL     1       1.004  -2.987   1.843  0.00  0.00    +0.030 A 
ATOM      6  C23 UNL     1       0.357  -4.141   2.319  0.00  0.00    +0.042 A 
ATOM      7 CL1  UNL     1       1.281  -5.377   3.153  0.00  0.00    -0.084 Cl
ATOM      8  C24 UNL     1      -1.031  -4.307   2.135  0.00  0.00    +0.022 A 
ATOM      9  C25 UNL     1      -1.783  -3.328   1.464  0.00  0.00    +0.028 A 
ATOM     10  C26 UNL     1      -1.116  -2.196   0.983  0.00  0.00    +0.051 A 
ENDROOT
BRANCH   3  11
ATOM     11  C14 UNL     1       1.915  -0.172   0.640  0.00  0.00    +0.142 A 
ATOM     12  N2  UNL     1       2.846  -0.419   1.600  0.00  0.00    -0.228 NA
ATOM     13  C15 UNL     1       3.882   0.349   1.219  0.00  0.00    +0.089 A 
ATOM     14  C16 UNL     1       5.119   0.484   1.844  0.00  0.00    +0.030 A 
ATOM     15  C17 UNL     1       6.059   1.350   1.252  0.00  0.00    +0.002 A 
ATOM     16  C18 UNL     1       5.741   2.048   0.064  0.00  0.00    +0.002 A 
ATOM     17  C19 UNL     1       4.480   1.886  -0.542  0.00  0.00    +0.028 A 
ATOM     18  C20 UNL     1       3.577   1.023   0.075  0.00  0.00    +0.066 A 
ATOM     19  N3  UNL     1       2.336   0.705  -0.308  0.00  0.00    -0.338 N 
ATOM     20  H19 UNL     1       1.832   1.037  -1.160  0.00  0.00    +0.167 HD
ENDBRANCH   3  11
BRANCH   2  21
ATOM     21  C6  UNL     1      -0.764   1.095  -0.415  0.00  0.00    -0.001 A 
ATOM     22  C7  UNL     1      -0.468   2.197   0.401  0.00  0.00    +0.010 A 
ATOM     23  C8  UNL     1      -0.587   3.497  -0.099  0.00  0.00    +0.004 A 
ATOM     24  C9  UNL     1      -0.990   3.710  -1.426  0.00  0.00    -0.050 A 
ATOM     25  C10 UNL     1      -1.155   5.105  -1.951  0.00  0.00    +0.044 C 
ATOM     26  C11 UNL     1      -1.300   2.607  -2.237  0.00  0.00    +0.004 A 
ATOM     27  C12 UNL     1      -1.179   1.308  -1.737  0.00  0.00    +0.010 A 
ENDBRANCH   2  21
BRANCH   1  28
ATOM     28  C4  UNL     1      -3.063  -0.929   0.008  0.00  0.00    +0.152 C 
BRANCH  28  30
ATOM     29  C1  UNL     1      -2.934  -2.277  -2.074  0.00  0.00    +0.009 C 
ATOM     30  C2  UNL     1      -3.588  -1.988  -0.939  0.00  0.00    -0.060 C 
ATOM     31  C3  UNL     1      -4.874  -2.709  -0.633  0.00  0.00    +0.040 C 
ENDBRANCH  28  30
ENDBRANCH   1  28
TORSDOF 4
