REMARK  Name = /home/qwerty/github/datacon2025hack/step_04_hit_selection/docking/ligands/lig_529.pdb
REMARK  5 active torsions:
REMARK  status: ('A' for Active; 'I' for Inactive)
REMARK    1  A    between atoms: C1_1  and  N1_2
REMARK    2  A    between atoms: C4_6  and  C5_8
REMARK    3  A    between atoms: C7_10  and  N3_11
REMARK    4  A    between atoms: N4_14  and  C9_15
REMARK    5  A    between atoms: N5_18  and  C12_19
REMARK                            x       y       z     vdW  Elec       q    Type
REMARK                         _______ _______ _______ _____ _____    ______ ____
ROOT
ATOM      1  N3  UNL     1       0.340   0.366   0.785  0.00  0.00    -0.269 N 
ATOM      2  C8  UNL     1      -1.038   0.101   1.088  0.00  0.00    +0.304 C 
ATOM      3  O2  UNL     1      -1.346  -0.757   1.959  0.00  0.00    -0.253 OA
ATOM      4  N4  UNL     1      -2.067   0.803   0.376  0.00  0.00    -0.296 N 
ATOM      5  H9  UNL     1       0.553   0.845  -0.119  0.00  0.00    +0.156 HD
ATOM      6  H10 UNL     1      -1.777   1.548  -0.298  0.00  0.00    +0.151 HD
ENDROOT
BRANCH   1   9
ATOM      7  C5  UNL     1       3.763  -0.770   1.768  0.00  0.00    +0.127 A 
ATOM      8  C6  UNL     1       2.666  -0.379   0.983  0.00  0.00    +0.056 A 
ATOM      9  C7  UNL     1       1.444  -0.074   1.595  0.00  0.00    +0.038 A 
ATOM     10  C18 UNL     1       1.345  -0.147   2.994  0.00  0.00    +0.043 A 
ATOM     11  C19 UNL     1       2.450  -0.557   3.740  0.00  0.00    +0.113 A 
ATOM     12  N8  UNL     1       3.619  -0.860   3.119  0.00  0.00    -0.250 NA
BRANCH   7  18
ATOM     13  C1  UNL     1       8.788   1.102  -1.950  0.00  0.00    +0.105 C 
ATOM     14  N1  UNL     1       7.461   0.511  -1.717  0.00  0.00    -0.302 NA
ATOM     15  C2  UNL     1       6.710   1.328  -0.740  0.00  0.00    +0.103 C 
ATOM     16  C3  UNL     1       5.309   0.748  -0.526  0.00  0.00    +0.123 C 
ATOM     17  N2  UNL     1       5.424  -0.667  -0.160  0.00  0.00    -0.294 N 
ATOM     18  C4  UNL     1       5.062  -1.120   1.158  0.00  0.00    +0.265 C 
ATOM     19  O1  UNL     1       5.872  -1.829   1.814  0.00  0.00    -0.268 OA
ATOM     20  C20 UNL     1       6.228  -1.515  -1.043  0.00  0.00    +0.123 C 
ATOM     21  C21 UNL     1       7.606  -0.879  -1.234  0.00  0.00    +0.103 C 
ENDBRANCH   7  18
ENDBRANCH   1   9
BRANCH   4  22
ATOM     22  C9  UNL     1      -3.493   0.553   0.608  0.00  0.00    +0.077 C 
ATOM     23  C10 UNL     1      -4.336   1.708   0.041  0.00  0.00    +0.041 C 
ATOM     24  C11 UNL     1      -5.828   1.447   0.256  0.00  0.00    +0.108 C 
ATOM     25  N5  UNL     1      -6.202   0.128  -0.271  0.00  0.00    -0.314 N 
ATOM     26  C16 UNL     1      -5.407  -1.037   0.144  0.00  0.00    +0.108 C 
ATOM     27  C17 UNL     1      -3.911  -0.770  -0.053  0.00  0.00    +0.041 C 
BRANCH  25  28
ATOM     28  C12 UNL     1      -7.480  -0.038  -0.918  0.00  0.00    +0.144 A 
ATOM     29  C13 UNL     1      -8.300  -1.145  -0.649  0.00  0.00    +0.047 A 
ATOM     30  C14 UNL     1      -9.531  -1.255  -1.293  0.00  0.00    +0.025 A 
ATOM     31  C15 UNL     1      -9.923  -0.262  -2.186  0.00  0.00    +0.135 A 
ATOM     32  N6  UNL     1      -9.101   0.795  -2.412  0.00  0.00    -0.156 NA
ATOM     33  N7  UNL     1      -7.921   0.903  -1.797  0.00  0.00    -0.134 NA
ENDBRANCH  25  28
ENDBRANCH   4  22
TORSDOF 4
