MODEL 1
REMARK VINA RESULT:    -7.255      0.000      0.000
REMARK INTER + INTRA:          -8.951
REMARK INTER:                  -8.528
REMARK INTRA:                  -0.424
REMARK UNBOUND:                -0.424
REMARK  Name = /home/qwerty/github/datacon2025hack/step_04_hit_selection/docking/ligands/lig_639.pdb
REMARK  4 active torsions:
REMARK  status: ('A' for Active; 'I' for Inactive)
REMARK    1  A    between atoms: C1_1  and  C2_2
REMARK    2  A    between atoms: C7_8  and  N1_9
REMARK    3  A    between atoms: N2_12  and  C9_13
REMARK    4  A    between atoms: C13_18  and  C14_19
REMARK                            x       y       z     vdW  Elec       q    Type
REMARK                         _______ _______ _______ _____ _____    ______ ____
ROOT
ATOM      1  N1  UNL     1      14.824  12.944  37.357  0.00  0.00    -0.269 N 
ATOM      2  C8  UNL     1      15.832  12.034  36.896  0.00  0.00    +0.308 C 
ATOM      3  O1  UNL     1      15.571  11.218  35.970  0.00  0.00    -0.252 OA
ATOM      4  N2  UNL     1      17.130  12.048  37.508  0.00  0.00    -0.267 N 
ATOM      5  H7  UNL     1      15.124  13.759  37.936  0.00  0.00    +0.156 HD
ATOM      6  H8  UNL     1      17.224  12.531  38.430  0.00  0.00    +0.156 HD
ENDROOT
BRANCH   4   7
ATOM      7  C9  UNL     1      18.272  11.338  36.999  0.00  0.00    +0.071 A 
ATOM      8  C10 UNL     1      19.215  11.951  36.138  0.00  0.00    +0.138 A 
ATOM      9  N3  UNL     1      20.305  11.258  35.693  0.00  0.00    -0.234 NA
ATOM     10  C11 UNL     1      20.470   9.976  36.096  0.00  0.00    +0.156 A 
ATOM     11  C12 UNL     1      21.484   9.109  35.776  0.00  0.00    +0.073 A 
ATOM     12  C13 UNL     1      21.140   7.954  36.485  0.00  0.00    +0.069 A 
ATOM     13  N4  UNL     1      19.990   8.145  37.178  0.00  0.00    -0.170 NA
ATOM     14  N5  UNL     1      19.605   9.383  36.924  0.00  0.00    -0.220 N 
ATOM     15  C18 UNL     1      18.507  10.013  37.405  0.00  0.00    +0.139 A 
BRANCH  12  16
ATOM     16  C14 UNL     1      21.907   6.657  36.509  0.00  0.00    +0.040 C 
ATOM     17  C15 UNL     1      23.383   6.816  36.870  0.00  0.00    +0.010 C 
ATOM     18  C16 UNL     1      23.772   6.307  35.488  0.00  0.00    +0.001 C 
ATOM     19  C17 UNL     1      22.302   6.142  35.127  0.00  0.00    +0.010 C 
ENDBRANCH  12  16
ENDBRANCH   4   7
BRANCH   1  27
ATOM     20  C1  UNL     1      13.881  15.084  35.535  0.00  0.00    +0.045 C 
ATOM     21  C2  UNL     1      13.004  13.948  35.987  0.00  0.00    -0.029 A 
ATOM     22  C3  UNL     1      11.670  13.902  35.547  0.00  0.00    +0.008 A 
ATOM     23  C4  UNL     1      10.838  12.842  35.913  0.00  0.00    +0.039 A 
ATOM     24  C5  UNL     1      11.327  11.817  36.724  0.00  0.00    +0.125 A 
ATOM     25  F1  UNL     1      10.520  10.783  37.070  0.00  0.00    -0.205 F 
ATOM     26  C6  UNL     1      12.645  11.858  37.186  0.00  0.00    +0.062 A 
ATOM     27  C7  UNL     1      13.482  12.931  36.848  0.00  0.00    +0.040 A 
ENDBRANCH   1  27
TORSDOF 3
ENDMDL
MODEL 2
REMARK VINA RESULT:    -7.077     16.494     17.420
REMARK INTER + INTRA:          -8.742
REMARK INTER:                  -8.267
REMARK INTRA:                  -0.475
REMARK UNBOUND:                -0.424
REMARK  Name = /home/qwerty/github/datacon2025hack/step_04_hit_selection/docking/ligands/lig_639.pdb
REMARK  4 active torsions:
REMARK  status: ('A' for Active; 'I' for Inactive)
REMARK    1  A    between atoms: C1_1  and  C2_2
REMARK    2  A    between atoms: C7_8  and  N1_9
REMARK    3  A    between atoms: N2_12  and  C9_13
REMARK    4  A    between atoms: C13_18  and  C14_19
REMARK                            x       y       z     vdW  Elec       q    Type
REMARK                         _______ _______ _______ _____ _____    ______ ____
ROOT
ATOM      1  N1  UNL     1      10.004   4.325  20.371  0.00  0.00    -0.269 N 
ATOM      2  C8  UNL     1      11.189   3.760  20.948  0.00  0.00    +0.308 C 
ATOM      3  O1  UNL     1      11.790   4.367  21.876  0.00  0.00    -0.252 OA
ATOM      4  N2  UNL     1      11.694   2.514  20.447  0.00  0.00    -0.267 N 
ATOM      5  H7  UNL     1       9.396   3.705  19.791  0.00  0.00    +0.156 HD
ATOM      6  H8  UNL     1      11.340   2.187  19.520  0.00  0.00    +0.156 HD
ENDROOT
BRANCH   4   7
ATOM      7  C9  UNL     1      12.741   1.755  21.075  0.00  0.00    +0.071 A 
ATOM      8  C10 UNL     1      14.042   1.666  20.520  0.00  0.00    +0.138 A 
ATOM      9  N3  UNL     1      15.023   0.959  21.155  0.00  0.00    -0.234 NA
ATOM     10  C11 UNL     1      14.731   0.349  22.328  0.00  0.00    +0.156 A 
ATOM     11  C12 UNL     1      15.559  -0.400  23.125  0.00  0.00    +0.073 A 
ATOM     12  C13 UNL     1      14.728  -0.749  24.194  0.00  0.00    +0.069 A 
ATOM     13  N4  UNL     1      13.487  -0.228  24.024  0.00  0.00    -0.170 NA
ATOM     14  N5  UNL     1      13.517   0.436  22.881  0.00  0.00    -0.220 N 
ATOM     15  C18 UNL     1      12.502   1.123  22.308  0.00  0.00    +0.139 A 
BRANCH  12  16
ATOM     16  C14 UNL     1      15.110  -1.583  25.390  0.00  0.00    +0.040 C 
ATOM     17  C15 UNL     1      14.160  -2.747  25.664  0.00  0.00    +0.010 C 
ATOM     18  C16 UNL     1      13.778  -2.118  26.997  0.00  0.00    +0.001 C 
ATOM     19  C17 UNL     1      14.727  -0.958  26.730  0.00  0.00    +0.010 C 
ENDBRANCH  12  16
ENDBRANCH   4   7
BRANCH   1  27
ATOM     20  C1  UNL     1       7.792   4.521  22.335  0.00  0.00    +0.045 C 
ATOM     21  C2  UNL     1       8.425   5.725  21.691  0.00  0.00    -0.029 A 
ATOM     22  C3  UNL     1       7.938   7.003  22.014  0.00  0.00    +0.008 A 
ATOM     23  C4  UNL     1       8.526   8.146  21.467  0.00  0.00    +0.039 A 
ATOM     24  C5  UNL     1       9.605   8.026  20.590  0.00  0.00    +0.125 A 
ATOM     25  F1  UNL     1      10.182   9.136  20.068  0.00  0.00    -0.205 F 
ATOM     26  C6  UNL     1      10.088   6.761  20.244  0.00  0.00    +0.062 A 
ATOM     27  C7  UNL     1       9.489   5.605  20.764  0.00  0.00    +0.040 A 
ENDBRANCH   1  27
TORSDOF 3
ENDMDL
MODEL 3
REMARK VINA RESULT:    -7.033     16.710     17.540
REMARK INTER + INTRA:          -8.690
REMARK INTER:                  -8.130
REMARK INTRA:                  -0.560
REMARK UNBOUND:                -0.424
REMARK  Name = /home/qwerty/github/datacon2025hack/step_04_hit_selection/docking/ligands/lig_639.pdb
REMARK  4 active torsions:
REMARK  status: ('A' for Active; 'I' for Inactive)
REMARK    1  A    between atoms: C1_1  and  C2_2
REMARK    2  A    between atoms: C7_8  and  N1_9
REMARK    3  A    between atoms: N2_12  and  C9_13
REMARK    4  A    between atoms: C13_18  and  C14_19
REMARK                            x       y       z     vdW  Elec       q    Type
REMARK                         _______ _______ _______ _____ _____    ______ ____
ROOT
ATOM      1  N1  UNL     1      10.081   6.265  19.902  0.00  0.00    -0.269 N 
ATOM      2  C8  UNL     1      10.948   5.366  20.606  0.00  0.00    +0.308 C 
ATOM      3  O1  UNL     1      11.529   5.745  21.660  0.00  0.00    -0.252 OA
ATOM      4  N2  UNL     1      11.163   4.044  20.093  0.00  0.00    -0.267 N 
ATOM      5  H7  UNL     1       9.431   5.865  19.190  0.00  0.00    +0.156 HD
ATOM      6  H8  UNL     1      10.893   3.862  19.099  0.00  0.00    +0.156 HD
ENDROOT
BRANCH   4   7
ATOM      7  C9  UNL     1      11.836   2.997  20.811  0.00  0.00    +0.071 A 
ATOM      8  C10 UNL     1      11.167   2.191  21.766  0.00  0.00    +0.138 A 
ATOM      9  N3  UNL     1      11.827   1.185  22.412  0.00  0.00    -0.234 NA
ATOM     10  C11 UNL     1      13.131   0.968  22.119  0.00  0.00    +0.156 A 
ATOM     11  C12 UNL     1      13.973   0.019  22.642  0.00  0.00    +0.073 A 
ATOM     12  C13 UNL     1      15.171   0.259  21.962  0.00  0.00    +0.069 A 
ATOM     13  N4  UNL     1      15.027   1.289  21.092  0.00  0.00    -0.170 NA
ATOM     14  N5  UNL     1      13.778   1.701  21.208  0.00  0.00    -0.220 N 
ATOM     15  C18 UNL     1      13.183   2.710  20.528  0.00  0.00    +0.139 A 
BRANCH  12  16
ATOM     16  C14 UNL     1      16.464  -0.496  22.134  0.00  0.00    +0.040 C 
ATOM     17  C15 UNL     1      16.342  -1.748  23.000  0.00  0.00    +0.010 C 
ATOM     18  C16 UNL     1      17.282  -1.128  24.024  0.00  0.00    +0.001 C 
ATOM     19  C17 UNL     1      17.411   0.121  23.161  0.00  0.00    +0.010 C 
ENDBRANCH  12  16
ENDBRANCH   4   7
BRANCH   1  27
ATOM     20  C1  UNL     1       7.744   7.017  21.565  0.00  0.00    +0.045 C 
ATOM     21  C2  UNL     1       8.769   8.013  21.095  0.00  0.00    -0.029 A 
ATOM     22  C3  UNL     1       8.609   9.366  21.438  0.00  0.00    +0.008 A 
ATOM     23  C4  UNL     1       9.561  10.314  21.054  0.00  0.00    +0.039 A 
ATOM     24  C5  UNL     1      10.682   9.921  20.322  0.00  0.00    +0.125 A 
ATOM     25  F1  UNL     1      11.610  10.841  19.959  0.00  0.00    -0.205 F 
ATOM     26  C6  UNL     1      10.845   8.583  19.956  0.00  0.00    +0.062 A 
ATOM     27  C7  UNL     1       9.884   7.627  20.312  0.00  0.00    +0.040 A 
ENDBRANCH   1  27
TORSDOF 3
ENDMDL
MODEL 4
REMARK VINA RESULT:    -6.896      3.277      9.680
REMARK INTER + INTRA:          -8.529
REMARK INTER:                  -8.119
REMARK INTRA:                  -0.410
REMARK UNBOUND:                -0.424
REMARK  Name = /home/qwerty/github/datacon2025hack/step_04_hit_selection/docking/ligands/lig_639.pdb
REMARK  4 active torsions:
REMARK  status: ('A' for Active; 'I' for Inactive)
REMARK    1  A    between atoms: C1_1  and  C2_2
REMARK    2  A    between atoms: C7_8  and  N1_9
REMARK    3  A    between atoms: N2_12  and  C9_13
REMARK    4  A    between atoms: C13_18  and  C14_19
REMARK                            x       y       z     vdW  Elec       q    Type
REMARK                         _______ _______ _______ _____ _____    ______ ____
ROOT
ATOM      1  N1  UNL     1      21.764   9.309  36.386  0.00  0.00    -0.269 N 
ATOM      2  C8  UNL     1      20.367   9.573  36.204  0.00  0.00    +0.308 C 
ATOM      3  O1  UNL     1      19.678   8.839  35.443  0.00  0.00    -0.252 OA
ATOM      4  N2  UNL     1      19.765  10.689  36.877  0.00  0.00    -0.267 N 
ATOM      5  H7  UNL     1      22.250   9.762  37.190  0.00  0.00    +0.156 HD
ATOM      6  H8  UNL     1      20.404  11.419  37.267  0.00  0.00    +0.156 HD
ENDROOT
BRANCH   4   7
ATOM      7  C9  UNL     1      18.349  10.929  36.938  0.00  0.00    +0.071 A 
ATOM      8  C10 UNL     1      17.461  10.029  37.579  0.00  0.00    +0.138 A 
ATOM      9  N3  UNL     1      16.124  10.299  37.644  0.00  0.00    -0.234 NA
ATOM     10  C11 UNL     1      15.664  11.445  37.091  0.00  0.00    +0.156 A 
ATOM     11  C12 UNL     1      14.373  11.909  37.047  0.00  0.00    +0.073 A 
ATOM     12  C13 UNL     1      14.504  13.129  36.377  0.00  0.00    +0.069 A 
ATOM     13  N4  UNL     1      15.800  13.358  36.053  0.00  0.00    -0.170 NA
ATOM     14  N5  UNL     1      16.484  12.319  36.499  0.00  0.00    -0.220 N 
ATOM     15  C18 UNL     1      17.819  12.116  36.403  0.00  0.00    +0.139 A 
BRANCH  12  16
ATOM     16  C14 UNL     1      13.392  14.090  36.042  0.00  0.00    +0.040 C 
ATOM     17  C15 UNL     1      12.013  13.440  35.962  0.00  0.00    +0.010 C 
ATOM     18  C16 UNL     1      11.935  13.795  34.483  0.00  0.00    +0.001 C 
ATOM     19  C17 UNL     1      13.308  14.449  34.560  0.00  0.00    +0.010 C 
ENDBRANCH  12  16
ENDBRANCH   4   7
BRANCH   1  27
ATOM     20  C1  UNL     1      22.479   6.782  37.763  0.00  0.00    +0.045 C 
ATOM     21  C2  UNL     1      22.813   7.051  36.321  0.00  0.00    -0.029 A 
ATOM     22  C3  UNL     1      23.512   6.075  35.591  0.00  0.00    +0.008 A 
ATOM     23  C4  UNL     1      23.805   6.273  34.240  0.00  0.00    +0.039 A 
ATOM     24  C5  UNL     1      23.404   7.447  33.602  0.00  0.00    +0.125 A 
ATOM     25  F1  UNL     1      23.679   7.632  32.287  0.00  0.00    -0.205 F 
ATOM     26  C6  UNL     1      22.725   8.435  34.319  0.00  0.00    +0.062 A 
ATOM     27  C7  UNL     1      22.449   8.262  35.682  0.00  0.00    +0.040 A 
ENDBRANCH   1  27
TORSDOF 3
ENDMDL
MODEL 5
REMARK VINA RESULT:    -6.776      5.771     10.727
REMARK INTER + INTRA:          -8.388
REMARK INTER:                  -7.836
REMARK INTRA:                  -0.553
REMARK UNBOUND:                -0.424
REMARK  Name = /home/qwerty/github/datacon2025hack/step_04_hit_selection/docking/ligands/lig_639.pdb
REMARK  4 active torsions:
REMARK  status: ('A' for Active; 'I' for Inactive)
REMARK    1  A    between atoms: C1_1  and  C2_2
REMARK    2  A    between atoms: C7_8  and  N1_9
REMARK    3  A    between atoms: N2_12  and  C9_13
REMARK    4  A    between atoms: C13_18  and  C14_19
REMARK                            x       y       z     vdW  Elec       q    Type
REMARK                         _______ _______ _______ _____ _____    ______ ____
ROOT
ATOM      1  N1  UNL     1      22.275   2.758  32.969  0.00  0.00    -0.269 N 
ATOM      2  C8  UNL     1      22.053   4.165  33.138  0.00  0.00    +0.308 C 
ATOM      3  O1  UNL     1      21.421   4.815  32.261  0.00  0.00    -0.252 OA
ATOM      4  N2  UNL     1      22.571   4.827  34.301  0.00  0.00    -0.267 N 
ATOM      5  H7  UNL     1      22.574   2.203  33.801  0.00  0.00    +0.156 HD
ATOM      6  H8  UNL     1      23.305   4.328  34.854  0.00  0.00    +0.156 HD
ENDROOT
BRANCH   4   7
ATOM      7  C9  UNL     1      22.239   6.173  34.681  0.00  0.00    +0.071 A 
ATOM      8  C10 UNL     1      23.025   7.282  34.281  0.00  0.00    +0.138 A 
ATOM      9  N3  UNL     1      22.668   8.552  34.635  0.00  0.00    -0.234 NA
ATOM     10  C11 UNL     1      21.546   8.731  35.370  0.00  0.00    +0.156 A 
ATOM     11  C12 UNL     1      21.008   9.909  35.826  0.00  0.00    +0.073 A 
ATOM     12  C13 UNL     1      19.858   9.485  36.499  0.00  0.00    +0.069 A 
ATOM     13  N4  UNL     1      19.738   8.136  36.434  0.00  0.00    -0.170 NA
ATOM     14  N5  UNL     1      20.777   7.703  35.742  0.00  0.00    -0.220 N 
ATOM     15  C18 UNL     1      21.070   6.421  35.422  0.00  0.00    +0.139 A 
BRANCH  12  16
ATOM     16  C14 UNL     1      18.861  10.364  37.210  0.00  0.00    +0.040 C 
ATOM     17  C15 UNL     1      18.056   9.642  38.288  0.00  0.00    +0.010 C 
ATOM     18  C16 UNL     1      16.779   9.888  37.495  0.00  0.00    +0.001 C 
ATOM     19  C17 UNL     1      17.578  10.613  36.420  0.00  0.00    +0.010 C 
ENDBRANCH  12  16
ENDBRANCH   4   7
BRANCH   1  27
ATOM     20  C1  UNL     1      19.725   1.244  32.947  0.00  0.00    +0.045 C 
ATOM     21  C2  UNL     1      20.651   1.307  31.762  0.00  0.00    -0.029 A 
ATOM     22  C3  UNL     1      20.309   0.603  30.595  0.00  0.00    +0.008 A 
ATOM     23  C4  UNL     1      21.123   0.670  29.462  0.00  0.00    +0.039 A 
ATOM     24  C5  UNL     1      22.288   1.438  29.481  0.00  0.00    +0.125 A 
ATOM     25  F1  UNL     1      23.071   1.510  28.377  0.00  0.00    -0.205 F 
ATOM     26  C6  UNL     1      22.651   2.128  30.641  0.00  0.00    +0.062 A 
ATOM     27  C7  UNL     1      21.857   2.048  31.794  0.00  0.00    +0.040 A 
ENDBRANCH   1  27
TORSDOF 3
ENDMDL
MODEL 6
REMARK VINA RESULT:    -6.754      1.836      2.761
REMARK INTER + INTRA:          -8.362
REMARK INTER:                  -7.767
REMARK INTRA:                  -0.595
REMARK UNBOUND:                -0.424
REMARK  Name = /home/qwerty/github/datacon2025hack/step_04_hit_selection/docking/ligands/lig_639.pdb
REMARK  4 active torsions:
REMARK  status: ('A' for Active; 'I' for Inactive)
REMARK    1  A    between atoms: C1_1  and  C2_2
REMARK    2  A    between atoms: C7_8  and  N1_9
REMARK    3  A    between atoms: N2_12  and  C9_13
REMARK    4  A    between atoms: C13_18  and  C14_19
REMARK                            x       y       z     vdW  Elec       q    Type
REMARK                         _______ _______ _______ _____ _____    ______ ____
ROOT
ATOM      1  N1  UNL     1      16.912  12.345  37.257  0.00  0.00    -0.269 N 
ATOM      2  C8  UNL     1      17.559  11.114  36.908  0.00  0.00    +0.308 C 
ATOM      3  O1  UNL     1      17.082  10.385  35.995  0.00  0.00    -0.252 OA
ATOM      4  N2  UNL     1      18.739  10.710  37.618  0.00  0.00    -0.267 N 
ATOM      5  H7  UNL     1      17.446  13.037  37.827  0.00  0.00    +0.156 HD
ATOM      6  H8  UNL     1      18.942  11.185  38.527  0.00  0.00    +0.156 HD
ENDROOT
BRANCH   4   7
ATOM      7  C9  UNL     1      19.584   9.615  37.226  0.00  0.00    +0.071 A 
ATOM      8  C10 UNL     1      19.406   8.306  37.740  0.00  0.00    +0.138 A 
ATOM      9  N3  UNL     1      20.209   7.282  37.327  0.00  0.00    -0.234 NA
ATOM     10  C11 UNL     1      21.173   7.538  36.412  0.00  0.00    +0.156 A 
ATOM     11  C12 UNL     1      22.077   6.663  35.862  0.00  0.00    +0.073 A 
ATOM     12  C13 UNL     1      22.799   7.476  34.982  0.00  0.00    +0.069 A 
ATOM     13  N4  UNL     1      22.336   8.750  35.021  0.00  0.00    -0.170 NA
ATOM     14  N5  UNL     1      21.347   8.759  35.897  0.00  0.00    -0.220 N 
ATOM     15  C18 UNL     1      20.585   9.818  36.259  0.00  0.00    +0.139 A 
BRANCH  12  16
ATOM     16  C14 UNL     1      23.937   7.043  34.094  0.00  0.00    +0.040 C 
ATOM     17  C15 UNL     1      24.351   8.090  33.062  0.00  0.00    +0.010 C 
ATOM     18  C16 UNL     1      23.931   7.148  31.942  0.00  0.00    +0.001 C 
ATOM     19  C17 UNL     1      23.522   6.099  32.968  0.00  0.00    +0.010 C 
ENDBRANCH  12  16
ENDBRANCH   4   7
BRANCH   1  27
ATOM     20  C1  UNL     1      16.946  14.126  34.886  0.00  0.00    +0.045 C 
ATOM     21  C2  UNL     1      15.674  13.632  35.522  0.00  0.00    -0.029 A 
ATOM     22  C3  UNL     1      14.442  14.044  34.986  0.00  0.00    +0.008 A 
ATOM     23  C4  UNL     1      13.242  13.574  35.524  0.00  0.00    +0.039 A 
ATOM     24  C5  UNL     1      13.257  12.690  36.603  0.00  0.00    +0.125 A 
ATOM     25  F1  UNL     1      12.091  12.227  37.118  0.00  0.00    -0.205 F 
ATOM     26  C6  UNL     1      14.474  12.286  37.159  0.00  0.00    +0.062 A 
ATOM     27  C7  UNL     1      15.685  12.771  36.647  0.00  0.00    +0.040 A 
ENDBRANCH   1  27
TORSDOF 3
ENDMDL
MODEL 7
REMARK VINA RESULT:    -6.692      5.716      8.555
REMARK INTER + INTRA:          -8.289
REMARK INTER:                  -7.694
REMARK INTRA:                  -0.594
REMARK UNBOUND:                -0.424
REMARK  Name = /home/qwerty/github/datacon2025hack/step_04_hit_selection/docking/ligands/lig_639.pdb
REMARK  4 active torsions:
REMARK  status: ('A' for Active; 'I' for Inactive)
REMARK    1  A    between atoms: C1_1  and  C2_2
REMARK    2  A    between atoms: C7_8  and  N1_9
REMARK    3  A    between atoms: N2_12  and  C9_13
REMARK    4  A    between atoms: C13_18  and  C14_19
REMARK                            x       y       z     vdW  Elec       q    Type
REMARK                         _______ _______ _______ _____ _____    ______ ____
ROOT
ATOM      1  N1  UNL     1      10.520  13.983  29.777  0.00  0.00    -0.269 N 
ATOM      2  C8  UNL     1      10.909  13.585  31.099  0.00  0.00    +0.308 C 
ATOM      3  O1  UNL     1      10.908  12.365  31.418  0.00  0.00    -0.252 OA
ATOM      4  N2  UNL     1      11.277  14.587  32.059  0.00  0.00    -0.267 N 
ATOM      5  H7  UNL     1      10.759  14.949  29.464  0.00  0.00    +0.156 HD
ATOM      6  H8  UNL     1      11.008  15.576  31.852  0.00  0.00    +0.156 HD
ENDROOT
BRANCH   4   7
ATOM      7  C9  UNL     1      11.878  14.304  33.334  0.00  0.00    +0.071 A 
ATOM      8  C10 UNL     1      11.106  14.182  34.517  0.00  0.00    +0.138 A 
ATOM      9  N3  UNL     1      11.703  13.885  35.709  0.00  0.00    -0.234 NA
ATOM     10  C11 UNL     1      13.044  13.703  35.738  0.00  0.00    +0.156 A 
ATOM     11  C12 UNL     1      13.837  13.397  36.816  0.00  0.00    +0.073 A 
ATOM     12  C13 UNL     1      15.113  13.317  36.250  0.00  0.00    +0.069 A 
ATOM     13  N4  UNL     1      15.059  13.561  34.917  0.00  0.00    -0.170 NA
ATOM     14  N5  UNL     1      13.790  13.792  34.632  0.00  0.00    -0.220 N 
ATOM     15  C18 UNL     1      13.263  14.079  33.419  0.00  0.00    +0.139 A 
BRANCH  12  16
ATOM     16  C14 UNL     1      16.396  13.004  36.975  0.00  0.00    +0.040 C 
ATOM     17  C15 UNL     1      17.568  12.679  36.051  0.00  0.00    +0.010 C 
ATOM     18  C16 UNL     1      17.622  11.268  36.621  0.00  0.00    +0.001 C 
ATOM     19  C17 UNL     1      16.457  11.589  37.547  0.00  0.00    +0.010 C 
ENDBRANCH  12  16
ENDBRANCH   4   7
BRANCH   1  27
ATOM     20  C1  UNL     1       7.631  13.379  29.500  0.00  0.00    +0.045 C 
ATOM     21  C2  UNL     1       8.689  12.730  28.649  0.00  0.00    -0.029 A 
ATOM     22  C3  UNL     1       8.300  11.778  27.692  0.00  0.00    +0.008 A 
ATOM     23  C4  UNL     1       9.249  11.183  26.857  0.00  0.00    +0.039 A 
ATOM     24  C5  UNL     1      10.596  11.530  26.970  0.00  0.00    +0.125 A 
ATOM     25  F1  UNL     1      11.514  10.960  26.151  0.00  0.00    -0.205 F 
ATOM     26  C6  UNL     1      11.000  12.461  27.931  0.00  0.00    +0.062 A 
ATOM     27  C7  UNL     1      10.062  13.044  28.793  0.00  0.00    +0.040 A 
ENDBRANCH   1  27
TORSDOF 3
ENDMDL
MODEL 8
REMARK VINA RESULT:    -6.630     16.609     19.354
REMARK INTER + INTRA:          -8.216
REMARK INTER:                  -7.718
REMARK INTRA:                  -0.498
REMARK UNBOUND:                -0.424
REMARK  Name = /home/qwerty/github/datacon2025hack/step_04_hit_selection/docking/ligands/lig_639.pdb
REMARK  4 active torsions:
REMARK  status: ('A' for Active; 'I' for Inactive)
REMARK    1  A    between atoms: C1_1  and  C2_2
REMARK    2  A    between atoms: C7_8  and  N1_9
REMARK    3  A    between atoms: N2_12  and  C9_13
REMARK    4  A    between atoms: C13_18  and  C14_19
REMARK                            x       y       z     vdW  Elec       q    Type
REMARK                         _______ _______ _______ _____ _____    ______ ____
ROOT
ATOM      1  N1  UNL     1      13.809  -0.064  21.856  0.00  0.00    -0.269 N 
ATOM      2  C8  UNL     1      13.480   1.331  21.825  0.00  0.00    +0.308 C 
ATOM      3  O1  UNL     1      14.251   2.174  22.362  0.00  0.00    -0.252 OA
ATOM      4  N2  UNL     1      12.262   1.757  21.199  0.00  0.00    -0.267 N 
ATOM      5  H7  UNL     1      13.300  -0.704  21.207  0.00  0.00    +0.156 HD
ATOM      6  H8  UNL     1      11.534   1.029  21.015  0.00  0.00    +0.156 HD
ENDROOT
BRANCH   4   7
ATOM      7  C9  UNL     1      11.928   3.128  20.925  0.00  0.00    +0.071 A 
ATOM      8  C10 UNL     1      12.676   3.915  20.013  0.00  0.00    +0.138 A 
ATOM      9  N3  UNL     1      12.318   5.207  19.754  0.00  0.00    -0.234 NA
ATOM     10  C11 UNL     1      11.231   5.720  20.378  0.00  0.00    +0.156 A 
ATOM     11  C12 UNL     1      10.699   6.979  20.261  0.00  0.00    +0.073 A 
ATOM     12  C13 UNL     1       9.593   6.929  21.114  0.00  0.00    +0.069 A 
ATOM     13  N4  UNL     1       9.491   5.707  21.691  0.00  0.00    -0.170 NA
ATOM     14  N5  UNL     1      10.499   4.991  21.226  0.00  0.00    -0.220 N 
ATOM     15  C18 UNL     1      10.795   3.704  21.525  0.00  0.00    +0.139 A 
BRANCH  12  16
ATOM     16  C14 UNL     1       8.620   8.048  21.385  0.00  0.00    +0.040 C 
ATOM     17  C15 UNL     1       9.145   9.432  21.006  0.00  0.00    +0.010 C 
ATOM     18  C16 UNL     1       9.085   9.851  22.469  0.00  0.00    +0.001 C 
ATOM     19  C17 UNL     1       8.556   8.475  22.850  0.00  0.00    +0.010 C 
ENDBRANCH  12  16
ENDBRANCH   4   7
BRANCH   1  27
ATOM     20  C1  UNL     1      16.376  -0.402  20.411  0.00  0.00    +0.045 C 
ATOM     21  C2  UNL     1      16.202  -0.751  21.864  0.00  0.00    -0.029 A 
ATOM     22  C3  UNL     1      17.295  -1.281  22.571  0.00  0.00    +0.008 A 
ATOM     23  C4  UNL     1      17.183  -1.579  23.931  0.00  0.00    +0.039 A 
ATOM     24  C5  UNL     1      15.979  -1.354  24.600  0.00  0.00    +0.125 A 
ATOM     25  F1  UNL     1      15.876  -1.635  25.922  0.00  0.00    -0.205 F 
ATOM     26  C6  UNL     1      14.878  -0.846  23.906  0.00  0.00    +0.062 A 
ATOM     27  C7  UNL     1      14.969  -0.569  22.535  0.00  0.00    +0.040 A 
ENDBRANCH   1  27
TORSDOF 3
ENDMDL
MODEL 9
REMARK VINA RESULT:    -6.606     16.473     19.305
REMARK INTER + INTRA:          -8.188
REMARK INTER:                  -7.771
REMARK INTRA:                  -0.417
REMARK UNBOUND:                -0.424
REMARK  Name = /home/qwerty/github/datacon2025hack/step_04_hit_selection/docking/ligands/lig_639.pdb
REMARK  4 active torsions:
REMARK  status: ('A' for Active; 'I' for Inactive)
REMARK    1  A    between atoms: C1_1  and  C2_2
REMARK    2  A    between atoms: C7_8  and  N1_9
REMARK    3  A    between atoms: N2_12  and  C9_13
REMARK    4  A    between atoms: C13_18  and  C14_19
REMARK                            x       y       z     vdW  Elec       q    Type
REMARK                         _______ _______ _______ _____ _____    ______ ____
ROOT
ATOM      1  N1  UNL     1      13.150   1.648  20.654  0.00  0.00    -0.269 N 
ATOM      2  C8  UNL     1      12.264   2.587  21.277  0.00  0.00    +0.308 C 
ATOM      3  O1  UNL     1      12.434   2.910  22.485  0.00  0.00    -0.252 OA
ATOM      4  N2  UNL     1      11.175   3.140  20.524  0.00  0.00    -0.267 N 
ATOM      5  H7  UNL     1      13.146   1.585  19.612  0.00  0.00    +0.156 HD
ATOM      6  H8  UNL     1      10.907   2.655  19.637  0.00  0.00    +0.156 HD
ENDROOT
BRANCH   4   7
ATOM      7  C9  UNL     1      10.355   4.233  20.969  0.00  0.00    +0.071 A 
ATOM      8  C10 UNL     1       9.045   4.034  21.471  0.00  0.00    +0.138 A 
ATOM      9  N3  UNL     1       8.300   5.090  21.912  0.00  0.00    -0.234 NA
ATOM     10  C11 UNL     1       8.841   6.331  21.867  0.00  0.00    +0.156 A 
ATOM     11  C12 UNL     1       8.275   7.518  22.260  0.00  0.00    +0.073 A 
ATOM     12  C13 UNL     1       9.289   8.445  22.000  0.00  0.00    +0.069 A 
ATOM     13  N4  UNL     1      10.381   7.826  21.487  0.00  0.00    -0.170 NA
ATOM     14  N5  UNL     1      10.081   6.541  21.418  0.00  0.00    -0.220 N 
ATOM     15  C18 UNL     1      10.874   5.540  20.970  0.00  0.00    +0.139 A 
BRANCH  12  16
ATOM     16  C14 UNL     1       9.226   9.932  22.241  0.00  0.00    +0.040 C 
ATOM     17  C15 UNL     1       7.964  10.389  22.969  0.00  0.00    +0.010 C 
ATOM     18  C16 UNL     1       7.552  11.193  21.743  0.00  0.00    +0.001 C 
ATOM     19  C17 UNL     1       8.812  10.743  21.015  0.00  0.00    +0.010 C 
ENDBRANCH  12  16
ENDBRANCH   4   7
BRANCH   1  27
ATOM     20  C1  UNL     1      15.984   2.331  20.108  0.00  0.00    +0.045 C 
ATOM     21  C2  UNL     1      15.571   1.294  21.118  0.00  0.00    -0.029 A 
ATOM     22  C3  UNL     1      16.567   0.598  21.824  0.00  0.00    +0.008 A 
ATOM     23  C4  UNL     1      16.221  -0.342  22.797  0.00  0.00    +0.039 A 
ATOM     24  C5  UNL     1      14.878  -0.601  23.074  0.00  0.00    +0.125 A 
ATOM     25  F1  UNL     1      14.545  -1.507  24.026  0.00  0.00    -0.205 F 
ATOM     26  C6  UNL     1      13.877   0.069  22.367  0.00  0.00    +0.062 A 
ATOM     27  C7  UNL     1      14.209   0.995  21.369  0.00  0.00    +0.040 A 
ENDBRANCH   1  27
TORSDOF 3
ENDMDL
