MODEL 1
REMARK VINA RESULT:    -6.699      0.000      0.000
REMARK INTER + INTRA:          -9.170
REMARK INTER:                  -8.265
REMARK INTRA:                  -0.905
REMARK UNBOUND:                -0.905
REMARK  Name = /home/qwerty/github/datacon2025hack/step_04_hit_selection/docking/ligands/lig_583.pdb
REMARK  5 active torsions:
REMARK  status: ('A' for Active; 'I' for Inactive)
REMARK    1  A    between atoms: C1_1  and  C2_2
REMARK    2  A    between atoms: C2_2  and  C3_3
REMARK    3  A    between atoms: C2_2  and  N1_9
REMARK    4  A    between atoms: C11_12  and  N2_13
REMARK    5  A    between atoms: C12_14  and  C13_16
REMARK                            x       y       z     vdW  Elec       q    Type
REMARK                         _______ _______ _______ _____ _____    ______ ____
ROOT
ATOM      1  N1  UNL     1       9.505  11.455  29.386  0.00  0.00    -0.294 NA
ATOM      2  C9  UNL     1       9.100  10.041  29.265  0.00  0.00    +0.087 C 
ATOM      3  C10 UNL     1      10.179   9.179  29.914  0.00  0.00    +0.039 C 
ATOM      4  C11 UNL     1      11.166  10.163  30.522  0.00  0.00    +0.088 C 
ATOM      5  C19 UNL     1      10.936  11.429  29.717  0.00  0.00    +0.107 C 
ENDROOT
BRANCH   4   6
ATOM      6  N2  UNL     1      10.867  10.405  31.939  0.00  0.00    -0.307 N 
ATOM      7  C12 UNL     1      11.893  10.746  32.884  0.00  0.00    +0.245 C 
ATOM      8  O1  UNL     1      13.105  10.718  32.537  0.00  0.00    -0.270 OA
ATOM      9  H15 UNL     1       9.880  10.340  32.277  0.00  0.00    +0.149 HD
BRANCH   7  10
ATOM     10  C13 UNL     1      11.535  11.158  34.258  0.00  0.00    +0.053 A 
ATOM     11  C14 UNL     1      11.472  10.181  35.269  0.00  0.00    +0.055 A 
ATOM     12  C15 UNL     1      11.113  10.530  36.574  0.00  0.00    +0.159 A 
ATOM     13  F1  UNL     1      11.046   9.575  37.534  0.00  0.00    -0.202 F 
ATOM     14  C16 UNL     1      10.816  11.859  36.886  0.00  0.00    +0.159 A 
ATOM     15  F2  UNL     1      10.467  12.198  38.152  0.00  0.00    -0.202 F 
ATOM     16  C17 UNL     1      10.884  12.841  35.895  0.00  0.00    +0.056 A 
ATOM     17  C18 UNL     1      11.241  12.504  34.582  0.00  0.00    +0.028 A 
ATOM     18  I1  UNL     1      11.395  14.098  33.185  0.00  0.00    -0.043 I 
ENDBRANCH   7  10
ENDBRANCH   4   6
BRANCH   1  20
ATOM     19  C1  UNL     1      10.466  12.939  27.626  0.00  0.00    +0.029 C 
ATOM     20  C2  UNL     1       9.204  12.245  28.164  0.00  0.00    +0.084 C 
BRANCH  20  21
ATOM     21  C3  UNL     1       8.158  13.307  28.460  0.00  0.00    -0.031 A 
ATOM     22  C4  UNL     1       7.718  13.519  29.777  0.00  0.00    +0.005 A 
ATOM     23  C5  UNL     1       6.750  14.490  30.051  0.00  0.00    +0.000 A 
ATOM     24  C6  UNL     1       6.200  15.245  29.011  0.00  0.00    +0.000 A 
ATOM     25  C7  UNL     1       6.625  15.037  27.697  0.00  0.00    +0.000 A 
ATOM     26  C8  UNL     1       7.596  14.070  27.419  0.00  0.00    +0.005 A 
ENDBRANCH  20  21
ENDBRANCH   1  20
TORSDOF 4
ENDMDL
MODEL 2
REMARK VINA RESULT:    -6.380      2.184      3.516
REMARK INTER + INTRA:          -8.777
REMARK INTER:                  -8.016
REMARK INTRA:                  -0.761
REMARK UNBOUND:                -0.905
REMARK  Name = /home/qwerty/github/datacon2025hack/step_04_hit_selection/docking/ligands/lig_583.pdb
REMARK  5 active torsions:
REMARK  status: ('A' for Active; 'I' for Inactive)
REMARK    1  A    between atoms: C1_1  and  C2_2
REMARK    2  A    between atoms: C2_2  and  C3_3
REMARK    3  A    between atoms: C2_2  and  N1_9
REMARK    4  A    between atoms: C11_12  and  N2_13
REMARK    5  A    between atoms: C12_14  and  C13_16
REMARK                            x       y       z     vdW  Elec       q    Type
REMARK                         _______ _______ _______ _____ _____    ______ ____
ROOT
ATOM      1  N1  UNL     1      10.087  12.479  28.922  0.00  0.00    -0.294 NA
ATOM      2  C9  UNL     1      11.497  12.278  28.533  0.00  0.00    +0.087 C 
ATOM      3  C10 UNL     1      12.352  13.272  29.314  0.00  0.00    +0.039 C 
ATOM      4  C11 UNL     1      11.389  13.972  30.259  0.00  0.00    +0.088 C 
ATOM      5  C19 UNL     1      10.042  13.788  29.584  0.00  0.00    +0.107 C 
ENDROOT
BRANCH   4   6
ATOM      6  N2  UNL     1      11.383  13.331  31.580  0.00  0.00    -0.307 N 
ATOM      7  C12 UNL     1      11.863  14.005  32.753  0.00  0.00    +0.245 C 
ATOM      8  O1  UNL     1      12.426  15.129  32.650  0.00  0.00    -0.270 OA
ATOM      9  H15 UNL     1      11.011  12.359  31.681  0.00  0.00    +0.149 HD
BRANCH   7  10
ATOM     10  C13 UNL     1      11.677  13.402  34.090  0.00  0.00    +0.053 A 
ATOM     11  C14 UNL     1      10.619  13.852  34.901  0.00  0.00    +0.055 A 
ATOM     12  C15 UNL     1      10.427  13.322  36.179  0.00  0.00    +0.159 A 
ATOM     13  F1  UNL     1       9.409  13.776  36.953  0.00  0.00    -0.202 F 
ATOM     14  C16 UNL     1      11.286  12.332  36.663  0.00  0.00    +0.159 A 
ATOM     15  F2  UNL     1      11.101  11.818  37.904  0.00  0.00    -0.202 F 
ATOM     16  C17 UNL     1      12.335  11.869  35.865  0.00  0.00    +0.056 A 
ATOM     17  C18 UNL     1      12.540  12.393  34.582  0.00  0.00    +0.028 A 
ATOM     18  I1  UNL     1      14.112  11.545  33.432  0.00  0.00    -0.043 I 
ENDBRANCH   7  10
ENDBRANCH   4   6
BRANCH   1  20
ATOM     19  C1  UNL     1       8.147  13.538  27.765  0.00  0.00    +0.029 C 
ATOM     20  C2  UNL     1       9.154  12.377  27.770  0.00  0.00    +0.084 C 
BRANCH  20  21
ATOM     21  C3  UNL     1       8.382  11.069  27.823  0.00  0.00    -0.031 A 
ATOM     22  C4  UNL     1       7.792  10.643  29.025  0.00  0.00    +0.005 A 
ATOM     23  C5  UNL     1       7.088   9.437  29.079  0.00  0.00    +0.000 A 
ATOM     24  C6  UNL     1       6.981   8.636  27.939  0.00  0.00    +0.000 A 
ATOM     25  C7  UNL     1       7.571   9.045  26.740  0.00  0.00    +0.000 A 
ATOM     26  C8  UNL     1       8.272  10.253  26.681  0.00  0.00    +0.005 A 
ENDBRANCH  20  21
ENDBRANCH   1  20
TORSDOF 4
ENDMDL
MODEL 3
REMARK VINA RESULT:    -6.136     13.543     15.180
REMARK INTER + INTRA:          -8.476
REMARK INTER:                  -7.765
REMARK INTRA:                  -0.712
REMARK UNBOUND:                -0.905
REMARK  Name = /home/qwerty/github/datacon2025hack/step_04_hit_selection/docking/ligands/lig_583.pdb
REMARK  5 active torsions:
REMARK  status: ('A' for Active; 'I' for Inactive)
REMARK    1  A    between atoms: C1_1  and  C2_2
REMARK    2  A    between atoms: C2_2  and  C3_3
REMARK    3  A    between atoms: C2_2  and  N1_9
REMARK    4  A    between atoms: C11_12  and  N2_13
REMARK    5  A    between atoms: C12_14  and  C13_16
REMARK                            x       y       z     vdW  Elec       q    Type
REMARK                         _______ _______ _______ _____ _____    ______ ____
ROOT
ATOM      1  N1  UNL     1      21.915  13.930  20.675  0.00  0.00    -0.294 NA
ATOM      2  C9  UNL     1      23.348  13.602  20.543  0.00  0.00    +0.087 C 
ATOM      3  C10 UNL     1      24.144  14.615  21.361  0.00  0.00    +0.039 C 
ATOM      4  C11 UNL     1      23.103  15.467  22.068  0.00  0.00    +0.088 C 
ATOM      5  C19 UNL     1      21.869  15.300  21.199  0.00  0.00    +0.107 C 
ENDROOT
BRANCH   4   6
ATOM      6  N2  UNL     1      22.838  14.966  23.421  0.00  0.00    -0.307 N 
ATOM      7  C12 UNL     1      23.464  15.540  24.580  0.00  0.00    +0.245 C 
ATOM      8  O1  UNL     1      24.364  16.413  24.443  0.00  0.00    -0.270 OA
ATOM      9  H15 UNL     1      22.167  14.175  23.558  0.00  0.00    +0.149 HD
BRANCH   7  10
ATOM     10  C13 UNL     1      23.040  15.132  25.936  0.00  0.00    +0.053 A 
ATOM     11  C14 UNL     1      23.819  14.197  26.643  0.00  0.00    +0.055 A 
ATOM     12  C15 UNL     1      23.436  13.770  27.917  0.00  0.00    +0.159 A 
ATOM     13  F1  UNL     1      24.191  12.859  28.580  0.00  0.00    -0.202 F 
ATOM     14  C16 UNL     1      22.273  14.274  28.503  0.00  0.00    +0.159 A 
ATOM     15  F2  UNL     1      21.899  13.860  29.740  0.00  0.00    -0.202 F 
ATOM     16  C17 UNL     1      21.494  15.210  27.817  0.00  0.00    +0.056 A 
ATOM     17  C18 UNL     1      21.866  15.646  26.538  0.00  0.00    +0.028 A 
ATOM     18  I1  UNL     1      20.652  17.136  25.635  0.00  0.00    -0.043 I 
ENDBRANCH   7  10
ENDBRANCH   4   6
BRANCH   1  20
ATOM     19  C1  UNL     1      20.257  14.976  19.132  0.00  0.00    +0.029 C 
ATOM     20  C2  UNL     1      21.170  13.769  19.399  0.00  0.00    +0.084 C 
BRANCH  20  21
ATOM     21  C3  UNL     1      20.313  12.515  19.436  0.00  0.00    -0.031 A 
ATOM     22  C4  UNL     1      20.903  11.249  19.280  0.00  0.00    +0.005 A 
ATOM     23  C5  UNL     1      20.116  10.094  19.305  0.00  0.00    +0.000 A 
ATOM     24  C6  UNL     1      18.732  10.193  19.469  0.00  0.00    +0.000 A 
ATOM     25  C7  UNL     1      18.133  11.447  19.617  0.00  0.00    +0.000 A 
ATOM     26  C8  UNL     1      18.917  12.604  19.596  0.00  0.00    +0.005 A 
ENDBRANCH  20  21
ENDBRANCH   1  20
TORSDOF 4
ENDMDL
MODEL 4
REMARK VINA RESULT:    -6.058      9.275     12.325
REMARK INTER + INTRA:          -8.379
REMARK INTER:                  -7.600
REMARK INTRA:                  -0.779
REMARK UNBOUND:                -0.905
REMARK  Name = /home/qwerty/github/datacon2025hack/step_04_hit_selection/docking/ligands/lig_583.pdb
REMARK  5 active torsions:
REMARK  status: ('A' for Active; 'I' for Inactive)
REMARK    1  A    between atoms: C1_1  and  C2_2
REMARK    2  A    between atoms: C2_2  and  C3_3
REMARK    3  A    between atoms: C2_2  and  N1_9
REMARK    4  A    between atoms: C11_12  and  N2_13
REMARK    5  A    between atoms: C12_14  and  C13_16
REMARK                            x       y       z     vdW  Elec       q    Type
REMARK                         _______ _______ _______ _____ _____    ______ ____
ROOT
ATOM      1  N1  UNL     1      21.019   7.374  35.216  0.00  0.00    -0.294 NA
ATOM      2  C9  UNL     1      20.016   6.293  35.179  0.00  0.00    +0.087 C 
ATOM      3  C10 UNL     1      19.075   6.476  36.366  0.00  0.00    +0.039 C 
ATOM      4  C11 UNL     1      19.504   7.779  37.020  0.00  0.00    +0.088 C 
ATOM      5  C19 UNL     1      20.945   7.937  36.570  0.00  0.00    +0.107 C 
ENDROOT
BRANCH   4   6
ATOM      6  N2  UNL     1      18.699   8.906  36.535  0.00  0.00    -0.307 N 
ATOM      7  C12 UNL     1      18.238   9.944  37.414  0.00  0.00    +0.245 C 
ATOM      8  O1  UNL     1      18.410   9.840  38.659  0.00  0.00    -0.270 OA
ATOM      9  H15 UNL     1      18.457   8.969  35.520  0.00  0.00    +0.149 HD
BRANCH   7  10
ATOM     10  C13 UNL     1      17.586  11.152  36.865  0.00  0.00    +0.053 A 
ATOM     11  C14 UNL     1      16.275  11.464  37.269  0.00  0.00    +0.055 A 
ATOM     12  C15 UNL     1      15.618  12.584  36.752  0.00  0.00    +0.159 A 
ATOM     13  F1  UNL     1      14.350  12.864  37.144  0.00  0.00    -0.202 F 
ATOM     14  C16 UNL     1      16.263  13.409  35.828  0.00  0.00    +0.159 A 
ATOM     15  F2  UNL     1      15.626  14.495  35.325  0.00  0.00    -0.202 F 
ATOM     16  C17 UNL     1      17.568  13.117  35.423  0.00  0.00    +0.056 A 
ATOM     17  C18 UNL     1      18.238  11.996  35.933  0.00  0.00    +0.028 A 
ATOM     18  I1  UNL     1      20.248  11.708  35.311  0.00  0.00    -0.043 I 
ENDBRANCH   7  10
ENDBRANCH   4   6
BRANCH   1  20
ATOM     19  C1  UNL     1      23.290   6.826  36.091  0.00  0.00    +0.029 C 
ATOM     20  C2  UNL     1      22.382   6.906  34.853  0.00  0.00    +0.084 C 
BRANCH  20  21
ATOM     21  C3  UNL     1      23.020   7.849  33.847  0.00  0.00    -0.031 A 
ATOM     22  C4  UNL     1      24.400   7.788  33.595  0.00  0.00    +0.005 A 
ATOM     23  C5  UNL     1      24.991   8.659  32.676  0.00  0.00    +0.000 A 
ATOM     24  C6  UNL     1      24.213   9.611  32.012  0.00  0.00    +0.000 A 
ATOM     25  C7  UNL     1      22.840   9.687  32.260  0.00  0.00    +0.000 A 
ATOM     26  C8  UNL     1      22.245   8.814  33.176  0.00  0.00    +0.005 A 
ENDBRANCH  20  21
ENDBRANCH   1  20
TORSDOF 4
ENDMDL
MODEL 5
REMARK VINA RESULT:    -5.952     10.751     13.071
REMARK INTER + INTRA:          -8.249
REMARK INTER:                  -7.403
REMARK INTRA:                  -0.846
REMARK UNBOUND:                -0.905
REMARK  Name = /home/qwerty/github/datacon2025hack/step_04_hit_selection/docking/ligands/lig_583.pdb
REMARK  5 active torsions:
REMARK  status: ('A' for Active; 'I' for Inactive)
REMARK    1  A    between atoms: C1_1  and  C2_2
REMARK    2  A    between atoms: C2_2  and  C3_3
REMARK    3  A    between atoms: C2_2  and  N1_9
REMARK    4  A    between atoms: C11_12  and  N2_13
REMARK    5  A    between atoms: C12_14  and  C13_16
REMARK                            x       y       z     vdW  Elec       q    Type
REMARK                         _______ _______ _______ _____ _____    ______ ____
ROOT
ATOM      1  N1  UNL     1       9.611   7.871  23.379  0.00  0.00    -0.294 NA
ATOM      2  C9  UNL     1       9.298   7.463  24.763  0.00  0.00    +0.087 C 
ATOM      3  C10 UNL     1       8.587   6.113  24.711  0.00  0.00    +0.039 C 
ATOM      4  C11 UNL     1       8.612   5.703  23.248  0.00  0.00    +0.088 C 
ATOM      5  C19 UNL     1       8.776   7.023  22.518  0.00  0.00    +0.107 C 
ENDROOT
BRANCH   4   6
ATOM      6  N2  UNL     1       9.754   4.824  22.964  0.00  0.00    -0.307 N 
ATOM      7  C12 UNL     1       9.853   4.080  21.740  0.00  0.00    +0.245 C 
ATOM      8  O1  UNL     1       8.886   4.066  20.930  0.00  0.00    -0.270 OA
ATOM      9  H15 UNL     1      10.527   4.740  23.662  0.00  0.00    +0.149 HD
BRANCH   7  10
ATOM     10  C13 UNL     1      11.095   3.350  21.409  0.00  0.00    +0.053 A 
ATOM     11  C14 UNL     1      12.039   3.958  20.562  0.00  0.00    +0.055 A 
ATOM     12  C15 UNL     1      13.213   3.288  20.208  0.00  0.00    +0.159 A 
ATOM     13  F1  UNL     1      14.108   3.884  19.381  0.00  0.00    -0.202 F 
ATOM     14  C16 UNL     1      13.461   2.004  20.697  0.00  0.00    +0.159 A 
ATOM     15  F2  UNL     1      14.600   1.352  20.353  0.00  0.00    -0.202 F 
ATOM     16  C17 UNL     1      12.536   1.390  21.546  0.00  0.00    +0.056 A 
ATOM     17  C18 UNL     1      11.354   2.051  21.908  0.00  0.00    +0.028 A 
ATOM     18  I1  UNL     1      10.071   1.052  23.275  0.00  0.00    -0.043 I 
ENDBRANCH   7  10
ENDBRANCH   4   6
BRANCH   1  20
ATOM     19  C1  UNL     1       7.938   9.622  22.782  0.00  0.00    +0.029 C 
ATOM     20  C2  UNL     1       9.401   9.323  23.147  0.00  0.00    +0.084 C 
BRANCH  20  21
ATOM     21  C3  UNL     1      10.290   9.817  22.018  0.00  0.00    -0.031 A 
ATOM     22  C4  UNL     1      11.660  10.035  22.240  0.00  0.00    +0.005 A 
ATOM     23  C5  UNL     1      12.479  10.497  21.206  0.00  0.00    +0.000 A 
ATOM     24  C6  UNL     1      11.935  10.763  19.946  0.00  0.00    +0.000 A 
ATOM     25  C7  UNL     1      10.573  10.558  19.717  0.00  0.00    +0.000 A 
ATOM     26  C8  UNL     1       9.751  10.092  20.747  0.00  0.00    +0.005 A 
ENDBRANCH  20  21
ENDBRANCH   1  20
TORSDOF 4
ENDMDL
MODEL 6
REMARK VINA RESULT:    -5.946     14.495     16.479
REMARK INTER + INTRA:          -8.241
REMARK INTER:                  -7.431
REMARK INTRA:                  -0.810
REMARK UNBOUND:                -0.905
REMARK  Name = /home/qwerty/github/datacon2025hack/step_04_hit_selection/docking/ligands/lig_583.pdb
REMARK  5 active torsions:
REMARK  status: ('A' for Active; 'I' for Inactive)
REMARK    1  A    between atoms: C1_1  and  C2_2
REMARK    2  A    between atoms: C2_2  and  C3_3
REMARK    3  A    between atoms: C2_2  and  N1_9
REMARK    4  A    between atoms: C11_12  and  N2_13
REMARK    5  A    between atoms: C12_14  and  C13_16
REMARK                            x       y       z     vdW  Elec       q    Type
REMARK                         _______ _______ _______ _____ _____    ______ ____
ROOT
ATOM      1  N1  UNL     1      21.206   1.958  28.305  0.00  0.00    -0.294 NA
ATOM      2  C9  UNL     1      21.305   3.382  27.929  0.00  0.00    +0.087 C 
ATOM      3  C10 UNL     1      21.108   3.490  26.420  0.00  0.00    +0.039 C 
ATOM      4  C11 UNL     1      20.769   2.082  25.957  0.00  0.00    +0.088 C 
ATOM      5  C19 UNL     1      21.353   1.207  27.052  0.00  0.00    +0.107 C 
ENDROOT
BRANCH   4   6
ATOM      6  N2  UNL     1      19.317   1.887  25.876  0.00  0.00    -0.307 N 
ATOM      7  C12 UNL     1      18.732   0.887  25.026  0.00  0.00    +0.245 C 
ATOM      8  O1  UNL     1      19.457   0.236  24.226  0.00  0.00    -0.270 OA
ATOM      9  H15 UNL     1      18.682   2.480  26.457  0.00  0.00    +0.149 HD
BRANCH   7  10
ATOM     10  C13 UNL     1      17.284   0.597  25.104  0.00  0.00    +0.053 A 
ATOM     11  C14 UNL     1      16.816  -0.280  26.099  0.00  0.00    +0.055 A 
ATOM     12  C15 UNL     1      15.458  -0.597  26.187  0.00  0.00    +0.159 A 
ATOM     13  F1  UNL     1      15.024  -1.453  27.146  0.00  0.00    -0.202 F 
ATOM     14  C16 UNL     1      14.549  -0.040  25.284  0.00  0.00    +0.159 A 
ATOM     15  F2  UNL     1      13.231  -0.348  25.368  0.00  0.00    -0.202 F 
ATOM     16  C17 UNL     1      14.999   0.840  24.296  0.00  0.00    +0.056 A 
ATOM     17  C18 UNL     1      16.358   1.165  24.196  0.00  0.00    +0.028 A 
ATOM     18  I1  UNL     1      16.905   2.581  22.710  0.00  0.00    -0.043 I 
ENDBRANCH   7  10
ENDBRANCH   4   6
BRANCH   1  20
ATOM     19  C1  UNL     1      22.803   0.186  29.034  0.00  0.00    +0.029 C 
ATOM     20  C2  UNL     1      22.198   1.566  29.338  0.00  0.00    +0.084 C 
BRANCH  20  21
ATOM     21  C3  UNL     1      21.548   1.516  30.711  0.00  0.00    -0.031 A 
ATOM     22  C4  UNL     1      20.644   0.488  31.028  0.00  0.00    +0.005 A 
ATOM     23  C5  UNL     1      20.037   0.444  32.287  0.00  0.00    +0.000 A 
ATOM     24  C6  UNL     1      20.314   1.434  33.234  0.00  0.00    +0.000 A 
ATOM     25  C7  UNL     1      21.206   2.465  32.926  0.00  0.00    +0.000 A 
ATOM     26  C8  UNL     1      21.817   2.510  31.670  0.00  0.00    +0.005 A 
ENDBRANCH  20  21
ENDBRANCH   1  20
TORSDOF 4
ENDMDL
MODEL 7
REMARK VINA RESULT:    -5.941     13.105     15.372
REMARK INTER + INTRA:          -8.235
REMARK INTER:                  -7.383
REMARK INTRA:                  -0.852
REMARK UNBOUND:                -0.905
REMARK  Name = /home/qwerty/github/datacon2025hack/step_04_hit_selection/docking/ligands/lig_583.pdb
REMARK  5 active torsions:
REMARK  status: ('A' for Active; 'I' for Inactive)
REMARK    1  A    between atoms: C1_1  and  C2_2
REMARK    2  A    between atoms: C2_2  and  C3_3
REMARK    3  A    between atoms: C2_2  and  N1_9
REMARK    4  A    between atoms: C11_12  and  N2_13
REMARK    5  A    between atoms: C12_14  and  C13_16
REMARK                            x       y       z     vdW  Elec       q    Type
REMARK                         _______ _______ _______ _____ _____    ______ ____
ROOT
ATOM      1  N1  UNL     1      21.146   6.235  34.068  0.00  0.00    -0.294 NA
ATOM      2  C9  UNL     1      20.167   5.581  34.958  0.00  0.00    +0.087 C 
ATOM      3  C10 UNL     1      19.062   4.984  34.091  0.00  0.00    +0.039 C 
ATOM      4  C11 UNL     1      19.508   5.216  32.657  0.00  0.00    +0.088 C 
ATOM      5  C19 UNL     1      20.467   6.387  32.775  0.00  0.00    +0.107 C 
ENDROOT
BRANCH   4   6
ATOM      6  N2  UNL     1      20.209   4.042  32.123  0.00  0.00    -0.307 N 
ATOM      7  C12 UNL     1      19.820   3.422  30.888  0.00  0.00    +0.245 C 
ATOM      8  O1  UNL     1      18.774   3.800  30.293  0.00  0.00    -0.270 OA
ATOM      9  H15 UNL     1      21.023   3.645  32.645  0.00  0.00    +0.149 HD
BRANCH   7  10
ATOM     10  C13 UNL     1      20.656   2.358  30.291  0.00  0.00    +0.053 A 
ATOM     11  C14 UNL     1      21.610   2.705  29.317  0.00  0.00    +0.055 A 
ATOM     12  C15 UNL     1      22.401   1.723  28.713  0.00  0.00    +0.159 A 
ATOM     13  F1  UNL     1      23.308   2.074  27.767  0.00  0.00    -0.202 F 
ATOM     14  C16 UNL     1      22.251   0.383  29.078  0.00  0.00    +0.159 A 
ATOM     15  F2  UNL     1      23.017  -0.570  28.492  0.00  0.00    -0.202 F 
ATOM     16  C17 UNL     1      21.314   0.025  30.050  0.00  0.00    +0.056 A 
ATOM     17  C18 UNL     1      20.514   0.999  30.662  0.00  0.00    +0.028 A 
ATOM     18  I1  UNL     1      19.191   0.342  32.188  0.00  0.00    -0.043 I 
ENDBRANCH   7  10
ENDBRANCH   4   6
BRANCH   1  20
ATOM     19  C1  UNL     1      20.552   8.599  34.603  0.00  0.00    +0.029 C 
ATOM     20  C2  UNL     1      21.649   7.522  34.616  0.00  0.00    +0.084 C 
BRANCH  20  21
ATOM     21  C3  UNL     1      22.828   8.024  33.800  0.00  0.00    -0.031 A 
ATOM     22  C4  UNL     1      24.041   7.315  33.797  0.00  0.00    +0.005 A 
ATOM     23  C5  UNL     1      25.130   7.780  33.054  0.00  0.00    +0.000 A 
ATOM     24  C6  UNL     1      25.024   8.964  32.320  0.00  0.00    +0.000 A 
ATOM     25  C7  UNL     1      23.825   9.682  32.322  0.00  0.00    +0.000 A 
ATOM     26  C8  UNL     1      22.733   9.219  33.061  0.00  0.00    +0.005 A 
ENDBRANCH  20  21
ENDBRANCH   1  20
TORSDOF 4
ENDMDL
MODEL 8
REMARK VINA RESULT:    -5.923      6.881      9.190
REMARK INTER + INTRA:          -8.212
REMARK INTER:                  -7.312
REMARK INTRA:                  -0.900
REMARK UNBOUND:                -0.905
REMARK  Name = /home/qwerty/github/datacon2025hack/step_04_hit_selection/docking/ligands/lig_583.pdb
REMARK  5 active torsions:
REMARK  status: ('A' for Active; 'I' for Inactive)
REMARK    1  A    between atoms: C1_1  and  C2_2
REMARK    2  A    between atoms: C2_2  and  C3_3
REMARK    3  A    between atoms: C2_2  and  N1_9
REMARK    4  A    between atoms: C11_12  and  N2_13
REMARK    5  A    between atoms: C12_14  and  C13_16
REMARK                            x       y       z     vdW  Elec       q    Type
REMARK                         _______ _______ _______ _____ _____    ______ ____
ROOT
ATOM      1  N1  UNL     1      15.426  12.887  34.642  0.00  0.00    -0.294 NA
ATOM      2  C9  UNL     1      15.764  12.954  33.207  0.00  0.00    +0.087 C 
ATOM      3  C10 UNL     1      17.259  13.235  33.083  0.00  0.00    +0.039 C 
ATOM      4  C11 UNL     1      17.791  13.208  34.507  0.00  0.00    +0.088 C 
ATOM      5  C19 UNL     1      16.560  13.501  35.345  0.00  0.00    +0.107 C 
ENDROOT
BRANCH   4   6
ATOM      6  N2  UNL     1      18.328  11.884  34.846  0.00  0.00    -0.307 N 
ATOM      7  C12 UNL     1      19.323  11.707  35.867  0.00  0.00    +0.245 C 
ATOM      8  O1  UNL     1      19.855  12.713  36.411  0.00  0.00    -0.270 OA
ATOM      9  H15 UNL     1      17.975  11.039  34.342  0.00  0.00    +0.149 HD
BRANCH   7  10
ATOM     10  C13 UNL     1      19.708  10.349  36.305  0.00  0.00    +0.053 A 
ATOM     11  C14 UNL     1      20.980   9.855  35.960  0.00  0.00    +0.055 A 
ATOM     12  C15 UNL     1      21.369   8.566  36.337  0.00  0.00    +0.159 A 
ATOM     13  F1  UNL     1      22.594   8.101  35.986  0.00  0.00    -0.202 F 
ATOM     14  C16 UNL     1      20.495   7.756  37.065  0.00  0.00    +0.159 A 
ATOM     15  F2  UNL     1      20.871   6.505  37.430  0.00  0.00    -0.202 F 
ATOM     16  C17 UNL     1      19.232   8.236  37.422  0.00  0.00    +0.056 A 
ATOM     17  C18 UNL     1      18.829   9.526  37.050  0.00  0.00    +0.028 A 
ATOM     18  I1  UNL     1      16.923  10.174  37.728  0.00  0.00    -0.043 I 
ENDBRANCH   7  10
ENDBRANCH   4   6
BRANCH   1  20
ATOM     19  C1  UNL     1      14.288  14.604  36.050  0.00  0.00    +0.029 C 
ATOM     20  C2  UNL     1      14.127  13.536  34.956  0.00  0.00    +0.084 C 
BRANCH  20  21
ATOM     21  C3  UNL     1      13.118  12.505  35.434  0.00  0.00    -0.031 A 
ATOM     22  C4  UNL     1      13.156  12.038  36.759  0.00  0.00    +0.005 A 
ATOM     23  C5  UNL     1      12.234  11.084  37.199  0.00  0.00    +0.000 A 
ATOM     24  C6  UNL     1      11.278  10.574  36.317  0.00  0.00    +0.000 A 
ATOM     25  C7  UNL     1      11.235  11.025  34.995  0.00  0.00    +0.000 A 
ATOM     26  C8  UNL     1      12.153  11.982  34.552  0.00  0.00    +0.005 A 
ENDBRANCH  20  21
ENDBRANCH   1  20
TORSDOF 4
ENDMDL
MODEL 9
REMARK VINA RESULT:    -5.840      6.633      9.352
REMARK INTER + INTRA:          -8.110
REMARK INTER:                  -7.322
REMARK INTRA:                  -0.789
REMARK UNBOUND:                -0.905
REMARK  Name = /home/qwerty/github/datacon2025hack/step_04_hit_selection/docking/ligands/lig_583.pdb
REMARK  5 active torsions:
REMARK  status: ('A' for Active; 'I' for Inactive)
REMARK    1  A    between atoms: C1_1  and  C2_2
REMARK    2  A    between atoms: C2_2  and  C3_3
REMARK    3  A    between atoms: C2_2  and  N1_9
REMARK    4  A    between atoms: C11_12  and  N2_13
REMARK    5  A    between atoms: C12_14  and  C13_16
REMARK                            x       y       z     vdW  Elec       q    Type
REMARK                         _______ _______ _______ _____ _____    ______ ____
ROOT
ATOM      1  N1  UNL     1       8.607   8.599  28.457  0.00  0.00    -0.294 NA
ATOM      2  C9  UNL     1       8.800   7.139  28.548  0.00  0.00    +0.087 C 
ATOM      3  C10 UNL     1       8.068   6.488  27.378  0.00  0.00    +0.039 C 
ATOM      4  C11 UNL     1       7.547   7.644  26.539  0.00  0.00    +0.088 C 
ATOM      5  C19 UNL     1       7.486   8.793  27.529  0.00  0.00    +0.107 C 
ENDROOT
BRANCH   4   6
ATOM      6  N2  UNL     1       8.474   7.966  25.448  0.00  0.00    -0.307 N 
ATOM      7  C12 UNL     1       8.255   9.082  24.570  0.00  0.00    +0.245 C 
ATOM      8  O1  UNL     1       7.181   9.739  24.641  0.00  0.00    -0.270 OA
ATOM      9  H15 UNL     1       9.327   7.379  25.304  0.00  0.00    +0.149 HD
BRANCH   7  10
ATOM     10  C13 UNL     1       9.296   9.484  23.601  0.00  0.00    +0.053 A 
ATOM     11  C14 UNL     1       9.087   9.236  22.232  0.00  0.00    +0.055 A 
ATOM     12  C15 UNL     1      10.060   9.581  21.290  0.00  0.00    +0.159 A 
ATOM     13  F1  UNL     1       9.847   9.324  19.975  0.00  0.00    -0.202 F 
ATOM     14  C16 UNL     1      11.252  10.180  21.702  0.00  0.00    +0.159 A 
ATOM     15  F2  UNL     1      12.197  10.514  20.788  0.00  0.00    -0.202 F 
ATOM     16  C17 UNL     1      11.470  10.441  23.057  0.00  0.00    +0.056 A 
ATOM     17  C18 UNL     1      10.503  10.099  24.012  0.00  0.00    +0.028 A 
ATOM     18  I1  UNL     1      10.912  10.627  26.029  0.00  0.00    -0.043 I 
ENDBRANCH   7  10
ENDBRANCH   4   6
BRANCH   1  20
ATOM     19  C1  UNL     1       6.912   9.115  30.213  0.00  0.00    +0.029 C 
ATOM     20  C2  UNL     1       8.383   9.233  29.782  0.00  0.00    +0.084 C 
BRANCH  20  21
ATOM     21  C3  UNL     1       8.756  10.705  29.739  0.00  0.00    -0.031 A 
ATOM     22  C4  UNL     1      10.043  11.121  30.118  0.00  0.00    +0.005 A 
ATOM     23  C5  UNL     1      10.387  12.475  30.088  0.00  0.00    +0.000 A 
ATOM     24  C6  UNL     1       9.444  13.429  29.695  0.00  0.00    +0.000 A 
ATOM     25  C7  UNL     1       8.158  13.028  29.324  0.00  0.00    +0.000 A 
ATOM     26  C8  UNL     1       7.812  11.674  29.349  0.00  0.00    +0.005 A 
ENDBRANCH  20  21
ENDBRANCH   1  20
TORSDOF 4
ENDMDL
