MODEL 1
REMARK VINA RESULT:    -6.570      0.000      0.000
REMARK INTER + INTRA:          -9.338
REMARK INTER:                  -8.490
REMARK INTRA:                  -0.848
REMARK UNBOUND:                -0.848
REMARK  Name = /home/qwerty/github/datacon2025hack/step_04_hit_selection/docking/ligands/lig_266.pdb
REMARK  7 active torsions:
REMARK  status: ('A' for Active; 'I' for Inactive)
REMARK    1  A    between atoms: C1_1  and  C2_2
REMARK    2  A    between atoms: C6_6  and  C7_7
REMARK    3  A    between atoms: C8_8  and  C9_9
REMARK    4  A    between atoms: C13_15  and  C14_16
REMARK    5  A    between atoms: C14_16  and  N2_17
REMARK    6  A    between atoms: C15_18  and  C16_20
REMARK    7  A    between atoms: C18_22  and  C19_23
REMARK                            x       y       z     vdW  Elec       q    Type
REMARK                         _______ _______ _______ _____ _____    ______ ____
ROOT
ATOM      1  C9  UNL     1      15.722   0.806  23.856  0.00  0.00    +0.247 C 
ATOM      2  O1  UNL     1      16.212   1.668  24.636  0.00  0.00    -0.270 OA
ATOM      3  N1  UNL     1      15.629   1.092  22.448  0.00  0.00    -0.293 N 
ATOM      4  C10 UNL     1      16.522   2.033  21.796  0.00  0.00    +0.108 C 
ATOM      5  C11 UNL     1      16.407   1.745  20.307  0.00  0.00    +0.021 C 
ATOM      6  C12 UNL     1      15.099   0.980  20.128  0.00  0.00    +0.025 C 
ATOM      7  C13 UNL     1      14.754   0.399  21.507  0.00  0.00    +0.093 C 
ENDROOT
BRANCH   1  15
ATOM      8  C1  UNL     1      13.162   0.598  25.371  0.00  0.00    +0.044 C 
ATOM      9  C2  UNL     1      14.076  -0.583  25.160  0.00  0.00    -0.038 A 
ATOM     10  C3  UNL     1      13.712  -1.810  25.735  0.00  0.00    +0.004 A 
ATOM     11  C4  UNL     1      14.486  -2.949  25.525  0.00  0.00    +0.001 A 
ATOM     12  C5  UNL     1      15.634  -2.882  24.739  0.00  0.00    +0.004 A 
ATOM     13  C6  UNL     1      16.047  -1.663  24.179  0.00  0.00    -0.038 A 
ATOM     14  C7  UNL     1      17.280  -1.641  23.313  0.00  0.00    +0.044 C 
ATOM     15  C8  UNL     1      15.278  -0.493  24.410  0.00  0.00    +0.043 A 
ENDBRANCH   1  15
BRANCH   7  16
ATOM     16  C14 UNL     1      13.271   0.614  21.861  0.00  0.00    +0.126 C 
BRANCH  16  17
ATOM     17  N2  UNL     1      12.686   1.657  21.021  0.00  0.00    -0.313 N 
ATOM     18  C15 UNL     1      12.593   3.022  21.448  0.00  0.00    +0.217 C 
ATOM     19  O2  UNL     1      13.167   3.402  22.505  0.00  0.00    -0.275 OA
ATOM     20  H19 UNL     1      12.332   1.397  20.073  0.00  0.00    +0.149 HD
BRANCH  18  21
ATOM     21  C16 UNL     1      11.853   4.017  20.610  0.00  0.00    +0.084 C 
ATOM     22  C17 UNL     1      12.675   4.628  19.477  0.00  0.00    +0.023 C 
ATOM     23  C18 UNL     1      12.380   5.445  20.729  0.00  0.00    +0.050 C 
BRANCH  23  24
ATOM     24  C19 UNL     1      11.363   6.545  20.565  0.00  0.00    +0.039 A 
ATOM     25  C20 UNL     1       9.989   6.478  20.710  0.00  0.00    +0.133 A 
ATOM     26  N3  UNL     1       9.458   7.694  20.477  0.00  0.00    -0.244 NA
ATOM     27  C21 UNL     1      10.522   8.475  20.194  0.00  0.00    +0.196 A 
ATOM     28  N4  UNL     1      11.689   7.806  20.241  0.00  0.00    -0.348 N 
ATOM     29  H26 UNL     1      12.643   8.189  20.061  0.00  0.00    +0.166 HD
ENDBRANCH  23  24
ENDBRANCH  18  21
ENDBRANCH  16  17
ENDBRANCH   7  16
TORSDOF 5
ENDMDL
MODEL 2
REMARK VINA RESULT:    -6.522     12.340     15.226
REMARK INTER + INTRA:          -9.275
REMARK INTER:                  -7.896
REMARK INTRA:                  -1.379
REMARK UNBOUND:                -0.848
REMARK  Name = /home/qwerty/github/datacon2025hack/step_04_hit_selection/docking/ligands/lig_266.pdb
REMARK  7 active torsions:
REMARK  status: ('A' for Active; 'I' for Inactive)
REMARK    1  A    between atoms: C1_1  and  C2_2
REMARK    2  A    between atoms: C6_6  and  C7_7
REMARK    3  A    between atoms: C8_8  and  C9_9
REMARK    4  A    between atoms: C13_15  and  C14_16
REMARK    5  A    between atoms: C14_16  and  N2_17
REMARK    6  A    between atoms: C15_18  and  C16_20
REMARK    7  A    between atoms: C18_22  and  C19_23
REMARK                            x       y       z     vdW  Elec       q    Type
REMARK                         _______ _______ _______ _____ _____    ______ ____
ROOT
ATOM      1  C9  UNL     1      20.969  15.311  22.582  0.00  0.00    +0.247 C 
ATOM      2  O1  UNL     1      20.228  16.332  22.563  0.00  0.00    -0.270 OA
ATOM      3  N1  UNL     1      22.318  15.420  23.070  0.00  0.00    -0.293 N 
ATOM      4  C10 UNL     1      22.710  16.446  24.019  0.00  0.00    +0.108 C 
ATOM      5  C11 UNL     1      24.037  15.984  24.600  0.00  0.00    +0.021 C 
ATOM      6  C12 UNL     1      24.590  14.957  23.617  0.00  0.00    +0.025 C 
ATOM      7  C13 UNL     1      23.391  14.468  22.792  0.00  0.00    +0.093 C 
ENDROOT
BRANCH   1  15
ATOM      8  C1  UNL     1      20.362  13.144  24.539  0.00  0.00    +0.044 C 
ATOM      9  C2  UNL     1      20.160  12.974  23.053  0.00  0.00    -0.038 A 
ATOM     10  C3  UNL     1      19.704  11.732  22.588  0.00  0.00    +0.004 A 
ATOM     11  C4  UNL     1      19.442  11.534  21.234  0.00  0.00    +0.001 A 
ATOM     12  C5  UNL     1      19.633  12.571  20.324  0.00  0.00    +0.004 A 
ATOM     13  C6  UNL     1      20.123  13.815  20.750  0.00  0.00    -0.038 A 
ATOM     14  C7  UNL     1      20.288  14.918  19.737  0.00  0.00    +0.044 C 
ATOM     15  C8  UNL     1      20.416  14.016  22.124  0.00  0.00    +0.043 A 
ENDBRANCH   1  15
BRANCH   7  16
ATOM     16  C14 UNL     1      23.716  14.418  21.288  0.00  0.00    +0.126 C 
BRANCH  16  17
ATOM     17  N2  UNL     1      23.926  13.039  20.851  0.00  0.00    -0.313 N 
ATOM     18  C15 UNL     1      23.570  12.588  19.538  0.00  0.00    +0.217 C 
ATOM     19  O2  UNL     1      23.211  13.413  18.655  0.00  0.00    -0.275 OA
ATOM     20  H19 UNL     1      24.361  12.363  21.520  0.00  0.00    +0.149 HD
BRANCH  18  21
ATOM     21  C16 UNL     1      23.671  11.135  19.195  0.00  0.00    +0.084 C 
ATOM     22  C17 UNL     1      22.334  10.400  19.146  0.00  0.00    +0.023 C 
ATOM     23  C18 UNL     1      23.270  10.197  20.331  0.00  0.00    +0.050 C 
BRANCH  23  24
ATOM     24  C19 UNL     1      23.981   8.870  20.380  0.00  0.00    +0.039 A 
ATOM     25  C20 UNL     1      23.467   7.607  20.149  0.00  0.00    +0.133 A 
ATOM     26  N3  UNL     1      24.449   6.695  20.295  0.00  0.00    -0.244 NA
ATOM     27  C21 UNL     1      25.539   7.425  20.614  0.00  0.00    +0.196 A 
ATOM     28  N4  UNL     1      25.285   8.745  20.672  0.00  0.00    -0.348 N 
ATOM     29  H26 UNL     1      25.962   9.507  20.897  0.00  0.00    +0.166 HD
ENDBRANCH  23  24
ENDBRANCH  18  21
ENDBRANCH  16  17
ENDBRANCH   7  16
TORSDOF 5
ENDMDL
MODEL 3
REMARK VINA RESULT:    -6.389     15.140     16.693
REMARK INTER + INTRA:          -9.104
REMARK INTER:                  -8.277
REMARK INTRA:                  -0.827
REMARK UNBOUND:                -0.848
REMARK  Name = /home/qwerty/github/datacon2025hack/step_04_hit_selection/docking/ligands/lig_266.pdb
REMARK  7 active torsions:
REMARK  status: ('A' for Active; 'I' for Inactive)
REMARK    1  A    between atoms: C1_1  and  C2_2
REMARK    2  A    between atoms: C6_6  and  C7_7
REMARK    3  A    between atoms: C8_8  and  C9_9
REMARK    4  A    between atoms: C13_15  and  C14_16
REMARK    5  A    between atoms: C14_16  and  N2_17
REMARK    6  A    between atoms: C15_18  and  C16_20
REMARK    7  A    between atoms: C18_22  and  C19_23
REMARK                            x       y       z     vdW  Elec       q    Type
REMARK                         _______ _______ _______ _____ _____    ______ ____
ROOT
ATOM      1  C9  UNL     1      21.436   7.485  33.720  0.00  0.00    +0.247 C 
ATOM      2  O1  UNL     1      20.695   6.866  32.909  0.00  0.00    -0.270 OA
ATOM      3  N1  UNL     1      21.081   7.536  35.114  0.00  0.00    -0.293 N 
ATOM      4  C10 UNL     1      20.262   6.510  35.734  0.00  0.00    +0.108 C 
ATOM      5  C11 UNL     1      20.466   6.672  37.232  0.00  0.00    +0.021 C 
ATOM      6  C12 UNL     1      21.011   8.083  37.431  0.00  0.00    +0.025 C 
ATOM      7  C13 UNL     1      21.590   8.510  36.075  0.00  0.00    +0.093 C 
ENDROOT
BRANCH   1  15
ATOM      8  C1  UNL     1      21.308  10.028  32.168  0.00  0.00    +0.044 C 
ATOM      9  C2  UNL     1      22.608   9.315  32.448  0.00  0.00    -0.038 A 
ATOM     10  C3  UNL     1      23.787   9.862  31.922  0.00  0.00    +0.004 A 
ATOM     11  C4  UNL     1      25.023   9.281  32.196  0.00  0.00    +0.001 A 
ATOM     12  C5  UNL     1      25.102   8.146  32.999  0.00  0.00    +0.004 A 
ATOM     13  C6  UNL     1      23.938   7.552  33.512  0.00  0.00    -0.038 A 
ATOM     14  C7  UNL     1      24.071   6.341  34.399  0.00  0.00    +0.044 C 
ATOM     15  C8  UNL     1      22.674   8.123  33.216  0.00  0.00    +0.043 A 
ENDBRANCH   1  15
BRANCH   7  16
ATOM     16  C14 UNL     1      21.164   9.941  35.698  0.00  0.00    +0.126 C 
BRANCH  16  17
ATOM     17  N2  UNL     1      20.020  10.367  36.502  0.00  0.00    -0.313 N 
ATOM     18  C15 UNL     1      18.673  10.291  36.018  0.00  0.00    +0.217 C 
ATOM     19  O2  UNL     1      18.415   9.695  34.937  0.00  0.00    -0.275 OA
ATOM     20  H19 UNL     1      20.193  10.731  37.466  0.00  0.00    +0.149 HD
BRANCH  18  21
ATOM     21  C16 UNL     1      17.556  10.876  36.825  0.00  0.00    +0.084 C 
ATOM     22  C17 UNL     1      17.096  10.009  37.995  0.00  0.00    +0.023 C 
ATOM     23  C18 UNL     1      16.247  10.096  36.733  0.00  0.00    +0.050 C 
BRANCH  23  24
ATOM     24  C19 UNL     1      14.982  10.905  36.853  0.00  0.00    +0.039 A 
ATOM     25  C20 UNL     1      14.839  12.280  36.912  0.00  0.00    +0.133 A 
ATOM     26  N3  UNL     1      13.531  12.586  37.015  0.00  0.00    -0.244 NA
ATOM     27  C21 UNL     1      12.906  11.389  37.017  0.00  0.00    +0.196 A 
ATOM     28  N4  UNL     1      13.760  10.354  36.919  0.00  0.00    -0.348 N 
ATOM     29  H26 UNL     1      13.519   9.339  36.901  0.00  0.00    +0.166 HD
ENDBRANCH  23  24
ENDBRANCH  18  21
ENDBRANCH  16  17
ENDBRANCH   7  16
TORSDOF 5
ENDMDL
MODEL 4
REMARK VINA RESULT:    -6.260     15.096     16.686
REMARK INTER + INTRA:          -8.937
REMARK INTER:                  -8.029
REMARK INTRA:                  -0.908
REMARK UNBOUND:                -0.848
REMARK  Name = /home/qwerty/github/datacon2025hack/step_04_hit_selection/docking/ligands/lig_266.pdb
REMARK  7 active torsions:
REMARK  status: ('A' for Active; 'I' for Inactive)
REMARK    1  A    between atoms: C1_1  and  C2_2
REMARK    2  A    between atoms: C6_6  and  C7_7
REMARK    3  A    between atoms: C8_8  and  C9_9
REMARK    4  A    between atoms: C13_15  and  C14_16
REMARK    5  A    between atoms: C14_16  and  N2_17
REMARK    6  A    between atoms: C15_18  and  C16_20
REMARK    7  A    between atoms: C18_22  and  C19_23
REMARK                            x       y       z     vdW  Elec       q    Type
REMARK                         _______ _______ _______ _____ _____    ______ ____
ROOT
ATOM      1  C9  UNL     1      21.071   7.447  33.798  0.00  0.00    +0.247 C 
ATOM      2  O1  UNL     1      20.265   6.990  32.943  0.00  0.00    -0.270 OA
ATOM      3  N1  UNL     1      20.711   7.440  35.191  0.00  0.00    -0.293 N 
ATOM      4  C10 UNL     1      19.761   6.484  35.732  0.00  0.00    +0.108 C 
ATOM      5  C11 UNL     1      19.968   6.507  37.239  0.00  0.00    +0.021 C 
ATOM      6  C12 UNL     1      20.687   7.818  37.543  0.00  0.00    +0.025 C 
ATOM      7  C13 UNL     1      21.331   8.266  36.223  0.00  0.00    +0.093 C 
ENDROOT
BRANCH   1  15
ATOM      8  C1  UNL     1      23.543   5.826  34.191  0.00  0.00    +0.044 C 
ATOM      9  C2  UNL     1      23.566   7.198  33.563  0.00  0.00    -0.038 A 
ATOM     10  C3  UNL     1      24.807   7.731  33.188  0.00  0.00    +0.004 A 
ATOM     11  C4  UNL     1      24.885   8.967  32.550  0.00  0.00    +0.001 A 
ATOM     12  C5  UNL     1      23.726   9.689  32.276  0.00  0.00    +0.004 A 
ATOM     13  C6  UNL     1      22.470   9.201  32.670  0.00  0.00    -0.038 A 
ATOM     14  C7  UNL     1      21.240  10.002  32.330  0.00  0.00    +0.044 C 
ATOM     15  C8  UNL     1      22.385   7.955  33.344  0.00  0.00    +0.043 A 
ENDBRANCH   1  15
BRANCH   7  16
ATOM     16  C14 UNL     1      21.095   9.764  35.954  0.00  0.00    +0.126 C 
BRANCH  16  17
ATOM     17  N2  UNL     1      19.938  10.248  36.705  0.00  0.00    -0.313 N 
ATOM     18  C15 UNL     1      18.632  10.343  36.124  0.00  0.00    +0.217 C 
ATOM     19  O2  UNL     1      18.403   9.853  34.984  0.00  0.00    -0.275 OA
ATOM     20  H19 UNL     1      20.070  10.525  37.705  0.00  0.00    +0.149 HD
BRANCH  18  21
ATOM     21  C16 UNL     1      17.518  10.982  36.891  0.00  0.00    +0.084 C 
ATOM     22  C17 UNL     1      17.011  10.161  38.075  0.00  0.00    +0.023 C 
ATOM     23  C18 UNL     1      16.189  10.237  36.795  0.00  0.00    +0.050 C 
BRANCH  23  24
ATOM     24  C19 UNL     1      14.945  11.085  36.869  0.00  0.00    +0.039 A 
ATOM     25  C20 UNL     1      14.840  12.464  36.866  0.00  0.00    +0.133 A 
ATOM     26  N3  UNL     1      13.540  12.810  36.943  0.00  0.00    -0.244 NA
ATOM     27  C21 UNL     1      12.882  11.632  36.993  0.00  0.00    +0.196 A 
ATOM     28  N4  UNL     1      13.708  10.571  36.949  0.00  0.00    -0.348 N 
ATOM     29  H26 UNL     1      13.440   9.562  36.973  0.00  0.00    +0.166 HD
ENDBRANCH  23  24
ENDBRANCH  18  21
ENDBRANCH  16  17
ENDBRANCH   7  16
TORSDOF 5
ENDMDL
MODEL 5
REMARK VINA RESULT:    -6.181      1.127      2.092
REMARK INTER + INTRA:          -8.835
REMARK INTER:                  -7.933
REMARK INTRA:                  -0.902
REMARK UNBOUND:                -0.848
REMARK  Name = /home/qwerty/github/datacon2025hack/step_04_hit_selection/docking/ligands/lig_266.pdb
REMARK  7 active torsions:
REMARK  status: ('A' for Active; 'I' for Inactive)
REMARK    1  A    between atoms: C1_1  and  C2_2
REMARK    2  A    between atoms: C6_6  and  C7_7
REMARK    3  A    between atoms: C8_8  and  C9_9
REMARK    4  A    between atoms: C13_15  and  C14_16
REMARK    5  A    between atoms: C14_16  and  N2_17
REMARK    6  A    between atoms: C15_18  and  C16_20
REMARK    7  A    between atoms: C18_22  and  C19_23
REMARK                            x       y       z     vdW  Elec       q    Type
REMARK                         _______ _______ _______ _____ _____    ______ ____
ROOT
ATOM      1  C9  UNL     1      15.485   0.956  23.941  0.00  0.00    +0.247 C 
ATOM      2  O1  UNL     1      15.844   1.848  24.757  0.00  0.00    -0.270 OA
ATOM      3  N1  UNL     1      15.337   1.284  22.548  0.00  0.00    -0.293 N 
ATOM      4  C10 UNL     1      16.068   2.380  21.936  0.00  0.00    +0.108 C 
ATOM      5  C11 UNL     1      15.985   2.142  20.436  0.00  0.00    +0.021 C 
ATOM      6  C12 UNL     1      14.809   1.193  20.227  0.00  0.00    +0.025 C 
ATOM      7  C13 UNL     1      14.570   0.506  21.579  0.00  0.00    +0.093 C 
ENDROOT
BRANCH   1  15
ATOM      8  C1  UNL     1      17.506  -1.187  23.479  0.00  0.00    +0.044 C 
ATOM      9  C2  UNL     1      16.199  -1.446  24.188  0.00  0.00    -0.038 A 
ATOM     10  C3  UNL     1      15.924  -2.755  24.607  0.00  0.00    +0.004 A 
ATOM     11  C4  UNL     1      14.762  -3.043  25.319  0.00  0.00    +0.001 A 
ATOM     12  C5  UNL     1      13.856  -2.029  25.622  0.00  0.00    +0.004 A 
ATOM     13  C6  UNL     1      14.083  -0.714  25.186  0.00  0.00    -0.038 A 
ATOM     14  C7  UNL     1      13.091   0.357  25.560  0.00  0.00    +0.044 C 
ATOM     15  C8  UNL     1      15.252  -0.418  24.439  0.00  0.00    +0.043 A 
ENDBRANCH   1  15
BRANCH   7  16
ATOM     16  C14 UNL     1      13.075   0.475  21.947  0.00  0.00    +0.126 C 
BRANCH  16  17
ATOM     17  N2  UNL     1      12.337   1.488  21.194  0.00  0.00    -0.313 N 
ATOM     18  C15 UNL     1      11.908   2.721  21.787  0.00  0.00    +0.217 C 
ATOM     19  O2  UNL     1      12.300   3.046  22.941  0.00  0.00    -0.275 OA
ATOM     20  H19 UNL     1      12.125   1.308  20.187  0.00  0.00    +0.149 HD
BRANCH  18  21
ATOM     21  C16 UNL     1      11.031   3.655  21.013  0.00  0.00    +0.084 C 
ATOM     22  C17 UNL     1      11.782   4.735  20.238  0.00  0.00    +0.023 C 
ATOM     23  C18 UNL     1      11.049   5.093  21.525  0.00  0.00    +0.050 C 
BRANCH  23  24
ATOM     24  C19 UNL     1       9.774   5.876  21.352  0.00  0.00    +0.039 A 
ATOM     25  C20 UNL     1       9.386   7.043  21.986  0.00  0.00    +0.133 A 
ATOM     26  N3  UNL     1       8.170   7.409  21.536  0.00  0.00    -0.244 NA
ATOM     27  C21 UNL     1       7.844   6.455  20.639  0.00  0.00    +0.196 A 
ATOM     28  N4  UNL     1       8.797   5.515  20.507  0.00  0.00    -0.348 N 
ATOM     29  H26 UNL     1       8.776   4.681  19.879  0.00  0.00    +0.166 HD
ENDBRANCH  23  24
ENDBRANCH  18  21
ENDBRANCH  16  17
ENDBRANCH   7  16
TORSDOF 5
ENDMDL
MODEL 6
REMARK VINA RESULT:    -6.180     13.719     15.989
REMARK INTER + INTRA:          -8.833
REMARK INTER:                  -8.257
REMARK INTRA:                  -0.576
REMARK UNBOUND:                -0.848
REMARK  Name = /home/qwerty/github/datacon2025hack/step_04_hit_selection/docking/ligands/lig_266.pdb
REMARK  7 active torsions:
REMARK  status: ('A' for Active; 'I' for Inactive)
REMARK    1  A    between atoms: C1_1  and  C2_2
REMARK    2  A    between atoms: C6_6  and  C7_7
REMARK    3  A    between atoms: C8_8  and  C9_9
REMARK    4  A    between atoms: C13_15  and  C14_16
REMARK    5  A    between atoms: C14_16  and  N2_17
REMARK    6  A    between atoms: C15_18  and  C16_20
REMARK    7  A    between atoms: C18_22  and  C19_23
REMARK                            x       y       z     vdW  Elec       q    Type
REMARK                         _______ _______ _______ _____ _____    ______ ____
ROOT
ATOM      1  C9  UNL     1      23.272  13.402  19.546  0.00  0.00    +0.247 C 
ATOM      2  O1  UNL     1      24.156  13.238  18.663  0.00  0.00    -0.270 OA
ATOM      3  N1  UNL     1      23.387  14.495  20.475  0.00  0.00    -0.293 N 
ATOM      4  C10 UNL     1      24.121  15.705  20.148  0.00  0.00    +0.108 C 
ATOM      5  C11 UNL     1      23.666  16.748  21.157  0.00  0.00    +0.021 C 
ATOM      6  C12 UNL     1      23.053  15.969  22.317  0.00  0.00    +0.025 C 
ATOM      7  C13 UNL     1      22.696  14.584  21.758  0.00  0.00    +0.093 C 
ENDROOT
BRANCH   1  15
ATOM      8  C1  UNL     1      23.577  10.644  20.639  0.00  0.00    +0.044 C 
ATOM      9  C2  UNL     1      22.272  11.152  20.074  0.00  0.00    -0.038 A 
ATOM     10  C3  UNL     1      21.182  10.271  20.037  0.00  0.00    +0.004 A 
ATOM     11  C4  UNL     1      19.938  10.700  19.582  0.00  0.00    +0.001 A 
ATOM     12  C5  UNL     1      19.762  12.015  19.158  0.00  0.00    +0.004 A 
ATOM     13  C6  UNL     1      20.840  12.913  19.149  0.00  0.00    -0.038 A 
ATOM     14  C7  UNL     1      20.599  14.334  18.708  0.00  0.00    +0.044 C 
ATOM     15  C8  UNL     1      22.117  12.476  19.586  0.00  0.00    +0.043 A 
ENDBRANCH   1  15
BRANCH   7  16
ATOM     16  C14 UNL     1      23.137  13.455  22.708  0.00  0.00    +0.126 C 
BRANCH  16  17
ATOM     17  N2  UNL     1      23.503  13.994  24.017  0.00  0.00    -0.313 N 
ATOM     18  C15 UNL     1      22.702  13.778  25.186  0.00  0.00    +0.217 C 
ATOM     19  O2  UNL     1      21.734  12.969  25.157  0.00  0.00    -0.275 OA
ATOM     20  H19 UNL     1      24.384  14.549  24.101  0.00  0.00    +0.149 HD
BRANCH  18  21
ATOM     21  C16 UNL     1      23.045  14.474  26.465  0.00  0.00    +0.084 C 
ATOM     22  C17 UNL     1      23.938  13.668  27.406  0.00  0.00    +0.023 C 
ATOM     23  C18 UNL     1      22.453  13.818  27.709  0.00  0.00    +0.050 C 
BRANCH  23  24
ATOM     24  C19 UNL     1      22.110  14.742  28.849  0.00  0.00    +0.039 A 
ATOM     25  C20 UNL     1      21.435  15.949  28.807  0.00  0.00    +0.133 A 
ATOM     26  N3  UNL     1      21.341  16.448  30.056  0.00  0.00    -0.244 NA
ATOM     27  C21 UNL     1      21.962  15.532  30.830  0.00  0.00    +0.196 A 
ATOM     28  N4  UNL     1      22.437  14.489  30.125  0.00  0.00    -0.348 N 
ATOM     29  H26 UNL     1      22.951  13.660  30.497  0.00  0.00    +0.166 HD
ENDBRANCH  23  24
ENDBRANCH  18  21
ENDBRANCH  16  17
ENDBRANCH   7  16
TORSDOF 5
ENDMDL
MODEL 7
REMARK VINA RESULT:    -6.148      3.140      8.991
REMARK INTER + INTRA:          -8.793
REMARK INTER:                  -8.069
REMARK INTRA:                  -0.724
REMARK UNBOUND:                -0.848
REMARK  Name = /home/qwerty/github/datacon2025hack/step_04_hit_selection/docking/ligands/lig_266.pdb
REMARK  7 active torsions:
REMARK  status: ('A' for Active; 'I' for Inactive)
REMARK    1  A    between atoms: C1_1  and  C2_2
REMARK    2  A    between atoms: C6_6  and  C7_7
REMARK    3  A    between atoms: C8_8  and  C9_9
REMARK    4  A    between atoms: C13_15  and  C14_16
REMARK    5  A    between atoms: C14_16  and  N2_17
REMARK    6  A    between atoms: C15_18  and  C16_20
REMARK    7  A    between atoms: C18_22  and  C19_23
REMARK                            x       y       z     vdW  Elec       q    Type
REMARK                         _______ _______ _______ _____ _____    ______ ____
ROOT
ATOM      1  C9  UNL     1      10.067   7.213  22.778  0.00  0.00    +0.247 C 
ATOM      2  O1  UNL     1      10.719   7.281  23.855  0.00  0.00    -0.270 OA
ATOM      3  N1  UNL     1       9.261   6.052  22.505  0.00  0.00    -0.293 N 
ATOM      4  C10 UNL     1       8.721   5.226  23.570  0.00  0.00    +0.108 C 
ATOM      5  C11 UNL     1       7.617   4.399  22.929  0.00  0.00    +0.021 C 
ATOM      6  C12 UNL     1       7.888   4.431  21.428  0.00  0.00    +0.025 C 
ATOM      7  C13 UNL     1       8.788   5.651  21.183  0.00  0.00    +0.093 C 
ENDROOT
BRANCH   1  15
ATOM      8  C1  UNL     1       7.883   9.242  22.699  0.00  0.00    +0.044 C 
ATOM      9  C2  UNL     1       9.071   9.295  21.770  0.00  0.00    -0.038 A 
ATOM     10  C3  UNL     1       9.118  10.322  20.817  0.00  0.00    +0.004 A 
ATOM     11  C4  UNL     1      10.217  10.457  19.973  0.00  0.00    +0.001 A 
ATOM     12  C5  UNL     1      11.287   9.570  20.066  0.00  0.00    +0.004 A 
ATOM     13  C6  UNL     1      11.257   8.509  20.985  0.00  0.00    -0.038 A 
ATOM     14  C7  UNL     1      12.447   7.588  21.072  0.00  0.00    +0.044 C 
ATOM     15  C8  UNL     1      10.128   8.349  21.830  0.00  0.00    +0.043 A 
ENDBRANCH   1  15
BRANCH   7  16
ATOM     16  C14 UNL     1       9.963   5.313  20.248  0.00  0.00    +0.126 C 
BRANCH  16  17
ATOM     17  N2  UNL     1      10.745   4.199  20.782  0.00  0.00    -0.313 N 
ATOM     18  C15 UNL     1      12.020   3.830  20.242  0.00  0.00    +0.217 C 
ATOM     19  O2  UNL     1      12.590   4.563  19.389  0.00  0.00    -0.275 OA
ATOM     20  H19 UNL     1      10.361   3.661  21.592  0.00  0.00    +0.149 HD
BRANCH  18  21
ATOM     21  C16 UNL     1      12.707   2.593  20.730  0.00  0.00    +0.084 C 
ATOM     22  C17 UNL     1      13.346   2.726  22.111  0.00  0.00    +0.023 C 
ATOM     23  C18 UNL     1      14.221   2.734  20.865  0.00  0.00    +0.050 C 
BRANCH  23  24
ATOM     24  C19 UNL     1      15.029   1.485  20.626  0.00  0.00    +0.039 A 
ATOM     25  C20 UNL     1      15.546   0.601  21.557  0.00  0.00    +0.133 A 
ATOM     26  N3  UNL     1      16.203  -0.385  20.915  0.00  0.00    -0.244 NA
ATOM     27  C21 UNL     1      16.071  -0.079  19.607  0.00  0.00    +0.196 A 
ATOM     28  N4  UNL     1      15.365   1.048  19.403  0.00  0.00    -0.348 N 
ATOM     29  H26 UNL     1      15.131   1.487  18.485  0.00  0.00    +0.166 HD
ENDBRANCH  23  24
ENDBRANCH  18  21
ENDBRANCH  16  17
ENDBRANCH   7  16
TORSDOF 5
ENDMDL
MODEL 8
REMARK VINA RESULT:    -6.080      3.165      8.344
REMARK INTER + INTRA:          -8.705
REMARK INTER:                  -8.009
REMARK INTRA:                  -0.696
REMARK UNBOUND:                -0.848
REMARK  Name = /home/qwerty/github/datacon2025hack/step_04_hit_selection/docking/ligands/lig_266.pdb
REMARK  7 active torsions:
REMARK  status: ('A' for Active; 'I' for Inactive)
REMARK    1  A    between atoms: C1_1  and  C2_2
REMARK    2  A    between atoms: C6_6  and  C7_7
REMARK    3  A    between atoms: C8_8  and  C9_9
REMARK    4  A    between atoms: C13_15  and  C14_16
REMARK    5  A    between atoms: C14_16  and  N2_17
REMARK    6  A    between atoms: C15_18  and  C16_20
REMARK    7  A    between atoms: C18_22  and  C19_23
REMARK                            x       y       z     vdW  Elec       q    Type
REMARK                         _______ _______ _______ _____ _____    ______ ____
ROOT
ATOM      1  C9  UNL     1       8.487   7.307  21.629  0.00  0.00    +0.247 C 
ATOM      2  O1  UNL     1       7.493   7.983  21.249  0.00  0.00    -0.270 OA
ATOM      3  N1  UNL     1       9.801   7.638  21.143  0.00  0.00    -0.293 N 
ATOM      4  C10 UNL     1      10.138   8.979  20.699  0.00  0.00    +0.108 C 
ATOM      5  C11 UNL     1      11.658   9.035  20.679  0.00  0.00    +0.021 C 
ATOM      6  C12 UNL     1      12.131   7.584  20.650  0.00  0.00    +0.025 C 
ATOM      7  C13 UNL     1      10.954   6.743  21.164  0.00  0.00    +0.093 C 
ENDROOT
BRANCH   1  15
ATOM      8  C1  UNL     1       9.120   7.673  24.520  0.00  0.00    +0.044 C 
ATOM      9  C2  UNL     1       8.611   6.367  23.961  0.00  0.00    -0.038 A 
ATOM     10  C3  UNL     1       8.469   5.284  24.841  0.00  0.00    +0.004 A 
ATOM     11  C4  UNL     1       7.948   4.071  24.395  0.00  0.00    +0.001 A 
ATOM     12  C5  UNL     1       7.560   3.921  23.066  0.00  0.00    +0.004 A 
ATOM     13  C6  UNL     1       7.722   4.973  22.151  0.00  0.00    -0.038 A 
ATOM     14  C7  UNL     1       7.263   4.776  20.729  0.00  0.00    +0.044 C 
ATOM     15  C8  UNL     1       8.276   6.202  22.591  0.00  0.00    +0.043 A 
ENDBRANCH   1  15
BRANCH   7  16
ATOM     16  C14 UNL     1      10.713   5.503  20.284  0.00  0.00    +0.126 C 
BRANCH  16  17
ATOM     17  N2  UNL     1      11.460   4.354  20.794  0.00  0.00    -0.313 N 
ATOM     18  C15 UNL     1      12.601   3.818  20.113  0.00  0.00    +0.217 C 
ATOM     19  O2  UNL     1      13.101   4.427  19.128  0.00  0.00    -0.275 OA
ATOM     20  H19 UNL     1      11.154   3.917  21.693  0.00  0.00    +0.149 HD
BRANCH  18  21
ATOM     21  C16 UNL     1      13.237   2.555  20.601  0.00  0.00    +0.084 C 
ATOM     22  C17 UNL     1      14.045   2.709  21.888  0.00  0.00    +0.023 C 
ATOM     23  C18 UNL     1      14.762   2.566  20.551  0.00  0.00    +0.050 C 
BRANCH  23  24
ATOM     24  C19 UNL     1      15.429   1.238  20.307  0.00  0.00    +0.039 A 
ATOM     25  C20 UNL     1      16.124   0.444  21.202  0.00  0.00    +0.133 A 
ATOM     26  N3  UNL     1      16.556  -0.665  20.569  0.00  0.00    -0.244 NA
ATOM     27  C21 UNL     1      16.114  -0.521  19.302  0.00  0.00    +0.196 A 
ATOM     28  N4  UNL     1      15.428   0.622  19.115  0.00  0.00    -0.348 N 
ATOM     29  H26 UNL     1      14.990   0.955  18.228  0.00  0.00    +0.166 HD
ENDBRANCH  23  24
ENDBRANCH  18  21
ENDBRANCH  16  17
ENDBRANCH   7  16
TORSDOF 5
ENDMDL
MODEL 9
REMARK VINA RESULT:    -5.990      7.543     10.407
REMARK INTER + INTRA:          -8.588
REMARK INTER:                  -7.123
REMARK INTRA:                  -1.465
REMARK UNBOUND:                -0.848
REMARK  Name = /home/qwerty/github/datacon2025hack/step_04_hit_selection/docking/ligands/lig_266.pdb
REMARK  7 active torsions:
REMARK  status: ('A' for Active; 'I' for Inactive)
REMARK    1  A    between atoms: C1_1  and  C2_2
REMARK    2  A    between atoms: C6_6  and  C7_7
REMARK    3  A    between atoms: C8_8  and  C9_9
REMARK    4  A    between atoms: C13_15  and  C14_16
REMARK    5  A    between atoms: C14_16  and  N2_17
REMARK    6  A    between atoms: C15_18  and  C16_20
REMARK    7  A    between atoms: C18_22  and  C19_23
REMARK                            x       y       z     vdW  Elec       q    Type
REMARK                         _______ _______ _______ _____ _____    ______ ____
ROOT
ATOM      1  C9  UNL     1       9.483   8.191  21.901  0.00  0.00    +0.247 C 
ATOM      2  O1  UNL     1       9.073   7.133  21.350  0.00  0.00    -0.270 OA
ATOM      3  N1  UNL     1      10.547   8.945  21.292  0.00  0.00    -0.293 N 
ATOM      4  C10 UNL     1      10.806   8.889  19.864  0.00  0.00    +0.108 C 
ATOM      5  C11 UNL     1      11.676  10.098  19.556  0.00  0.00    +0.021 C 
ATOM      6  C12 UNL     1      12.279  10.531  20.889  0.00  0.00    +0.025 C 
ATOM      7  C13 UNL     1      11.379   9.928  21.978  0.00  0.00    +0.093 C 
ENDROOT
BRANCH   1  15
ATOM      8  C1  UNL     1       9.909   6.707  24.452  0.00  0.00    +0.044 C 
ATOM      9  C2  UNL     1       9.012   7.916  24.359  0.00  0.00    -0.038 A 
ATOM     10  C3  UNL     1       8.332   8.324  25.516  0.00  0.00    +0.004 A 
ATOM     11  C4  UNL     1       7.537   9.468  25.506  0.00  0.00    +0.001 A 
ATOM     12  C5  UNL     1       7.408  10.222  24.342  0.00  0.00    +0.004 A 
ATOM     13  C6  UNL     1       8.045   9.822  23.157  0.00  0.00    -0.038 A 
ATOM     14  C7  UNL     1       7.900  10.682  21.927  0.00  0.00    +0.044 C 
ATOM     15  C8  UNL     1       8.836   8.644  23.152  0.00  0.00    +0.043 A 
ENDBRANCH   1  15
BRANCH   7  16
ATOM     16  C14 UNL     1      12.204   9.273  23.101  0.00  0.00    +0.126 C 
BRANCH  16  17
ATOM     17  N2  UNL     1      12.059  10.018  24.351  0.00  0.00    -0.313 N 
ATOM     18  C15 UNL     1      12.316   9.426  25.630  0.00  0.00    +0.217 C 
ATOM     19  O2  UNL     1      12.839   8.281  25.711  0.00  0.00    -0.275 OA
ATOM     20  H19 UNL     1      11.767  11.021  24.305  0.00  0.00    +0.149 HD
BRANCH  18  21
ATOM     21  C16 UNL     1      12.011  10.189  26.881  0.00  0.00    +0.084 C 
ATOM     22  C17 UNL     1      10.842   9.634  27.693  0.00  0.00    +0.023 C 
ATOM     23  C18 UNL     1      10.659  10.898  26.863  0.00  0.00    +0.050 C 
BRANCH  23  24
ATOM     24  C19 UNL     1      10.573  12.184  27.643  0.00  0.00    +0.039 A 
ATOM     25  C20 UNL     1      11.323  13.337  27.492  0.00  0.00    +0.133 A 
ATOM     26  N3  UNL     1      10.918  14.251  28.396  0.00  0.00    -0.244 NA
ATOM     27  C21 UNL     1       9.930  13.633  29.077  0.00  0.00    +0.196 A 
ATOM     28  N4  UNL     1       9.699  12.381  28.642  0.00  0.00    -0.348 N 
ATOM     29  H26 UNL     1       8.990  11.708  29.008  0.00  0.00    +0.166 HD
ENDBRANCH  23  24
ENDBRANCH  18  21
ENDBRANCH  16  17
ENDBRANCH   7  16
TORSDOF 5
ENDMDL
