MODEL 1
REMARK VINA RESULT:    -6.280      0.000      0.000
REMARK INTER + INTRA:         -10.137
REMARK INTER:                  -9.217
REMARK INTRA:                  -0.920
REMARK UNBOUND:                -0.920
REMARK  Name = /home/qwerty/github/datacon2025hack/step_04_hit_selection/docking/ligands/lig_628.pdb
REMARK  11 active torsions:
REMARK  status: ('A' for Active; 'I' for Inactive)
REMARK    1  A    between atoms: C1_1  and  C2_2
REMARK    2  A    between atoms: C2_2  and  C3_3
REMARK    3  A    between atoms: C2_2  and  C4_4
REMARK    4  A    between atoms: C2_2  and  O1_5
REMARK    5  A    between atoms: O1_5  and  C5_6
REMARK    6  A    between atoms: N1_8  and  C6_9
REMARK    7  A    between atoms: C9_12  and  N2_13
REMARK    8  A    between atoms: N3_16  and  C11_17
REMARK    9  A    between atoms: C11_17  and  C12_18
REMARK   10  A    between atoms: C12_18  and  C13_19
REMARK   11  A    between atoms: C12_18  and  N4_24
REMARK                            x       y       z     vdW  Elec       q    Type
REMARK                         _______ _______ _______ _____ _____    ______ ____
ROOT
ATOM      1  N2  UNL     1      16.887   7.900  19.174  0.00  0.00    -0.269 N 
ATOM      2  C10 UNL     1      16.968   6.964  20.258  0.00  0.00    +0.304 C 
ATOM      3  O3  UNL     1      17.468   7.310  21.364  0.00  0.00    -0.253 OA
ATOM      4  N3  UNL     1      16.428   5.645  20.093  0.00  0.00    -0.297 N 
ATOM      5  H13 UNL     1      16.238   7.675  18.387  0.00  0.00    +0.156 HD
ATOM      6  H14 UNL     1      16.142   5.344  19.138  0.00  0.00    +0.150 HD
ENDROOT
BRANCH   1  10
ATOM      7  C6  UNL     1      18.652  11.771  19.185  0.00  0.00    +0.037 A 
ATOM      8  C7  UNL     1      19.463  10.626  19.091  0.00  0.00    +0.025 A 
ATOM      9  C8  UNL     1      18.890   9.350  19.102  0.00  0.00    +0.025 A 
ATOM     10  C9  UNL     1      17.497   9.199  19.196  0.00  0.00    +0.035 A 
ATOM     11  C21 UNL     1      16.685  10.341  19.250  0.00  0.00    +0.025 A 
ATOM     12  C22 UNL     1      17.258  11.615  19.249  0.00  0.00    +0.025 A 
BRANCH   7  15
ATOM     13  C5  UNL     1      19.731  13.807  20.263  0.00  0.00    +0.405 C 
ATOM     14  O2  UNL     1      19.533  13.382  21.432  0.00  0.00    -0.226 OA
ATOM     15  N1  UNL     1      19.207  13.097  19.135  0.00  0.00    -0.251 N 
ATOM     16  H10 UNL     1      19.169  13.614  18.227  0.00  0.00    +0.158 HD
BRANCH  13  17
ATOM     17  O1  UNL     1      20.430  15.002  20.041  0.00  0.00    -0.444 OA
BRANCH  17  19
ATOM     18  C1  UNL     1      22.083  15.915  21.602  0.00  0.00    +0.055 C 
ATOM     19  C2  UNL     1      21.834  15.218  20.250  0.00  0.00    +0.107 C 
ATOM     20  C3  UNL     1      22.605  13.887  20.174  0.00  0.00    +0.055 C 
ATOM     21  C4  UNL     1      22.323  16.141  19.121  0.00  0.00    +0.055 C 
ENDBRANCH  17  19
ENDBRANCH  13  17
ENDBRANCH   7  15
ENDBRANCH   1  10
BRANCH   4  22
ATOM     22  C11 UNL     1      16.002   4.824  21.224  0.00  0.00    +0.130 C 
BRANCH  22  23
ATOM     23  C12 UNL     1      16.820   3.521  21.268  0.00  0.00    +0.111 C 
BRANCH  23  24
ATOM     24  N4  UNL     1      15.957   2.387  21.698  0.00  0.00    -0.289 NA
ATOM     25  C17 UNL     1      14.528   2.703  21.891  0.00  0.00    +0.113 C 
ATOM     26  C18 UNL     1      13.702   2.383  20.642  0.00  0.00    +0.175 C 
ATOM     27  O4  UNL     1      13.889   1.042  20.251  0.00  0.00    -0.377 OA
ATOM     28  C19 UNL     1      15.235   0.847  19.870  0.00  0.00    +0.175 C 
ATOM     29  C20 UNL     1      16.181   1.074  21.060  0.00  0.00    +0.113 C 
ENDBRANCH  23  24
BRANCH  23  30
ATOM     30  C13 UNL     1      18.085   3.675  22.083  0.00  0.00    +0.008 A 
ATOM     31  C14 UNL     1      19.265   4.314  21.704  0.00  0.00    +0.013 A 
ATOM     32  C15 UNL     1      20.269   4.251  22.678  0.00  0.00    +0.008 A 
ATOM     33  C16 UNL     1      19.899   3.554  23.819  0.00  0.00    +0.045 A 
ATOM     34  S1  UNL     1      18.320   3.018  23.615  0.00  0.00    -0.100 S 
ENDBRANCH  23  30
ENDBRANCH  22  23
ENDBRANCH   4  22
TORSDOF 8
ENDMDL
MODEL 2
REMARK VINA RESULT:    -6.085      2.263      2.968
REMARK INTER + INTRA:          -9.852
REMARK INTER:                  -8.882
REMARK INTRA:                  -0.970
REMARK UNBOUND:                -0.920
REMARK  Name = /home/qwerty/github/datacon2025hack/step_04_hit_selection/docking/ligands/lig_628.pdb
REMARK  11 active torsions:
REMARK  status: ('A' for Active; 'I' for Inactive)
REMARK    1  A    between atoms: C1_1  and  C2_2
REMARK    2  A    between atoms: C2_2  and  C3_3
REMARK    3  A    between atoms: C2_2  and  C4_4
REMARK    4  A    between atoms: C2_2  and  O1_5
REMARK    5  A    between atoms: O1_5  and  C5_6
REMARK    6  A    between atoms: N1_8  and  C6_9
REMARK    7  A    between atoms: C9_12  and  N2_13
REMARK    8  A    between atoms: N3_16  and  C11_17
REMARK    9  A    between atoms: C11_17  and  C12_18
REMARK   10  A    between atoms: C12_18  and  C13_19
REMARK   11  A    between atoms: C12_18  and  N4_24
REMARK                            x       y       z     vdW  Elec       q    Type
REMARK                         _______ _______ _______ _____ _____    ______ ____
ROOT
ATOM      1  N2  UNL     1      16.876   8.162  19.244  0.00  0.00    -0.269 N 
ATOM      2  C10 UNL     1      16.687   7.364  20.422  0.00  0.00    +0.304 C 
ATOM      3  O3  UNL     1      16.967   7.830  21.561  0.00  0.00    -0.253 OA
ATOM      4  N3  UNL     1      16.125   6.050  20.300  0.00  0.00    -0.297 N 
ATOM      5  H13 UNL     1      16.391   7.860  18.371  0.00  0.00    +0.156 HD
ATOM      6  H14 UNL     1      16.025   5.642  19.347  0.00  0.00    +0.150 HD
ENDROOT
BRANCH   1  10
ATOM      7  C6  UNL     1      18.784  11.964  19.190  0.00  0.00    +0.037 A 
ATOM      8  C7  UNL     1      19.551  10.789  19.096  0.00  0.00    +0.025 A 
ATOM      9  C8  UNL     1      18.931   9.536  19.129  0.00  0.00    +0.025 A 
ATOM     10  C9  UNL     1      17.534   9.438  19.244  0.00  0.00    +0.035 A 
ATOM     11  C21 UNL     1      16.767  10.610  19.300  0.00  0.00    +0.025 A 
ATOM     12  C22 UNL     1      17.387  11.861  19.278  0.00  0.00    +0.025 A 
BRANCH   7  15
ATOM     13  C5  UNL     1      19.921  13.984  20.239  0.00  0.00    +0.405 C 
ATOM     14  O2  UNL     1      19.692  13.594  21.414  0.00  0.00    -0.226 OA
ATOM     15  N1  UNL     1      19.387  13.269  19.120  0.00  0.00    -0.251 N 
ATOM     16  H10 UNL     1      19.380  13.765  18.200  0.00  0.00    +0.158 HD
BRANCH  13  17
ATOM     17  O1  UNL     1      20.666  15.148  20.000  0.00  0.00    -0.444 OA
BRANCH  17  19
ATOM     18  C1  UNL     1      22.369  15.895  21.596  0.00  0.00    +0.055 C 
ATOM     19  C2  UNL     1      22.079  15.311  20.199  0.00  0.00    +0.107 C 
ATOM     20  C3  UNL     1      22.810  13.969  20.009  0.00  0.00    +0.055 C 
ATOM     21  C4  UNL     1      22.574  16.303  19.135  0.00  0.00    +0.055 C 
ENDBRANCH  17  19
ENDBRANCH  13  17
ENDBRANCH   7  15
ENDBRANCH   1  10
BRANCH   4  22
ATOM     22  C11 UNL     1      15.436   5.385  21.403  0.00  0.00    +0.130 C 
BRANCH  22  23
ATOM     23  C12 UNL     1      14.415   4.373  20.853  0.00  0.00    +0.111 C 
BRANCH  23  24
ATOM     24  N4  UNL     1      13.108   4.533  21.547  0.00  0.00    -0.289 NA
ATOM     25  C17 UNL     1      12.891   5.829  22.221  0.00  0.00    +0.113 C 
ATOM     26  C18 UNL     1      12.126   6.811  21.329  0.00  0.00    +0.175 C 
ATOM     27  O4  UNL     1      10.913   6.245  20.890  0.00  0.00    -0.377 OA
ATOM     28  C19 UNL     1      11.185   5.128  20.069  0.00  0.00    +0.175 C 
ATOM     29  C20 UNL     1      11.901   4.025  20.864  0.00  0.00    +0.113 C 
ENDBRANCH  23  24
BRANCH  23  30
ATOM     30  C13 UNL     1      14.953   2.959  20.874  0.00  0.00    +0.008 A 
ATOM     31  C14 UNL     1      15.663   2.308  19.866  0.00  0.00    +0.013 A 
ATOM     32  C15 UNL     1      15.989   0.983  20.182  0.00  0.00    +0.008 A 
ATOM     33  C16 UNL     1      15.529   0.575  21.426  0.00  0.00    +0.045 A 
ATOM     34  S1  UNL     1      14.718   1.867  22.133  0.00  0.00    -0.100 S 
ENDBRANCH  23  30
ENDBRANCH  22  23
ENDBRANCH   4  22
TORSDOF 8
ENDMDL
MODEL 3
REMARK VINA RESULT:    -6.064     10.527     13.432
REMARK INTER + INTRA:          -9.821
REMARK INTER:                  -8.892
REMARK INTRA:                  -0.928
REMARK UNBOUND:                -0.920
REMARK  Name = /home/qwerty/github/datacon2025hack/step_04_hit_selection/docking/ligands/lig_628.pdb
REMARK  11 active torsions:
REMARK  status: ('A' for Active; 'I' for Inactive)
REMARK    1  A    between atoms: C1_1  and  C2_2
REMARK    2  A    between atoms: C2_2  and  C3_3
REMARK    3  A    between atoms: C2_2  and  C4_4
REMARK    4  A    between atoms: C2_2  and  O1_5
REMARK    5  A    between atoms: O1_5  and  C5_6
REMARK    6  A    between atoms: N1_8  and  C6_9
REMARK    7  A    between atoms: C9_12  and  N2_13
REMARK    8  A    between atoms: N3_16  and  C11_17
REMARK    9  A    between atoms: C11_17  and  C12_18
REMARK   10  A    between atoms: C12_18  and  C13_19
REMARK   11  A    between atoms: C12_18  and  N4_24
REMARK                            x       y       z     vdW  Elec       q    Type
REMARK                         _______ _______ _______ _____ _____    ______ ____
ROOT
ATOM      1  N2  UNL     1      21.610   2.985  33.207  0.00  0.00    -0.269 N 
ATOM      2  C10 UNL     1      20.829   2.616  32.061  0.00  0.00    +0.304 C 
ATOM      3  O3  UNL     1      20.105   3.470  31.480  0.00  0.00    -0.253 OA
ATOM      4  N3  UNL     1      20.920   1.280  31.546  0.00  0.00    -0.297 N 
ATOM      5  H13 UNL     1      22.387   2.347  33.489  0.00  0.00    +0.156 HD
ATOM      6  H14 UNL     1      21.419   0.564  32.115  0.00  0.00    +0.150 HD
ENDROOT
BRANCH   1  10
ATOM      7  C6  UNL     1      21.240   6.764  35.126  0.00  0.00    +0.037 A 
ATOM      8  C7  UNL     1      22.449   6.404  34.502  0.00  0.00    +0.025 A 
ATOM      9  C8  UNL     1      22.581   5.157  33.883  0.00  0.00    +0.025 A 
ATOM     10  C9  UNL     1      21.505   4.254  33.867  0.00  0.00    +0.035 A 
ATOM     11  C21 UNL     1      20.288   4.628  34.456  0.00  0.00    +0.025 A 
ATOM     12  C22 UNL     1      20.159   5.869  35.083  0.00  0.00    +0.025 A 
BRANCH   7  15
ATOM     13  C5  UNL     1      20.871   9.278  35.018  0.00  0.00    +0.405 C 
ATOM     14  O2  UNL     1      21.077   9.328  33.777  0.00  0.00    -0.226 OA
ATOM     15  N1  UNL     1      21.058   8.053  35.736  0.00  0.00    -0.251 N 
ATOM     16  H10 UNL     1      21.131   8.121  36.776  0.00  0.00    +0.158 HD
BRANCH  13  17
ATOM     17  O1  UNL     1      20.497  10.426  35.732  0.00  0.00    -0.444 OA
BRANCH  17  19
ATOM     18  C1  UNL     1      18.116  10.333  35.156  0.00  0.00    +0.055 C 
ATOM     19  C2  UNL     1      19.176  10.746  36.197  0.00  0.00    +0.107 C 
ATOM     20  C3  UNL     1      18.900  10.069  37.551  0.00  0.00    +0.055 C 
ATOM     21  C4  UNL     1      19.120  12.271  36.382  0.00  0.00    +0.055 C 
ENDBRANCH  17  19
ENDBRANCH  13  17
ENDBRANCH   7  15
ENDBRANCH   1  10
BRANCH   4  22
ATOM     22  C11 UNL     1      20.602   0.949  30.159  0.00  0.00    +0.130 C 
BRANCH  22  23
ATOM     23  C12 UNL     1      21.729   1.435  29.230  0.00  0.00    +0.111 C 
BRANCH  23  24
ATOM     24  N4  UNL     1      21.172   1.814  27.902  0.00  0.00    -0.289 NA
ATOM     25  C17 UNL     1      19.817   2.400  27.916  0.00  0.00    +0.113 C 
ATOM     26  C18 UNL     1      19.860   3.930  27.929  0.00  0.00    +0.175 C 
ATOM     27  O4  UNL     1      20.625   4.417  26.851  0.00  0.00    -0.377 OA
ATOM     28  C19 UNL     1      21.967   4.004  27.002  0.00  0.00    +0.175 C 
ATOM     29  C20 UNL     1      22.079   2.472  26.940  0.00  0.00    +0.113 C 
ENDBRANCH  23  24
BRANCH  23  30
ATOM     30  C13 UNL     1      22.869   0.444  29.158  0.00  0.00    +0.008 A 
ATOM     31  C14 UNL     1      24.228   0.701  29.333  0.00  0.00    +0.013 A 
ATOM     32  C15 UNL     1      25.035  -0.431  29.166  0.00  0.00    +0.008 A 
ATOM     33  C16 UNL     1      24.326  -1.580  28.845  0.00  0.00    +0.045 A 
ATOM     34  S1  UNL     1      22.695  -1.185  28.771  0.00  0.00    -0.100 S 
ENDBRANCH  23  30
ENDBRANCH  22  23
ENDBRANCH   4  22
TORSDOF 8
ENDMDL
MODEL 4
REMARK VINA RESULT:    -5.973     15.448     20.017
REMARK INTER + INTRA:          -9.687
REMARK INTER:                  -8.594
REMARK INTRA:                  -1.092
REMARK UNBOUND:                -0.920
REMARK  Name = /home/qwerty/github/datacon2025hack/step_04_hit_selection/docking/ligands/lig_628.pdb
REMARK  11 active torsions:
REMARK  status: ('A' for Active; 'I' for Inactive)
REMARK    1  A    between atoms: C1_1  and  C2_2
REMARK    2  A    between atoms: C2_2  and  C3_3
REMARK    3  A    between atoms: C2_2  and  C4_4
REMARK    4  A    between atoms: C2_2  and  O1_5
REMARK    5  A    between atoms: O1_5  and  C5_6
REMARK    6  A    between atoms: N1_8  and  C6_9
REMARK    7  A    between atoms: C9_12  and  N2_13
REMARK    8  A    between atoms: N3_16  and  C11_17
REMARK    9  A    between atoms: C11_17  and  C12_18
REMARK   10  A    between atoms: C12_18  and  C13_19
REMARK   11  A    between atoms: C12_18  and  N4_24
REMARK                            x       y       z     vdW  Elec       q    Type
REMARK                         _______ _______ _______ _____ _____    ______ ____
ROOT
ATOM      1  N2  UNL     1      13.673   5.540  38.652  0.00  0.00    -0.269 N 
ATOM      2  C10 UNL     1      14.582   5.659  37.548  0.00  0.00    +0.304 C 
ATOM      3  O3  UNL     1      14.245   5.261  36.399  0.00  0.00    -0.253 OA
ATOM      4  N3  UNL     1      15.859   6.282  37.748  0.00  0.00    -0.297 N 
ATOM      5  H13 UNL     1      13.869   6.112  39.504  0.00  0.00    +0.156 HD
ATOM      6  H14 UNL     1      16.163   6.482  38.724  0.00  0.00    +0.150 HD
ENDROOT
BRANCH   1  10
ATOM      7  C6  UNL     1      10.003   3.404  38.402  0.00  0.00    +0.037 A 
ATOM      8  C7  UNL     1      10.012   4.806  38.294  0.00  0.00    +0.025 A 
ATOM      9  C8  UNL     1      11.213   5.515  38.391  0.00  0.00    +0.025 A 
ATOM     10  C9  UNL     1      12.426   4.833  38.586  0.00  0.00    +0.035 A 
ATOM     11  C21 UNL     1      12.422   3.434  38.655  0.00  0.00    +0.025 A 
ATOM     12  C22 UNL     1      11.221   2.725  38.569  0.00  0.00    +0.025 A 
BRANCH   7  15
ATOM     13  C5  UNL     1       8.361   1.995  37.065  0.00  0.00    +0.405 C 
ATOM     14  O2  UNL     1       8.930   2.243  35.968  0.00  0.00    -0.226 OA
ATOM     15  N1  UNL     1       8.790   2.642  38.267  0.00  0.00    -0.251 N 
ATOM     16  H10 UNL     1       8.137   2.608  39.082  0.00  0.00    +0.158 HD
BRANCH  13  17
ATOM     17  O1  UNL     1       7.272   1.114  37.127  0.00  0.00    -0.444 OA
BRANCH  17  19
ATOM     18  C1  UNL     1       6.244  -1.039  37.686  0.00  0.00    +0.055 C 
ATOM     19  C2  UNL     1       7.297  -0.293  36.843  0.00  0.00    +0.107 C 
ATOM     20  C3  UNL     1       7.069  -0.547  35.342  0.00  0.00    +0.055 C 
ATOM     21  C4  UNL     1       8.694  -0.808  37.229  0.00  0.00    +0.055 C 
ENDBRANCH  17  19
ENDBRANCH  13  17
ENDBRANCH   7  15
ENDBRANCH   1  10
BRANCH   4  22
ATOM     22  C11 UNL     1      16.611   6.899  36.659  0.00  0.00    +0.130 C 
BRANCH  22  23
ATOM     23  C12 UNL     1      17.947   6.162  36.457  0.00  0.00    +0.111 C 
BRANCH  23  24
ATOM     24  N4  UNL     1      18.911   7.036  35.734  0.00  0.00    -0.289 NA
ATOM     25  C17 UNL     1      18.914   8.458  36.130  0.00  0.00    +0.113 C 
ATOM     26  C18 UNL     1      19.990   8.753  37.178  0.00  0.00    +0.175 C 
ATOM     27  O4  UNL     1      21.257   8.339  36.721  0.00  0.00    -0.377 OA
ATOM     28  C19 UNL     1      21.265   6.935  36.563  0.00  0.00    +0.175 C 
ATOM     29  C20 UNL     1      20.264   6.501  35.480  0.00  0.00    +0.113 C 
ENDBRANCH  23  24
BRANCH  23  30
ATOM     30  C13 UNL     1      17.752   4.803  35.821  0.00  0.00    +0.008 A 
ATOM     31  C14 UNL     1      18.043   3.558  36.378  0.00  0.00    +0.013 A 
ATOM     32  C15 UNL     1      17.780   2.488  35.514  0.00  0.00    +0.008 A 
ATOM     33  C16 UNL     1      17.298   2.876  34.272  0.00  0.00    +0.045 A 
ATOM     34  S1  UNL     1      17.197   4.553  34.252  0.00  0.00    -0.100 S 
ENDBRANCH  23  30
ENDBRANCH  22  23
ENDBRANCH   4  22
TORSDOF 8
ENDMDL
MODEL 5
REMARK VINA RESULT:    -5.952     12.451     14.245
REMARK INTER + INTRA:          -9.656
REMARK INTER:                  -8.960
REMARK INTRA:                  -0.696
REMARK UNBOUND:                -0.920
REMARK  Name = /home/qwerty/github/datacon2025hack/step_04_hit_selection/docking/ligands/lig_628.pdb
REMARK  11 active torsions:
REMARK  status: ('A' for Active; 'I' for Inactive)
REMARK    1  A    between atoms: C1_1  and  C2_2
REMARK    2  A    between atoms: C2_2  and  C3_3
REMARK    3  A    between atoms: C2_2  and  C4_4
REMARK    4  A    between atoms: C2_2  and  O1_5
REMARK    5  A    between atoms: O1_5  and  C5_6
REMARK    6  A    between atoms: N1_8  and  C6_9
REMARK    7  A    between atoms: C9_12  and  N2_13
REMARK    8  A    between atoms: N3_16  and  C11_17
REMARK    9  A    between atoms: C11_17  and  C12_18
REMARK   10  A    between atoms: C12_18  and  C13_19
REMARK   11  A    between atoms: C12_18  and  N4_24
REMARK                            x       y       z     vdW  Elec       q    Type
REMARK                         _______ _______ _______ _____ _____    ______ ____
ROOT
ATOM      1  N2  UNL     1       6.507   4.727  29.648  0.00  0.00    -0.269 N 
ATOM      2  C10 UNL     1       7.510   3.797  30.085  0.00  0.00    +0.304 C 
ATOM      3  O3  UNL     1       8.704   4.173  30.240  0.00  0.00    -0.253 OA
ATOM      4  N3  UNL     1       7.134   2.448  30.397  0.00  0.00    -0.297 N 
ATOM      5  H13 UNL     1       5.507   4.462  29.791  0.00  0.00    +0.156 HD
ATOM      6  H14 UNL     1       6.176   2.130  30.139  0.00  0.00    +0.150 HD
ENDROOT
BRANCH   1  10
ATOM      7  C6  UNL     1       7.307   8.702  28.364  0.00  0.00    +0.037 A 
ATOM      8  C7  UNL     1       7.200   7.664  27.420  0.00  0.00    +0.025 A 
ATOM      9  C8  UNL     1       6.952   6.353  27.838  0.00  0.00    +0.025 A 
ATOM     10  C9  UNL     1       6.796   6.060  29.203  0.00  0.00    +0.035 A 
ATOM     11  C21 UNL     1       6.865   7.100  30.140  0.00  0.00    +0.025 A 
ATOM     12  C22 UNL     1       7.123   8.409  29.724  0.00  0.00    +0.025 A 
BRANCH   7  15
ATOM     13  C5  UNL     1       8.804  10.694  27.848  0.00  0.00    +0.405 C 
ATOM     14  O2  UNL     1       9.833  10.132  28.309  0.00  0.00    -0.226 OA
ATOM     15  N1  UNL     1       7.522  10.067  27.965  0.00  0.00    -0.251 N 
ATOM     16  H10 UNL     1       6.684  10.673  27.810  0.00  0.00    +0.158 HD
BRANCH  13  17
ATOM     17  O1  UNL     1       8.883  11.959  27.249  0.00  0.00    -0.444 OA
BRANCH  17  19
ATOM     18  C1  UNL     1       8.539  13.039  29.422  0.00  0.00    +0.055 C 
ATOM     19  C2  UNL     1       8.869  13.225  27.928  0.00  0.00    +0.107 C 
ATOM     20  C3  UNL     1      10.218  13.946  27.755  0.00  0.00    +0.055 C 
ATOM     21  C4  UNL     1       7.763  14.073  27.279  0.00  0.00    +0.055 C 
ENDBRANCH  17  19
ENDBRANCH  13  17
ENDBRANCH   7  15
ENDBRANCH   1  10
BRANCH   4  22
ATOM     22  C11 UNL     1       7.913   1.604  31.299  0.00  0.00    +0.130 C 
BRANCH  22  23
ATOM     23  C12 UNL     1       7.807   0.131  30.866  0.00  0.00    +0.111 C 
BRANCH  23  24
ATOM     24  N4  UNL     1       9.069  -0.591  31.186  0.00  0.00    -0.289 NA
ATOM     25  C17 UNL     1       9.968   0.079  32.146  0.00  0.00    +0.113 C 
ATOM     26  C18 UNL     1       9.746  -0.422  33.576  0.00  0.00    +0.175 C 
ATOM     27  O4  UNL     1       9.871  -1.824  33.638  0.00  0.00    -0.377 OA
ATOM     28  C19 UNL     1       8.848  -2.422  32.869  0.00  0.00    +0.175 C 
ATOM     29  C20 UNL     1       8.991  -2.052  31.384  0.00  0.00    +0.113 C 
ENDBRANCH  23  24
BRANCH  23  30
ATOM     30  C13 UNL     1       7.369  -0.004  29.424  0.00  0.00    +0.008 A 
ATOM     31  C14 UNL     1       6.081  -0.243  28.948  0.00  0.00    +0.013 A 
ATOM     32  C15 UNL     1       6.013  -0.352  27.554  0.00  0.00    +0.008 A 
ATOM     33  C16 UNL     1       7.241  -0.215  26.922  0.00  0.00    +0.045 A 
ATOM     34  S1  UNL     1       8.410   0.043  28.102  0.00  0.00    -0.100 S 
ENDBRANCH  23  30
ENDBRANCH  22  23
ENDBRANCH   4  22
TORSDOF 8
ENDMDL
MODEL 6
REMARK VINA RESULT:    -5.884      6.378     11.889
REMARK INTER + INTRA:          -9.557
REMARK INTER:                  -8.841
REMARK INTRA:                  -0.716
REMARK UNBOUND:                -0.920
REMARK  Name = /home/qwerty/github/datacon2025hack/step_04_hit_selection/docking/ligands/lig_628.pdb
REMARK  11 active torsions:
REMARK  status: ('A' for Active; 'I' for Inactive)
REMARK    1  A    between atoms: C1_1  and  C2_2
REMARK    2  A    between atoms: C2_2  and  C3_3
REMARK    3  A    between atoms: C2_2  and  C4_4
REMARK    4  A    between atoms: C2_2  and  O1_5
REMARK    5  A    between atoms: O1_5  and  C5_6
REMARK    6  A    between atoms: N1_8  and  C6_9
REMARK    7  A    between atoms: C9_12  and  N2_13
REMARK    8  A    between atoms: N3_16  and  C11_17
REMARK    9  A    between atoms: C11_17  and  C12_18
REMARK   10  A    between atoms: C12_18  and  C13_19
REMARK   11  A    between atoms: C12_18  and  N4_24
REMARK                            x       y       z     vdW  Elec       q    Type
REMARK                         _______ _______ _______ _____ _____    ______ ____
ROOT
ATOM      1  N2  UNL     1      22.679   5.417  25.019  0.00  0.00    -0.269 N 
ATOM      2  C10 UNL     1      21.955   5.765  23.829  0.00  0.00    +0.304 C 
ATOM      3  O3  UNL     1      20.777   5.347  23.654  0.00  0.00    -0.253 OA
ATOM      4  N3  UNL     1      22.560   6.637  22.864  0.00  0.00    -0.297 N 
ATOM      5  H13 UNL     1      23.521   5.987  25.257  0.00  0.00    +0.156 HD
ATOM      6  H14 UNL     1      23.572   6.862  22.968  0.00  0.00    +0.150 HD
ENDROOT
BRANCH   1  10
ATOM      7  C6  UNL     1      21.269   2.555  27.832  0.00  0.00    +0.037 A 
ATOM      8  C7  UNL     1      20.916   3.910  27.967  0.00  0.00    +0.025 A 
ATOM      9  C8  UNL     1      21.388   4.858  27.054  0.00  0.00    +0.025 A 
ATOM     10  C9  UNL     1      22.212   4.465  25.985  0.00  0.00    +0.035 A 
ATOM     11  C21 UNL     1      22.533   3.110  25.830  0.00  0.00    +0.025 A 
ATOM     12  C22 UNL     1      22.070   2.164  26.747  0.00  0.00    +0.025 A 
BRANCH   7  15
ATOM     13  C5  UNL     1      21.297   1.279  30.033  0.00  0.00    +0.405 C 
ATOM     14  O2  UNL     1      22.399   1.773  30.389  0.00  0.00    -0.226 OA
ATOM     15  N1  UNL     1      20.767   1.549  28.730  0.00  0.00    -0.251 N 
ATOM     16  H10 UNL     1      20.003   0.922  28.390  0.00  0.00    +0.158 HD
BRANCH  13  17
ATOM     17  O1  UNL     1      20.585   0.421  30.883  0.00  0.00    -0.444 OA
BRANCH  17  19
ATOM     18  C1  UNL     1      18.888  -0.398  32.450  0.00  0.00    +0.055 C 
ATOM     19  C2  UNL     1      19.688   0.815  31.933  0.00  0.00    +0.107 C 
ATOM     20  C3  UNL     1      20.461   1.486  33.083  0.00  0.00    +0.055 C 
ATOM     21  C4  UNL     1      18.707   1.834  31.331  0.00  0.00    +0.055 C 
ENDBRANCH  17  19
ENDBRANCH  13  17
ENDBRANCH   7  15
ENDBRANCH   1  10
BRANCH   4  22
ATOM     22  C11 UNL     1      21.775   7.438  21.928  0.00  0.00    +0.130 C 
BRANCH  22  23
ATOM     23  C12 UNL     1      21.805   6.795  20.530  0.00  0.00    +0.111 C 
BRANCH  23  24
ATOM     24  N4  UNL     1      22.722   7.553  19.636  0.00  0.00    -0.289 NA
ATOM     25  C17 UNL     1      23.284   8.798  20.196  0.00  0.00    +0.113 C 
ATOM     26  C18 UNL     1      24.665   8.568  20.815  0.00  0.00    +0.175 C 
ATOM     27  O4  UNL     1      25.539   7.978  19.881  0.00  0.00    -0.377 OA
ATOM     28  C19 UNL     1      25.064   6.693  19.540  0.00  0.00    +0.175 C 
ATOM     29  C20 UNL     1      23.698   6.781  18.841  0.00  0.00    +0.113 C 
ENDBRANCH  23  24
BRANCH  23  30
ATOM     30  C13 UNL     1      20.414   6.605  19.966  0.00  0.00    +0.008 A 
ATOM     31  C14 UNL     1      19.347   5.925  20.554  0.00  0.00    +0.013 A 
ATOM     32  C15 UNL     1      18.198   5.898  19.755  0.00  0.00    +0.008 A 
ATOM     33  C16 UNL     1      18.350   6.537  18.532  0.00  0.00    +0.045 A 
ATOM     34  S1  UNL     1      19.917   7.138  18.449  0.00  0.00    -0.100 S 
ENDBRANCH  23  30
ENDBRANCH  22  23
ENDBRANCH   4  22
TORSDOF 8
ENDMDL
MODEL 7
REMARK VINA RESULT:    -5.752      6.110     11.747
REMARK INTER + INTRA:          -9.363
REMARK INTER:                  -8.494
REMARK INTRA:                  -0.869
REMARK UNBOUND:                -0.920
REMARK  Name = /home/qwerty/github/datacon2025hack/step_04_hit_selection/docking/ligands/lig_628.pdb
REMARK  11 active torsions:
REMARK  status: ('A' for Active; 'I' for Inactive)
REMARK    1  A    between atoms: C1_1  and  C2_2
REMARK    2  A    between atoms: C2_2  and  C3_3
REMARK    3  A    between atoms: C2_2  and  C4_4
REMARK    4  A    between atoms: C2_2  and  O1_5
REMARK    5  A    between atoms: O1_5  and  C5_6
REMARK    6  A    between atoms: N1_8  and  C6_9
REMARK    7  A    between atoms: C9_12  and  N2_13
REMARK    8  A    between atoms: N3_16  and  C11_17
REMARK    9  A    between atoms: C11_17  and  C12_18
REMARK   10  A    between atoms: C12_18  and  C13_19
REMARK   11  A    between atoms: C12_18  and  N4_24
REMARK                            x       y       z     vdW  Elec       q    Type
REMARK                         _______ _______ _______ _____ _____    ______ ____
ROOT
ATOM      1  N2  UNL     1      22.438   4.559  24.495  0.00  0.00    -0.269 N 
ATOM      2  C10 UNL     1      21.453   4.990  23.544  0.00  0.00    +0.304 C 
ATOM      3  O3  UNL     1      20.230   5.003  23.854  0.00  0.00    -0.253 OA
ATOM      4  N3  UNL     1      21.873   5.458  22.255  0.00  0.00    -0.297 N 
ATOM      5  H13 UNL     1      23.434   4.814  24.309  0.00  0.00    +0.156 HD
ATOM      6  H14 UNL     1      22.867   5.316  21.978  0.00  0.00    +0.150 HD
ENDROOT
BRANCH   1  10
ATOM      7  C6  UNL     1      21.439   2.765  28.220  0.00  0.00    +0.037 A 
ATOM      8  C7  UNL     1      21.397   4.164  28.077  0.00  0.00    +0.025 A 
ATOM      9  C8  UNL     1      21.739   4.760  26.859  0.00  0.00    +0.025 A 
ATOM     10  C9  UNL     1      22.117   3.968  25.762  0.00  0.00    +0.035 A 
ATOM     11  C21 UNL     1      22.122   2.573  25.894  0.00  0.00    +0.025 A 
ATOM     12  C22 UNL     1      21.790   1.977  27.112  0.00  0.00    +0.025 A 
BRANCH   7  15
ATOM     13  C5  UNL     1      19.861   1.347  29.625  0.00  0.00    +0.405 C 
ATOM     14  O2  UNL     1      18.950   1.371  28.756  0.00  0.00    -0.226 OA
ATOM     15  N1  UNL     1      21.054   2.118  29.446  0.00  0.00    -0.251 N 
ATOM     16  H10 UNL     1      21.650   2.271  30.292  0.00  0.00    +0.158 HD
BRANCH  13  17
ATOM     17  O1  UNL     1      19.713   0.600  30.802  0.00  0.00    -0.444 OA
BRANCH  17  19
ATOM     18  C1  UNL     1      20.386   1.454  32.998  0.00  0.00    +0.055 C 
ATOM     19  C2  UNL     1      19.220   1.083  32.061  0.00  0.00    +0.107 C 
ATOM     20  C3  UNL     1      18.288   2.291  31.849  0.00  0.00    +0.055 C 
ATOM     21  C4  UNL     1      18.415  -0.060  32.701  0.00  0.00    +0.055 C 
ENDBRANCH  17  19
ENDBRANCH  13  17
ENDBRANCH   7  15
ENDBRANCH   1  10
BRANCH   4  22
ATOM     22  C11 UNL     1      21.061   6.362  21.444  0.00  0.00    +0.130 C 
BRANCH  22  23
ATOM     23  C12 UNL     1      21.816   7.683  21.211  0.00  0.00    +0.111 C 
BRANCH  23  24
ATOM     24  N4  UNL     1      20.993   8.605  20.381  0.00  0.00    -0.289 NA
ATOM     25  C17 UNL     1      19.535   8.538  20.598  0.00  0.00    +0.113 C 
ATOM     26  C18 UNL     1      19.061   9.598  21.597  0.00  0.00    +0.175 C 
ATOM     27  O4  UNL     1      19.467  10.884  21.189  0.00  0.00    -0.377 OA
ATOM     28  C19 UNL     1      20.877  10.959  21.206  0.00  0.00    +0.175 C 
ATOM     29  C20 UNL     1      21.490   9.983  20.189  0.00  0.00    +0.113 C 
ENDBRANCH  23  24
BRANCH  23  30
ATOM     30  C13 UNL     1      23.210   7.449  20.672  0.00  0.00    +0.008 A 
ATOM     31  C14 UNL     1      24.419   7.808  21.266  0.00  0.00    +0.013 A 
ATOM     32  C15 UNL     1      25.539   7.481  20.491  0.00  0.00    +0.008 A 
ATOM     33  C16 UNL     1      25.225   6.880  19.280  0.00  0.00    +0.045 A 
ATOM     34  S1  UNL     1      23.552   6.754  19.178  0.00  0.00    -0.100 S 
ENDBRANCH  23  30
ENDBRANCH  22  23
ENDBRANCH   4  22
TORSDOF 8
ENDMDL
MODEL 8
REMARK VINA RESULT:    -5.706     12.348     16.369
REMARK INTER + INTRA:          -9.295
REMARK INTER:                  -8.601
REMARK INTRA:                  -0.695
REMARK UNBOUND:                -0.920
REMARK  Name = /home/qwerty/github/datacon2025hack/step_04_hit_selection/docking/ligands/lig_628.pdb
REMARK  11 active torsions:
REMARK  status: ('A' for Active; 'I' for Inactive)
REMARK    1  A    between atoms: C1_1  and  C2_2
REMARK    2  A    between atoms: C2_2  and  C3_3
REMARK    3  A    between atoms: C2_2  and  C4_4
REMARK    4  A    between atoms: C2_2  and  O1_5
REMARK    5  A    between atoms: O1_5  and  C5_6
REMARK    6  A    between atoms: N1_8  and  C6_9
REMARK    7  A    between atoms: C9_12  and  N2_13
REMARK    8  A    between atoms: N3_16  and  C11_17
REMARK    9  A    between atoms: C11_17  and  C12_18
REMARK   10  A    between atoms: C12_18  and  C13_19
REMARK   11  A    between atoms: C12_18  and  N4_24
REMARK                            x       y       z     vdW  Elec       q    Type
REMARK                         _______ _______ _______ _____ _____    ______ ____
ROOT
ATOM      1  N2  UNL     1      21.733   6.969  34.662  0.00  0.00    -0.269 N 
ATOM      2  C10 UNL     1      21.237   8.151  34.017  0.00  0.00    +0.304 C 
ATOM      3  O3  UNL     1      20.641   8.070  32.908  0.00  0.00    -0.253 OA
ATOM      4  N3  UNL     1      21.377   9.422  34.668  0.00  0.00    -0.297 N 
ATOM      5  H13 UNL     1      21.969   7.034  35.678  0.00  0.00    +0.156 HD
ATOM      6  H14 UNL     1      21.983   9.480  35.513  0.00  0.00    +0.150 HD
ENDROOT
BRANCH   1  10
ATOM      7  C6  UNL     1      21.785   3.156  32.778  0.00  0.00    +0.037 A 
ATOM      8  C7  UNL     1      20.697   3.528  33.587  0.00  0.00    +0.025 A 
ATOM      9  C8  UNL     1      20.681   4.774  34.221  0.00  0.00    +0.025 A 
ATOM     10  C9  UNL     1      21.747   5.672  34.048  0.00  0.00    +0.035 A 
ATOM     11  C21 UNL     1      22.814   5.317  33.211  0.00  0.00    +0.025 A 
ATOM     12  C22 UNL     1      22.835   4.068  32.585  0.00  0.00    +0.025 A 
BRANCH   7  15
ATOM     13  C5  UNL     1      21.228   1.663  30.794  0.00  0.00    +0.405 C 
ATOM     14  O2  UNL     1      20.446   2.509  30.285  0.00  0.00    -0.226 OA
ATOM     15  N1  UNL     1      21.814   1.898  32.079  0.00  0.00    -0.251 N 
ATOM     16  H10 UNL     1      22.233   1.074  32.566  0.00  0.00    +0.158 HD
BRANCH  13  17
ATOM     17  O1  UNL     1      21.509   0.457  30.137  0.00  0.00    -0.444 OA
BRANCH  17  19
ATOM     18  C1  UNL     1      23.586   1.210  29.076  0.00  0.00    +0.055 C 
ATOM     19  C2  UNL     1      22.352   0.291  28.986  0.00  0.00    +0.107 C 
ATOM     20  C3  UNL     1      22.781  -1.181  28.838  0.00  0.00    +0.055 C 
ATOM     21  C4  UNL     1      21.522   0.694  27.756  0.00  0.00    +0.055 C 
ENDBRANCH  17  19
ENDBRANCH  13  17
ENDBRANCH   7  15
ENDBRANCH   1  10
BRANCH   4  22
ATOM     22  C11 UNL     1      20.500  10.554  34.377  0.00  0.00    +0.130 C 
BRANCH  22  23
ATOM     23  C12 UNL     1      19.556  10.808  35.566  0.00  0.00    +0.111 C 
BRANCH  23  24
ATOM     24  N4  UNL     1      19.050   9.516  36.106  0.00  0.00    -0.289 NA
ATOM     25  C17 UNL     1      19.139   9.352  37.570  0.00  0.00    +0.113 C 
ATOM     26  C18 UNL     1      17.829   9.737  38.264  0.00  0.00    +0.175 C 
ATOM     27  O4  UNL     1      16.747   9.014  37.725  0.00  0.00    -0.377 OA
ATOM     28  C19 UNL     1      16.572   9.372  36.370  0.00  0.00    +0.175 C 
ATOM     29  C20 UNL     1      17.800   8.976  35.534  0.00  0.00    +0.113 C 
ENDBRANCH  23  24
BRANCH  23  30
ATOM     30  C13 UNL     1      18.466  11.798  35.220  0.00  0.00    +0.008 A 
ATOM     31  C14 UNL     1      17.800  12.663  36.087  0.00  0.00    +0.013 A 
ATOM     32  C15 UNL     1      16.812  13.431  35.458  0.00  0.00    +0.008 A 
ATOM     33  C16 UNL     1      16.681  13.170  34.102  0.00  0.00    +0.045 A 
ATOM     34  S1  UNL     1      17.797  11.985  33.686  0.00  0.00    -0.100 S 
ENDBRANCH  23  30
ENDBRANCH  22  23
ENDBRANCH   4  22
TORSDOF 8
ENDMDL
MODEL 9
REMARK VINA RESULT:    -5.654      3.548      5.129
REMARK INTER + INTRA:          -9.219
REMARK INTER:                  -8.189
REMARK INTRA:                  -1.030
REMARK UNBOUND:                -0.920
REMARK  Name = /home/qwerty/github/datacon2025hack/step_04_hit_selection/docking/ligands/lig_628.pdb
REMARK  11 active torsions:
REMARK  status: ('A' for Active; 'I' for Inactive)
REMARK    1  A    between atoms: C1_1  and  C2_2
REMARK    2  A    between atoms: C2_2  and  C3_3
REMARK    3  A    between atoms: C2_2  and  C4_4
REMARK    4  A    between atoms: C2_2  and  O1_5
REMARK    5  A    between atoms: O1_5  and  C5_6
REMARK    6  A    between atoms: N1_8  and  C6_9
REMARK    7  A    between atoms: C9_12  and  N2_13
REMARK    8  A    between atoms: N3_16  and  C11_17
REMARK    9  A    between atoms: C11_17  and  C12_18
REMARK   10  A    between atoms: C12_18  and  C13_19
REMARK   11  A    between atoms: C12_18  and  N4_24
REMARK                            x       y       z     vdW  Elec       q    Type
REMARK                         _______ _______ _______ _____ _____    ______ ____
ROOT
ATOM      1  N2  UNL     1      16.620   8.433  19.663  0.00  0.00    -0.269 N 
ATOM      2  C10 UNL     1      15.963   8.117  20.899  0.00  0.00    +0.304 C 
ATOM      3  O3  UNL     1      16.025   8.912  21.877  0.00  0.00    -0.253 OA
ATOM      4  N3  UNL     1      15.189   6.913  20.999  0.00  0.00    -0.297 N 
ATOM      5  H13 UNL     1      16.329   7.903  18.811  0.00  0.00    +0.156 HD
ATOM      6  H14 UNL     1      15.259   6.215  20.229  0.00  0.00    +0.150 HD
ENDROOT
BRANCH   1  10
ATOM      7  C6  UNL     1      19.289  11.717  19.226  0.00  0.00    +0.037 A 
ATOM      8  C7  UNL     1      17.899  11.934  19.241  0.00  0.00    +0.025 A 
ATOM      9  C8  UNL     1      17.016  10.857  19.369  0.00  0.00    +0.025 A 
ATOM     10  C9  UNL     1      17.508   9.547  19.496  0.00  0.00    +0.035 A 
ATOM     11  C21 UNL     1      18.894   9.335  19.519  0.00  0.00    +0.025 A 
ATOM     12  C22 UNL     1      19.776  10.409  19.381  0.00  0.00    +0.025 A 
BRANCH   7  15
ATOM     13  C5  UNL     1      20.629  13.628  20.236  0.00  0.00    +0.405 C 
ATOM     14  O2  UNL     1      20.009  13.580  21.331  0.00  0.00    -0.226 OA
ATOM     15  N1  UNL     1      20.224  12.806  19.136  0.00  0.00    -0.251 N 
ATOM     16  H10 UNL     1      20.588  13.066  18.191  0.00  0.00    +0.158 HD
BRANCH  13  17
ATOM     17  O1  UNL     1      21.700  14.515  20.054  0.00  0.00    -0.444 OA
BRANCH  17  19
ATOM     18  C1  UNL     1      23.451  15.232  21.612  0.00  0.00    +0.055 C 
ATOM     19  C2  UNL     1      23.063  14.296  20.449  0.00  0.00    +0.107 C 
ATOM     20  C3  UNL     1      23.284  12.824  20.841  0.00  0.00    +0.055 C 
ATOM     21  C4  UNL     1      23.946  14.626  19.234  0.00  0.00    +0.055 C 
ENDBRANCH  17  19
ENDBRANCH  13  17
ENDBRANCH   7  15
ENDBRANCH   1  10
BRANCH   4  22
ATOM     22  C11 UNL     1      14.109   6.752  21.970  0.00  0.00    +0.130 C 
BRANCH  22  23
ATOM     23  C12 UNL     1      12.754   6.672  21.243  0.00  0.00    +0.111 C 
BRANCH  23  24
ATOM     24  N4  UNL     1      11.871   7.788  21.679  0.00  0.00    -0.289 NA
ATOM     25  C17 UNL     1      12.558   8.975  22.226  0.00  0.00    +0.113 C 
ATOM     26  C18 UNL     1      12.776  10.048  21.156  0.00  0.00    +0.175 C 
ATOM     27  O4  UNL     1      11.557  10.392  20.538  0.00  0.00    -0.377 OA
ATOM     28  C19 UNL     1      11.049   9.271  19.845  0.00  0.00    +0.175 C 
ATOM     29  C20 UNL     1      10.720   8.128  20.819  0.00  0.00    +0.113 C 
ENDBRANCH  23  24
BRANCH  23  30
ATOM     30  C13 UNL     1      12.124   5.303  21.372  0.00  0.00    +0.008 A 
ATOM     31  C14 UNL     1      11.377   4.811  22.442  0.00  0.00    +0.013 A 
ATOM     32  C15 UNL     1      10.963   3.485  22.268  0.00  0.00    +0.008 A 
ATOM     33  C16 UNL     1      11.388   2.918  21.075  0.00  0.00    +0.045 A 
ATOM     34  S1  UNL     1      12.278   4.070  20.236  0.00  0.00    -0.100 S 
ENDBRANCH  23  30
ENDBRANCH  22  23
ENDBRANCH   4  22
TORSDOF 8
ENDMDL
