MODEL 1
REMARK VINA RESULT:    -6.216      0.000      0.000
REMARK INTER + INTRA:          -7.293
REMARK INTER:                  -6.943
REMARK INTRA:                  -0.350
REMARK UNBOUND:                -0.350
REMARK  Name = /home/qwerty/github/datacon2025hack/step_04_hit_selection/docking/ligands/lig_352.pdb
REMARK  3 active torsions:
REMARK  status: ('A' for Active; 'I' for Inactive)
REMARK    1  A    between atoms: C1_1  and  C2_2
REMARK    2  A    between atoms: C4_4  and  N1_5
REMARK    3  A    between atoms: N2_8  and  C6_9
REMARK                            x       y       z     vdW  Elec       q    Type
REMARK                         _______ _______ _______ _____ _____    ______ ____
ROOT
ATOM      1  N1  UNL     1      11.097  14.356  32.642  0.00  0.00    -0.269 N 
ATOM      2  C5  UNL     1      11.009  13.478  31.510  0.00  0.00    +0.304 C 
ATOM      3  O1  UNL     1      11.753  12.462  31.430  0.00  0.00    -0.252 OA
ATOM      4  N2  UNL     1      10.098  13.783  30.446  0.00  0.00    -0.294 N 
ATOM      5  H5  UNL     1      10.684  15.312  32.546  0.00  0.00    +0.156 HD
ATOM      6  H6  UNL     1       9.480  14.620  30.547  0.00  0.00    +0.151 HD
ENDROOT
BRANCH   1  10
ATOM      7  C1  UNL     1      11.266  11.955  37.029  0.00  0.00    +0.044 C 
ATOM      8  C2  UNL     1      11.889  12.858  36.006  0.00  0.00    -0.038 A 
ATOM      9  C3  UNL     1      11.212  13.202  34.815  0.00  0.00    +0.027 A 
ATOM     10  C4  UNL     1      11.815  14.049  33.849  0.00  0.00    +0.037 A 
ATOM     11  C12 UNL     1      13.131  14.526  34.061  0.00  0.00    +0.053 A 
ATOM     12  C13 UNL     1      13.776  14.163  35.239  0.00  0.00    +0.094 A 
ATOM     13  N3  UNL     1      15.018  14.497  35.630  0.00  0.00    -0.174 NA
ATOM     14  N4  UNL     1      15.212  13.915  36.808  0.00  0.00    -0.284 N 
ATOM     15  C14 UNL     1      14.115  13.214  37.173  0.00  0.00    +0.113 A 
ATOM     16  C15 UNL     1      13.179  13.363  36.173  0.00  0.00    +0.023 A 
ATOM     17  H17 UNL     1      16.094  13.995  37.361  0.00  0.00    +0.188 HD
ENDBRANCH   1  10
BRANCH   4  18
ATOM     18  C6  UNL     1       9.979  12.928  29.260  0.00  0.00    +0.106 C 
ATOM     19  C7  UNL     1       9.341  13.689  28.092  0.00  0.00    +0.056 C 
ATOM     20  C8  UNL     1       8.070  12.859  27.877  0.00  0.00    +0.121 C 
ATOM     21  C9  UNL     1       8.427  11.536  27.189  0.00  0.00    +0.034 C 
ATOM     22  C10 UNL     1       9.053  10.776  28.355  0.00  0.00    +0.036 C 
ATOM     23  C11 UNL     1       8.928  11.822  29.470  0.00  0.00    +0.139 C 
ATOM     24  O2  UNL     1       7.724  12.462  29.170  0.00  0.00    -0.371 OA
ENDBRANCH   4  18
TORSDOF 2
ENDMDL
MODEL 2
REMARK VINA RESULT:    -6.152     15.688     18.124
REMARK INTER + INTRA:          -7.221
REMARK INTER:                  -6.871
REMARK INTRA:                  -0.350
REMARK UNBOUND:                -0.350
REMARK  Name = /home/qwerty/github/datacon2025hack/step_04_hit_selection/docking/ligands/lig_352.pdb
REMARK  3 active torsions:
REMARK  status: ('A' for Active; 'I' for Inactive)
REMARK    1  A    between atoms: C1_1  and  C2_2
REMARK    2  A    between atoms: C4_4  and  N1_5
REMARK    3  A    between atoms: N2_8  and  C6_9
REMARK                            x       y       z     vdW  Elec       q    Type
REMARK                         _______ _______ _______ _____ _____    ______ ____
ROOT
ATOM      1  N1  UNL     1      19.559  -0.233  25.146  0.00  0.00    -0.269 N 
ATOM      2  C5  UNL     1      19.798   0.637  26.262  0.00  0.00    +0.304 C 
ATOM      3  O1  UNL     1      18.904   1.438  26.651  0.00  0.00    -0.252 OA
ATOM      4  N2  UNL     1      21.077   0.623  26.911  0.00  0.00    -0.294 N 
ATOM      5  H5  UNL     1      20.390  -0.666  24.683  0.00  0.00    +0.156 HD
ATOM      6  H6  UNL     1      21.791  -0.064  26.580  0.00  0.00    +0.151 HD
ENDROOT
BRANCH   1  10
ATOM      7  C1  UNL     1      15.208  -2.705  25.156  0.00  0.00    +0.044 C 
ATOM      8  C2  UNL     1      16.125  -1.673  24.571  0.00  0.00    -0.038 A 
ATOM      9  C3  UNL     1      17.411  -1.438  25.108  0.00  0.00    +0.027 A 
ATOM     10  C4  UNL     1      18.267  -0.451  24.554  0.00  0.00    +0.037 A 
ATOM     11  C12 UNL     1      17.813   0.341  23.472  0.00  0.00    +0.053 A 
ATOM     12  C13 UNL     1      16.539   0.093  22.970  0.00  0.00    +0.094 A 
ATOM     13  N3  UNL     1      15.917   0.728  21.961  0.00  0.00    -0.174 NA
ATOM     14  N4  UNL     1      14.718   0.168  21.844  0.00  0.00    -0.284 N 
ATOM     15  C14 UNL     1      14.566  -0.812  22.763  0.00  0.00    +0.113 A 
ATOM     16  C15 UNL     1      15.729  -0.874  23.497  0.00  0.00    +0.023 A 
ATOM     17  H17 UNL     1      14.006   0.457  21.139  0.00  0.00    +0.188 HD
ENDBRANCH   1  10
BRANCH   4  18
ATOM     18  C6  UNL     1      21.380   1.501  28.045  0.00  0.00    +0.106 C 
ATOM     19  C7  UNL     1      22.893   1.648  28.241  0.00  0.00    +0.056 C 
ATOM     20  C8  UNL     1      23.053   1.051  29.645  0.00  0.00    +0.121 C 
ATOM     21  C9  UNL     1      22.535   2.044  30.691  0.00  0.00    +0.034 C 
ATOM     22  C10 UNL     1      21.030   1.889  30.501  0.00  0.00    +0.036 C 
ATOM     23  C11 UNL     1      20.994   0.842  29.383  0.00  0.00    +0.139 C 
ATOM     24  O2  UNL     1      22.097   0.034  29.671  0.00  0.00    -0.371 OA
ENDBRANCH   4  18
TORSDOF 2
ENDMDL
MODEL 3
REMARK VINA RESULT:    -6.126      7.184     11.148
REMARK INTER + INTRA:          -7.192
REMARK INTER:                  -6.977
REMARK INTRA:                  -0.215
REMARK UNBOUND:                -0.350
REMARK  Name = /home/qwerty/github/datacon2025hack/step_04_hit_selection/docking/ligands/lig_352.pdb
REMARK  3 active torsions:
REMARK  status: ('A' for Active; 'I' for Inactive)
REMARK    1  A    between atoms: C1_1  and  C2_2
REMARK    2  A    between atoms: C4_4  and  N1_5
REMARK    3  A    between atoms: N2_8  and  C6_9
REMARK                            x       y       z     vdW  Elec       q    Type
REMARK                         _______ _______ _______ _____ _____    ______ ____
ROOT
ATOM      1  N1  UNL     1      18.903  10.742  37.583  0.00  0.00    -0.269 N 
ATOM      2  C5  UNL     1      19.317   9.508  36.979  0.00  0.00    +0.304 C 
ATOM      3  O1  UNL     1      18.660   9.012  36.023  0.00  0.00    -0.252 OA
ATOM      4  N2  UNL     1      20.462   8.815  37.495  0.00  0.00    -0.294 N 
ATOM      5  H5  UNL     1      19.289  10.972  38.526  0.00  0.00    +0.156 HD
ATOM      6  H6  UNL     1      20.999   9.259  38.275  0.00  0.00    +0.151 HD
ENDROOT
BRANCH   1  10
ATOM      7  C1  UNL     1      17.670  14.236  34.219  0.00  0.00    +0.044 C 
ATOM      8  C2  UNL     1      17.310  13.336  35.364  0.00  0.00    -0.038 A 
ATOM      9  C3  UNL     1      18.262  12.473  35.953  0.00  0.00    +0.027 A 
ATOM     10  C4  UNL     1      17.907  11.618  37.029  0.00  0.00    +0.037 A 
ATOM     11  C12 UNL     1      16.571  11.598  37.495  0.00  0.00    +0.053 A 
ATOM     12  C13 UNL     1      15.654  12.452  36.890  0.00  0.00    +0.094 A 
ATOM     13  N3  UNL     1      14.346  12.584  37.173  0.00  0.00    -0.174 NA
ATOM     14  N4  UNL     1      13.870  13.501  36.337  0.00  0.00    -0.284 N 
ATOM     15  C14 UNL     1      14.853  13.952  35.525  0.00  0.00    +0.113 A 
ATOM     16  C15 UNL     1      16.009  13.287  35.868  0.00  0.00    +0.023 A 
ATOM     17  H17 UNL     1      12.876  13.814  36.320  0.00  0.00    +0.188 HD
ENDBRANCH   1  10
BRANCH   4  18
ATOM     18  C6  UNL     1      20.920   7.544  36.926  0.00  0.00    +0.106 C 
ATOM     19  C7  UNL     1      22.144   7.010  37.679  0.00  0.00    +0.056 C 
ATOM     20  C8  UNL     1      23.187   7.011  36.555  0.00  0.00    +0.121 C 
ATOM     21  C9  UNL     1      22.915   5.846  35.597  0.00  0.00    +0.034 C 
ATOM     22  C10 UNL     1      21.704   6.382  34.842  0.00  0.00    +0.036 C 
ATOM     23  C11 UNL     1      21.528   7.743  35.525  0.00  0.00    +0.139 C 
ATOM     24  O2  UNL     1      22.841   8.132  35.798  0.00  0.00    -0.371 OA
ENDBRANCH   4  18
TORSDOF 2
ENDMDL
MODEL 4
REMARK VINA RESULT:    -5.959      6.061     11.599
REMARK INTER + INTRA:          -7.006
REMARK INTER:                  -6.676
REMARK INTRA:                  -0.330
REMARK UNBOUND:                -0.350
REMARK  Name = /home/qwerty/github/datacon2025hack/step_04_hit_selection/docking/ligands/lig_352.pdb
REMARK  3 active torsions:
REMARK  status: ('A' for Active; 'I' for Inactive)
REMARK    1  A    between atoms: C1_1  and  C2_2
REMARK    2  A    between atoms: C4_4  and  N1_5
REMARK    3  A    between atoms: N2_8  and  C6_9
REMARK                            x       y       z     vdW  Elec       q    Type
REMARK                         _______ _______ _______ _____ _____    ______ ____
ROOT
ATOM      1  N1  UNL     1       7.779   9.929  24.528  0.00  0.00    -0.269 N 
ATOM      2  C5  UNL     1       8.607  10.365  25.616  0.00  0.00    +0.304 C 
ATOM      3  O1  UNL     1       9.820  10.024  25.673  0.00  0.00    -0.252 OA
ATOM      4  N2  UNL     1       8.037  11.159  26.666  0.00  0.00    -0.294 N 
ATOM      5  H5  UNL     1       6.743   9.988  24.654  0.00  0.00    +0.156 HD
ATOM      6  H6  UNL     1       7.035  11.443  26.583  0.00  0.00    +0.151 HD
ENDROOT
BRANCH   1  10
ATOM      7  C1  UNL     1      10.101  10.392  20.119  0.00  0.00    +0.044 C 
ATOM      8  C2  UNL     1       9.427   9.549  21.162  0.00  0.00    -0.038 A 
ATOM      9  C3  UNL     1       8.904  10.118  22.345  0.00  0.00    +0.027 A 
ATOM     10  C4  UNL     1       8.279   9.310  23.330  0.00  0.00    +0.037 A 
ATOM     11  C12 UNL     1       8.213   7.908  23.146  0.00  0.00    +0.053 A 
ATOM     12  C13 UNL     1       8.745   7.376  21.976  0.00  0.00    +0.094 A 
ATOM     13  N3  UNL     1       8.792   6.083  21.610  0.00  0.00    -0.174 NA
ATOM     14  N4  UNL     1       9.399   6.047  20.429  0.00  0.00    -0.284 N 
ATOM     15  C14 UNL     1       9.741   7.295  20.038  0.00  0.00    +0.113 A 
ATOM     16  C15 UNL     1       9.327   8.165  21.023  0.00  0.00    +0.023 A 
ATOM     17  H17 UNL     1       9.581   5.171  19.893  0.00  0.00    +0.188 HD
ENDBRANCH   1  10
BRANCH   4  18
ATOM     18  C6  UNL     1       8.834  11.619  27.808  0.00  0.00    +0.106 C 
ATOM     19  C7  UNL     1       7.993  11.654  29.089  0.00  0.00    +0.056 C 
ATOM     20  C8  UNL     1       8.053  13.150  29.423  0.00  0.00    +0.121 C 
ATOM     21  C9  UNL     1       9.436  13.498  29.984  0.00  0.00    +0.034 C 
ATOM     22  C10 UNL     1      10.269  13.472  28.707  0.00  0.00    +0.036 C 
ATOM     23  C11 UNL     1       9.193  13.110  27.677  0.00  0.00    +0.139 C 
ATOM     24  O2  UNL     1       8.057  13.758  28.166  0.00  0.00    -0.371 OA
ENDBRANCH   4  18
TORSDOF 2
ENDMDL
MODEL 5
REMARK VINA RESULT:    -5.831     13.164     14.461
REMARK INTER + INTRA:          -6.863
REMARK INTER:                  -6.514
REMARK INTRA:                  -0.349
REMARK UNBOUND:                -0.350
REMARK  Name = /home/qwerty/github/datacon2025hack/step_04_hit_selection/docking/ligands/lig_352.pdb
REMARK  3 active torsions:
REMARK  status: ('A' for Active; 'I' for Inactive)
REMARK    1  A    between atoms: C1_1  and  C2_2
REMARK    2  A    between atoms: C4_4  and  N1_5
REMARK    3  A    between atoms: N2_8  and  C6_9
REMARK                            x       y       z     vdW  Elec       q    Type
REMARK                         _______ _______ _______ _____ _____    ______ ____
ROOT
ATOM      1  N1  UNL     1      22.896   4.008  33.030  0.00  0.00    -0.269 N 
ATOM      2  C5  UNL     1      22.081   3.578  31.930  0.00  0.00    +0.304 C 
ATOM      3  O1  UNL     1      21.053   4.232  31.601  0.00  0.00    -0.252 OA
ATOM      4  N2  UNL     1      22.417   2.373  31.228  0.00  0.00    -0.294 N 
ATOM      5  H5  UNL     1      23.556   3.312  33.444  0.00  0.00    +0.156 HD
ATOM      6  H6  UNL     1      23.284   1.862  31.509  0.00  0.00    +0.151 HD
ENDROOT
BRANCH   1  10
ATOM      7  C1  UNL     1      23.816   8.927  32.959  0.00  0.00    +0.044 C 
ATOM      8  C2  UNL     1      23.233   7.713  33.622  0.00  0.00    -0.038 A 
ATOM      9  C3  UNL     1      23.342   6.430  33.039  0.00  0.00    +0.027 A 
ATOM     10  C4  UNL     1      22.778   5.291  33.669  0.00  0.00    +0.037 A 
ATOM     11  C12 UNL     1      22.060   5.443  34.879  0.00  0.00    +0.053 A 
ATOM     12  C13 UNL     1      21.962   6.720  35.424  0.00  0.00    +0.094 A 
ATOM     13  N3  UNL     1      21.325   7.084  36.551  0.00  0.00    -0.174 NA
ATOM     14  N4  UNL     1      21.484   8.398  36.667  0.00  0.00    -0.284 N 
ATOM     15  C14 UNL     1      22.209   8.877  35.631  0.00  0.00    +0.113 A 
ATOM     16  C15 UNL     1      22.526   7.809  34.821  0.00  0.00    +0.023 A 
ATOM     17  H17 UNL     1      21.094   8.966  37.451  0.00  0.00    +0.188 HD
ENDBRANCH   1  10
BRANCH   4  18
ATOM     18  C6  UNL     1      21.610   1.879  30.107  0.00  0.00    +0.106 C 
ATOM     19  C7  UNL     1      21.749   0.361  29.953  0.00  0.00    +0.056 C 
ATOM     20  C8  UNL     1      22.365   0.277  28.550  0.00  0.00    +0.121 C 
ATOM     21  C9  UNL     1      21.292   0.570  27.496  0.00  0.00    +0.034 C 
ATOM     22  C10 UNL     1      21.162   2.082  27.644  0.00  0.00    +0.036 C 
ATOM     23  C11 UNL     1      22.185   2.344  28.756  0.00  0.00    +0.139 C 
ATOM     24  O2  UNL     1      23.184   1.405  28.493  0.00  0.00    -0.371 OA
ENDBRANCH   4  18
TORSDOF 2
ENDMDL
MODEL 6
REMARK VINA RESULT:    -5.803     14.471     16.910
REMARK INTER + INTRA:          -6.831
REMARK INTER:                  -6.509
REMARK INTRA:                  -0.322
REMARK UNBOUND:                -0.350
REMARK  Name = /home/qwerty/github/datacon2025hack/step_04_hit_selection/docking/ligands/lig_352.pdb
REMARK  3 active torsions:
REMARK  status: ('A' for Active; 'I' for Inactive)
REMARK    1  A    between atoms: C1_1  and  C2_2
REMARK    2  A    between atoms: C4_4  and  N1_5
REMARK    3  A    between atoms: N2_8  and  C6_9
REMARK                            x       y       z     vdW  Elec       q    Type
REMARK                         _______ _______ _______ _____ _____    ______ ____
ROOT
ATOM      1  N1  UNL     1      12.373   0.937  21.629  0.00  0.00    -0.269 N 
ATOM      2  C5  UNL     1      13.583   0.917  22.400  0.00  0.00    +0.304 C 
ATOM      3  O1  UNL     1      14.041   1.982  22.899  0.00  0.00    -0.252 OA
ATOM      4  N2  UNL     1      14.296  -0.315  22.569  0.00  0.00    -0.294 N 
ATOM      5  H5  UNL     1      12.180   0.118  21.010  0.00  0.00    +0.156 HD
ATOM      6  H6  UNL     1      13.883  -1.185  22.162  0.00  0.00    +0.151 HD
ENDROOT
BRANCH   1  10
ATOM      7  C1  UNL     1       8.330   3.293  23.402  0.00  0.00    +0.044 C 
ATOM      8  C2  UNL     1       9.484   3.212  22.447  0.00  0.00    -0.038 A 
ATOM      9  C3  UNL     1      10.381   2.120  22.463  0.00  0.00    +0.027 A 
ATOM     10  C4  UNL     1      11.476   2.059  21.563  0.00  0.00    +0.037 A 
ATOM     11  C12 UNL     1      11.701   3.126  20.661  0.00  0.00    +0.053 A 
ATOM     12  C13 UNL     1      10.807   4.193  20.675  0.00  0.00    +0.094 A 
ATOM     13  N3  UNL     1      10.841   5.301  19.914  0.00  0.00    -0.174 NA
ATOM     14  N4  UNL     1       9.802   6.043  20.282  0.00  0.00    -0.284 N 
ATOM     15  C14 UNL     1       9.110   5.427  21.266  0.00  0.00    +0.113 A 
ATOM     16  C15 UNL     1       9.743   4.233  21.532  0.00  0.00    +0.023 A 
ATOM     17  H17 UNL     1       9.570   6.970  19.863  0.00  0.00    +0.188 HD
ENDBRANCH   1  10
BRANCH   4  18
ATOM     18  C6  UNL     1      15.544  -0.390  23.335  0.00  0.00    +0.106 C 
ATOM     19  C7  UNL     1      16.521  -1.388  22.703  0.00  0.00    +0.056 C 
ATOM     20  C8  UNL     1      16.657  -2.407  23.842  0.00  0.00    +0.121 C 
ATOM     21  C9  UNL     1      17.532  -1.823  24.956  0.00  0.00    +0.034 C 
ATOM     22  C10 UNL     1      16.555  -0.837  25.590  0.00  0.00    +0.036 C 
ATOM     23  C11 UNL     1      15.322  -1.056  24.706  0.00  0.00    +0.139 C 
ATOM     24  O2  UNL     1      15.383  -2.420  24.412  0.00  0.00    -0.371 OA
ENDBRANCH   4  18
TORSDOF 2
ENDMDL
MODEL 7
REMARK VINA RESULT:    -5.749      5.993     11.243
REMARK INTER + INTRA:          -6.772
REMARK INTER:                  -6.436
REMARK INTRA:                  -0.335
REMARK UNBOUND:                -0.350
REMARK  Name = /home/qwerty/github/datacon2025hack/step_04_hit_selection/docking/ligands/lig_352.pdb
REMARK  3 active torsions:
REMARK  status: ('A' for Active; 'I' for Inactive)
REMARK    1  A    between atoms: C1_1  and  C2_2
REMARK    2  A    between atoms: C4_4  and  N1_5
REMARK    3  A    between atoms: N2_8  and  C6_9
REMARK                            x       y       z     vdW  Elec       q    Type
REMARK                         _______ _______ _______ _____ _____    ______ ____
ROOT
ATOM      1  N1  UNL     1       8.158   9.868  24.609  0.00  0.00    -0.269 N 
ATOM      2  C5  UNL     1       8.852  10.283  25.794  0.00  0.00    +0.304 C 
ATOM      3  O1  UNL     1      10.050   9.937  25.989  0.00  0.00    -0.252 OA
ATOM      4  N2  UNL     1       8.164  11.063  26.782  0.00  0.00    -0.294 N 
ATOM      5  H5  UNL     1       7.115   9.929  24.613  0.00  0.00    +0.156 HD
ATOM      6  H6  UNL     1       7.179  11.352  26.586  0.00  0.00    +0.151 HD
ENDROOT
BRANCH   1  10
ATOM      7  C1  UNL     1       9.091   5.768  21.895  0.00  0.00    +0.044 C 
ATOM      8  C2  UNL     1       9.245   7.240  22.138  0.00  0.00    -0.038 A 
ATOM      9  C3  UNL     1       8.652   7.870  23.255  0.00  0.00    +0.027 A 
ATOM     10  C4  UNL     1       8.795   9.266  23.469  0.00  0.00    +0.037 A 
ATOM     11  C12 UNL     1       9.507  10.049  22.529  0.00  0.00    +0.053 A 
ATOM     12  C13 UNL     1      10.071   9.402  21.433  0.00  0.00    +0.094 A 
ATOM     13  N3  UNL     1      10.774   9.953  20.428  0.00  0.00    -0.174 NA
ATOM     14  N4  UNL     1      11.097   8.961  19.606  0.00  0.00    -0.284 N 
ATOM     15  C14 UNL     1      10.610   7.788  20.069  0.00  0.00    +0.113 A 
ATOM     16  C15 UNL     1       9.946   8.053  21.247  0.00  0.00    +0.023 A 
ATOM     17  H17 UNL     1      11.647   9.086  18.728  0.00  0.00    +0.188 HD
ENDBRANCH   1  10
BRANCH   4  18
ATOM     18  C6  UNL     1       8.821  11.502  28.018  0.00  0.00    +0.106 C 
ATOM     19  C7  UNL     1       7.792  11.964  29.055  0.00  0.00    +0.056 C 
ATOM     20  C8  UNL     1       8.201  13.433  29.220  0.00  0.00    +0.121 C 
ATOM     21  C9  UNL     1       9.491  13.521  30.044  0.00  0.00    +0.034 C 
ATOM     22  C10 UNL     1      10.515  13.069  29.007  0.00  0.00    +0.036 C 
ATOM     23  C11 UNL     1       9.600  12.812  27.804  0.00  0.00    +0.139 C 
ATOM     24  O2  UNL     1       8.617  13.795  27.938  0.00  0.00    -0.371 OA
ENDBRANCH   4  18
TORSDOF 2
ENDMDL
MODEL 8
REMARK VINA RESULT:    -5.702      8.811     11.926
REMARK INTER + INTRA:          -6.719
REMARK INTER:                  -6.372
REMARK INTRA:                  -0.346
REMARK UNBOUND:                -0.350
REMARK  Name = /home/qwerty/github/datacon2025hack/step_04_hit_selection/docking/ligands/lig_352.pdb
REMARK  3 active torsions:
REMARK  status: ('A' for Active; 'I' for Inactive)
REMARK    1  A    between atoms: C1_1  and  C2_2
REMARK    2  A    between atoms: C4_4  and  N1_5
REMARK    3  A    between atoms: N2_8  and  C6_9
REMARK                            x       y       z     vdW  Elec       q    Type
REMARK                         _______ _______ _______ _____ _____    ______ ____
ROOT
ATOM      1  N1  UNL     1      21.012  10.025  36.262  0.00  0.00    -0.269 N 
ATOM      2  C5  UNL     1      21.271   8.907  35.400  0.00  0.00    +0.304 C 
ATOM      3  O1  UNL     1      20.348   8.421  34.689  0.00  0.00    -0.252 OA
ATOM      4  N2  UNL     1      22.577   8.315  35.379  0.00  0.00    -0.294 N 
ATOM      5  H5  UNL     1      21.700  10.216  37.025  0.00  0.00    +0.156 HD
ATOM      6  H6  UNL     1      23.326   8.750  35.963  0.00  0.00    +0.151 HD
ENDROOT
BRANCH   1  10
ATOM      7  C1  UNL     1      16.351  10.840  37.891  0.00  0.00    +0.044 C 
ATOM      8  C2  UNL     1      17.521  11.214  37.030  0.00  0.00    -0.038 A 
ATOM      9  C3  UNL     1      18.711  10.451  37.027  0.00  0.00    +0.027 A 
ATOM     10  C4  UNL     1      19.815  10.820  36.217  0.00  0.00    +0.037 A 
ATOM     11  C12 UNL     1      19.744  11.993  35.429  0.00  0.00    +0.053 A 
ATOM     12  C13 UNL     1      18.564  12.730  35.458  0.00  0.00    +0.094 A 
ATOM     13  N3  UNL     1      18.291  13.868  34.797  0.00  0.00    -0.174 NA
ATOM     14  N4  UNL     1      17.055  14.217  35.140  0.00  0.00    -0.284 N 
ATOM     15  C14 UNL     1      16.538  13.320  36.010  0.00  0.00    +0.113 A 
ATOM     16  C15 UNL     1      17.496  12.355  36.226  0.00  0.00    +0.023 A 
ATOM     17  H17 UNL     1      16.568  15.067  34.782  0.00  0.00    +0.188 HD
ENDBRANCH   1  10
BRANCH   4  18
ATOM     18  C6  UNL     1      22.892   7.163  34.528  0.00  0.00    +0.106 C 
ATOM     19  C7  UNL     1      24.041   6.339  35.118  0.00  0.00    +0.056 C 
ATOM     20  C8  UNL     1      25.086   6.477  34.003  0.00  0.00    +0.121 C 
ATOM     21  C9  UNL     1      24.691   5.598  32.812  0.00  0.00    +0.034 C 
ATOM     22  C10 UNL     1      23.553   6.424  32.221  0.00  0.00    +0.036 C 
ATOM     23  C11 UNL     1      23.528   7.606  33.198  0.00  0.00    +0.139 C 
ATOM     24  O2  UNL     1      24.875   7.772  33.527  0.00  0.00    -0.371 OA
ENDBRANCH   4  18
TORSDOF 2
ENDMDL
MODEL 9
REMARK VINA RESULT:    -5.636      1.381      2.061
REMARK INTER + INTRA:          -6.645
REMARK INTER:                  -6.342
REMARK INTRA:                  -0.303
REMARK UNBOUND:                -0.350
REMARK  Name = /home/qwerty/github/datacon2025hack/step_04_hit_selection/docking/ligands/lig_352.pdb
REMARK  3 active torsions:
REMARK  status: ('A' for Active; 'I' for Inactive)
REMARK    1  A    between atoms: C1_1  and  C2_2
REMARK    2  A    between atoms: C4_4  and  N1_5
REMARK    3  A    between atoms: N2_8  and  C6_9
REMARK                            x       y       z     vdW  Elec       q    Type
REMARK                         _______ _______ _______ _____ _____    ______ ____
ROOT
ATOM      1  N1  UNL     1      11.584  14.020  32.554  0.00  0.00    -0.269 N 
ATOM      2  C5  UNL     1      11.287  13.219  31.401  0.00  0.00    +0.304 C 
ATOM      3  O1  UNL     1      11.831  12.091  31.248  0.00  0.00    -0.252 OA
ATOM      4  N2  UNL     1      10.397  13.725  30.397  0.00  0.00    -0.294 N 
ATOM      5  H5  UNL     1      11.347  15.036  32.511  0.00  0.00    +0.156 HD
ATOM      6  H6  UNL     1       9.946  14.654  30.558  0.00  0.00    +0.151 HD
ENDROOT
BRANCH   1  10
ATOM      7  C1  UNL     1      15.648  14.201  35.468  0.00  0.00    +0.044 C 
ATOM      8  C2  UNL     1      14.296  13.640  35.141  0.00  0.00    -0.038 A 
ATOM      9  C3  UNL     1      13.574  14.069  34.004  0.00  0.00    +0.027 A 
ATOM     10  C4  UNL     1      12.291  13.539  33.711  0.00  0.00    +0.037 A 
ATOM     11  C12 UNL     1      11.704  12.598  34.589  0.00  0.00    +0.053 A 
ATOM     12  C13 UNL     1      12.435  12.202  35.705  0.00  0.00    +0.094 A 
ATOM     13  N3  UNL     1      12.064  11.332  36.662  0.00  0.00    -0.174 NA
ATOM     14  N4  UNL     1      13.068  11.276  37.530  0.00  0.00    -0.284 N 
ATOM     15  C14 UNL     1      14.070  12.098  37.144  0.00  0.00    +0.113 A 
ATOM     16  C15 UNL     1      13.679  12.701  35.969  0.00  0.00    +0.023 A 
ATOM     17  H17 UNL     1      13.066  10.680  38.387  0.00  0.00    +0.188 HD
ENDBRANCH   1  10
BRANCH   4  18
ATOM     18  C6  UNL     1      10.070  12.956  29.192  0.00  0.00    +0.106 C 
ATOM     19  C7  UNL     1       9.597  13.875  28.061  0.00  0.00    +0.056 C 
ATOM     20  C8  UNL     1       8.169  13.353  27.854  0.00  0.00    +0.121 C 
ATOM     21  C9  UNL     1       8.213  12.007  27.123  0.00  0.00    +0.034 C 
ATOM     22  C10 UNL     1       8.675  11.091  28.253  0.00  0.00    +0.036 C 
ATOM     23  C11 UNL     1       8.805  12.102  29.397  0.00  0.00    +0.139 C 
ATOM     24  O2  UNL     1       7.768  13.002  29.144  0.00  0.00    -0.371 OA
ENDBRANCH   4  18
TORSDOF 2
ENDMDL
