MODEL 1
REMARK VINA RESULT:    -6.481      0.000      0.000
REMARK INTER + INTRA:          -7.741
REMARK INTER:                  -7.618
REMARK INTRA:                  -0.123
REMARK UNBOUND:                -0.123
REMARK  Name = /home/qwerty/github/datacon2025hack/step_04_hit_selection/docking/ligands/lig_432.pdb
REMARK  6 active torsions:
REMARK  status: ('A' for Active; 'I' for Inactive)
REMARK    1  A    between atoms: C1_1  and  C2_2
REMARK    2  A    between atoms: C2_2  and  C3_3
REMARK    3  A    between atoms: C2_2  and  C4_4
REMARK    4  A    between atoms: C8_10  and  N2_11
REMARK    5  A    between atoms: C9_12  and  C10_14
REMARK    6  A    between atoms: N6_22  and  C15_23
REMARK                            x       y       z     vdW  Elec       q    Type
REMARK                         _______ _______ _______ _____ _____    ______ ____
ROOT
ATOM      1  N2  UNL     1      21.186   3.674  33.475  0.00  0.00    -0.307 N 
ATOM      2  C9  UNL     1      22.260   4.613  33.644  0.00  0.00    +0.247 C 
ATOM      3  O2  UNL     1      23.270   4.549  32.892  0.00  0.00    -0.270 OA
ATOM      4  H15 UNL     1      20.254   3.899  33.891  0.00  0.00    +0.149 HD
ENDROOT
BRANCH   2   5
ATOM      5  C10 UNL     1      22.188   5.676  34.671  0.00  0.00    +0.069 A 
ATOM      6  C11 UNL     1      23.363   6.206  35.257  0.00  0.00    +0.035 A 
ATOM      7  C12 UNL     1      23.275   7.206  36.257  0.00  0.00    +0.114 A 
ATOM      8  N3  UNL     1      22.057   7.666  36.678  0.00  0.00    -0.235 NA
ATOM      9  C13 UNL     1      20.945   7.151  36.102  0.00  0.00    +0.179 A 
ATOM     10  C14 UNL     1      20.978   6.191  35.146  0.00  0.00    +0.144 A 
ATOM     11  N4  UNL     1      19.708   5.835  34.864  0.00  0.00    -0.127 NA
ATOM     12  N5  UNL     1      18.933   6.589  35.645  0.00  0.00    -0.063 NA
ATOM     13  N6  UNL     1      19.665   7.405  36.397  0.00  0.00    -0.230 N 
ATOM     14  C15 UNL     1      19.143   8.283  37.435  0.00  0.00    +0.176 C 
ENDBRANCH   2   5
BRANCH   1  21
ATOM     15  C4  UNL     1      22.012   1.674  29.057  0.00  0.00    +0.218 C 
ATOM     16  O1  UNL     1      21.761   2.625  28.268  0.00  0.00    -0.275 OA
ATOM     17  N1  UNL     1      21.352   1.627  30.332  0.00  0.00    -0.300 N 
ATOM     18  C5  UNL     1      20.323   0.612  30.582  0.00  0.00    +0.108 C 
ATOM     19  C6  UNL     1      20.297   0.237  32.066  0.00  0.00    +0.021 C 
ATOM     20  C7  UNL     1      20.182   1.487  32.946  0.00  0.00    +0.025 C 
ATOM     21  C8  UNL     1      21.327   2.470  32.648  0.00  0.00    +0.091 C 
ATOM     22  C16 UNL     1      21.332   2.841  31.156  0.00  0.00    +0.130 C 
BRANCH  15  24
ATOM     23  C1  UNL     1      22.498  -0.783  28.886  0.00  0.00    +0.017 C 
ATOM     24  C2  UNL     1      23.030   0.634  28.645  0.00  0.00    +0.069 C 
ATOM     25  C3  UNL     1      24.388   0.839  29.327  0.00  0.00    +0.017 C 
ENDBRANCH  15  24
ENDBRANCH   1  21
TORSDOF 3
ENDMDL
MODEL 2
REMARK VINA RESULT:    -6.349     14.779     15.865
REMARK INTER + INTRA:          -7.585
REMARK INTER:                  -6.910
REMARK INTRA:                  -0.675
REMARK UNBOUND:                -0.123
REMARK  Name = /home/qwerty/github/datacon2025hack/step_04_hit_selection/docking/ligands/lig_432.pdb
REMARK  6 active torsions:
REMARK  status: ('A' for Active; 'I' for Inactive)
REMARK    1  A    between atoms: C1_1  and  C2_2
REMARK    2  A    between atoms: C2_2  and  C3_3
REMARK    3  A    between atoms: C2_2  and  C4_4
REMARK    4  A    between atoms: C8_10  and  N2_11
REMARK    5  A    between atoms: C9_12  and  C10_14
REMARK    6  A    between atoms: N6_22  and  C15_23
REMARK                            x       y       z     vdW  Elec       q    Type
REMARK                         _______ _______ _______ _____ _____    ______ ____
ROOT
ATOM      1  N2  UNL     1       9.177  10.374  25.143  0.00  0.00    -0.307 N 
ATOM      2  C9  UNL     1       8.515  10.467  26.415  0.00  0.00    +0.247 C 
ATOM      3  O2  UNL     1       7.582   9.666  26.694  0.00  0.00    -0.270 OA
ATOM      4  H15 UNL     1      10.109  10.834  25.030  0.00  0.00    +0.149 HD
ENDROOT
BRANCH   2   5
ATOM      5  C10 UNL     1       8.928  11.474  27.418  0.00  0.00    +0.069 A 
ATOM      6  C11 UNL     1       8.016  11.955  28.389  0.00  0.00    +0.035 A 
ATOM      7  C12 UNL     1       8.422  12.938  29.326  0.00  0.00    +0.114 A 
ATOM      8  N3  UNL     1       9.693  13.443  29.301  0.00  0.00    -0.235 NA
ATOM      9  C13 UNL     1      10.552  12.967  28.368  0.00  0.00    +0.179 A 
ATOM     10  C14 UNL     1      10.210  12.031  27.449  0.00  0.00    +0.144 A 
ATOM     11  N4  UNL     1      11.257  11.857  26.617  0.00  0.00    -0.127 NA
ATOM     12  N5  UNL     1      12.213  12.680  27.052  0.00  0.00    -0.063 NA
ATOM     13  N6  UNL     1      11.809  13.355  28.124  0.00  0.00    -0.230 N 
ATOM     14  C15 UNL     1      12.564  14.411  28.782  0.00  0.00    +0.176 C 
ENDBRANCH   2   5
BRANCH   1  21
ATOM     15  C4  UNL     1       8.928   6.037  22.834  0.00  0.00    +0.218 C 
ATOM     16  O1  UNL     1       9.959   5.440  23.249  0.00  0.00    -0.275 OA
ATOM     17  N1  UNL     1       8.925   7.473  22.775  0.00  0.00    -0.300 N 
ATOM     18  C5  UNL     1       8.962   8.147  21.473  0.00  0.00    +0.108 C 
ATOM     19  C6  UNL     1       8.233   9.491  21.549  0.00  0.00    +0.021 C 
ATOM     20  C7  UNL     1       8.761  10.335  22.715  0.00  0.00    +0.025 C 
ATOM     21  C8  UNL     1       8.639   9.567  24.043  0.00  0.00    +0.091 C 
ATOM     22  C16 UNL     1       9.383   8.225  23.948  0.00  0.00    +0.130 C 
BRANCH  15  24
ATOM     23  C1  UNL     1       7.495   4.066  23.434  0.00  0.00    +0.017 C 
ATOM     24  C2  UNL     1       7.716   5.219  22.450  0.00  0.00    +0.069 C 
ATOM     25  C3  UNL     1       7.785   4.709  21.005  0.00  0.00    +0.017 C 
ENDBRANCH  15  24
ENDBRANCH   1  21
TORSDOF 3
ENDMDL
MODEL 3
REMARK VINA RESULT:    -6.348      6.830     11.343
REMARK INTER + INTRA:          -7.585
REMARK INTER:                  -7.248
REMARK INTRA:                  -0.336
REMARK UNBOUND:                -0.123
REMARK  Name = /home/qwerty/github/datacon2025hack/step_04_hit_selection/docking/ligands/lig_432.pdb
REMARK  6 active torsions:
REMARK  status: ('A' for Active; 'I' for Inactive)
REMARK    1  A    between atoms: C1_1  and  C2_2
REMARK    2  A    between atoms: C2_2  and  C3_3
REMARK    3  A    between atoms: C2_2  and  C4_4
REMARK    4  A    between atoms: C8_10  and  N2_11
REMARK    5  A    between atoms: C9_12  and  C10_14
REMARK    6  A    between atoms: N6_22  and  C15_23
REMARK                            x       y       z     vdW  Elec       q    Type
REMARK                         _______ _______ _______ _____ _____    ______ ____
ROOT
ATOM      1  N2  UNL     1      19.335   1.623  24.393  0.00  0.00    -0.307 N 
ATOM      2  C9  UNL     1      18.643   0.367  24.305  0.00  0.00    +0.247 C 
ATOM      3  O2  UNL     1      19.022  -0.606  25.012  0.00  0.00    -0.270 OA
ATOM      4  H15 UNL     1      18.860   2.482  24.036  0.00  0.00    +0.149 HD
ENDROOT
BRANCH   2   5
ATOM      5  C10 UNL     1      17.471   0.203  23.416  0.00  0.00    +0.069 A 
ATOM      6  C11 UNL     1      16.903  -1.073  23.185  0.00  0.00    +0.035 A 
ATOM      7  C12 UNL     1      15.796  -1.215  22.311  0.00  0.00    +0.114 A 
ATOM      8  N3  UNL     1      15.268  -0.127  21.672  0.00  0.00    -0.235 NA
ATOM      9  C13 UNL     1      15.822   1.086  21.909  0.00  0.00    +0.179 A 
ATOM     10  C14 UNL     1      16.882   1.271  22.732  0.00  0.00    +0.144 A 
ATOM     11  N4  UNL     1      17.243   2.570  22.667  0.00  0.00    -0.127 NA
ATOM     12  N5  UNL     1      16.391   3.144  21.816  0.00  0.00    -0.063 NA
ATOM     13  N6  UNL     1      15.511   2.262  21.353  0.00  0.00    -0.230 N 
ATOM     14  C15 UNL     1      14.514   2.532  20.328  0.00  0.00    +0.176 C 
ENDBRANCH   2   5
BRANCH   1  21
ATOM     15  C4  UNL     1      22.060   1.010  28.443  0.00  0.00    +0.218 C 
ATOM     16  O1  UNL     1      21.192   0.919  29.353  0.00  0.00    -0.275 OA
ATOM     17  N1  UNL     1      21.758   1.763  27.257  0.00  0.00    -0.300 N 
ATOM     18  C5  UNL     1      22.420   3.051  27.025  0.00  0.00    +0.108 C 
ATOM     19  C6  UNL     1      22.572   3.307  25.523  0.00  0.00    +0.021 C 
ATOM     20  C7  UNL     1      21.229   3.145  24.801  0.00  0.00    +0.025 C 
ATOM     21  C8  UNL     1      20.633   1.751  25.063  0.00  0.00    +0.091 C 
ATOM     22  C16 UNL     1      20.482   1.516  26.576  0.00  0.00    +0.130 C 
BRANCH  15  24
ATOM     23  C1  UNL     1      23.158  -1.195  28.927  0.00  0.00    +0.017 C 
ATOM     24  C2  UNL     1      23.378   0.289  28.617  0.00  0.00    +0.069 C 
ATOM     25  C3  UNL     1      24.274   0.949  29.672  0.00  0.00    +0.017 C 
ENDBRANCH  15  24
ENDBRANCH   1  21
TORSDOF 3
ENDMDL
MODEL 4
REMARK VINA RESULT:    -6.313     11.376     14.204
REMARK INTER + INTRA:          -7.543
REMARK INTER:                  -7.218
REMARK INTRA:                  -0.325
REMARK UNBOUND:                -0.123
REMARK  Name = /home/qwerty/github/datacon2025hack/step_04_hit_selection/docking/ligands/lig_432.pdb
REMARK  6 active torsions:
REMARK  status: ('A' for Active; 'I' for Inactive)
REMARK    1  A    between atoms: C1_1  and  C2_2
REMARK    2  A    between atoms: C2_2  and  C3_3
REMARK    3  A    between atoms: C2_2  and  C4_4
REMARK    4  A    between atoms: C8_10  and  N2_11
REMARK    5  A    between atoms: C9_12  and  C10_14
REMARK    6  A    between atoms: N6_22  and  C15_23
REMARK                            x       y       z     vdW  Elec       q    Type
REMARK                         _______ _______ _______ _____ _____    ______ ____
ROOT
ATOM      1  N2  UNL     1      12.832  13.928  31.789  0.00  0.00    -0.307 N 
ATOM      2  C9  UNL     1      12.451  14.067  33.167  0.00  0.00    +0.247 C 
ATOM      3  O2  UNL     1      11.234  14.204  33.469  0.00  0.00    -0.270 OA
ATOM      4  H15 UNL     1      13.776  13.537  31.568  0.00  0.00    +0.149 HD
ENDROOT
BRANCH   2   5
ATOM      5  C10 UNL     1      13.463  14.023  34.246  0.00  0.00    +0.069 A 
ATOM      6  C11 UNL     1      13.188  14.560  35.528  0.00  0.00    +0.035 A 
ATOM      7  C12 UNL     1      14.178  14.532  36.542  0.00  0.00    +0.114 A 
ATOM      8  N3  UNL     1      15.413  13.999  36.296  0.00  0.00    -0.235 NA
ATOM      9  C13 UNL     1      15.656  13.486  35.066  0.00  0.00    +0.179 A 
ATOM     10  C14 UNL     1      14.744  13.493  34.064  0.00  0.00    +0.144 A 
ATOM     11  N4  UNL     1      15.335  13.002  32.955  0.00  0.00    -0.127 NA
ATOM     12  N5  UNL     1      16.585  12.700  33.308  0.00  0.00    -0.063 NA
ATOM     13  N6  UNL     1      16.797  12.975  34.592  0.00  0.00    -0.230 N 
ATOM     14  C15 UNL     1      18.080  12.867  35.271  0.00  0.00    +0.176 C 
ENDBRANCH   2   5
BRANCH   1  21
ATOM     15  C4  UNL     1       8.983  12.526  29.065  0.00  0.00    +0.218 C 
ATOM     16  O1  UNL     1       8.940  11.281  29.261  0.00  0.00    -0.275 OA
ATOM     17  N1  UNL     1      10.242  13.210  29.168  0.00  0.00    -0.300 N 
ATOM     18  C5  UNL     1      10.892  13.724  27.958  0.00  0.00    +0.108 C 
ATOM     19  C6  UNL     1      11.720  14.969  28.287  0.00  0.00    +0.021 C 
ATOM     20  C7  UNL     1      12.675  14.700  29.455  0.00  0.00    +0.025 C 
ATOM     21  C8  UNL     1      11.902  14.211  30.692  0.00  0.00    +0.091 C 
ATOM     22  C16 UNL     1      11.084  12.956  30.342  0.00  0.00    +0.130 C 
BRANCH  15  24
ATOM     23  C1  UNL     1       7.827  14.103  27.491  0.00  0.00    +0.017 C 
ATOM     24  C2  UNL     1       7.696  13.262  28.765  0.00  0.00    +0.069 C 
ATOM     25  C3  UNL     1       7.219  14.117  29.946  0.00  0.00    +0.017 C 
ENDBRANCH  15  24
ENDBRANCH   1  21
TORSDOF 3
ENDMDL
MODEL 5
REMARK VINA RESULT:    -6.232      2.682      8.343
REMARK INTER + INTRA:          -7.448
REMARK INTER:                  -6.688
REMARK INTRA:                  -0.760
REMARK UNBOUND:                -0.123
REMARK  Name = /home/qwerty/github/datacon2025hack/step_04_hit_selection/docking/ligands/lig_432.pdb
REMARK  6 active torsions:
REMARK  status: ('A' for Active; 'I' for Inactive)
REMARK    1  A    between atoms: C1_1  and  C2_2
REMARK    2  A    between atoms: C2_2  and  C3_3
REMARK    3  A    between atoms: C2_2  and  C4_4
REMARK    4  A    between atoms: C8_10  and  N2_11
REMARK    5  A    between atoms: C9_12  and  C10_14
REMARK    6  A    between atoms: N6_22  and  C15_23
REMARK                            x       y       z     vdW  Elec       q    Type
REMARK                         _______ _______ _______ _____ _____    ______ ____
ROOT
ATOM      1  N2  UNL     1      21.884   4.929  30.998  0.00  0.00    -0.307 N 
ATOM      2  C9  UNL     1      22.149   3.521  31.110  0.00  0.00    +0.247 C 
ATOM      3  O2  UNL     1      22.600   3.054  32.191  0.00  0.00    -0.270 OA
ATOM      4  H15 UNL     1      21.260   5.260  30.228  0.00  0.00    +0.149 HD
ENDROOT
BRANCH   2   5
ATOM      5  C10 UNL     1      21.874   2.602  29.983  0.00  0.00    +0.069 A 
ATOM      6  C11 UNL     1      21.908   1.197  30.162  0.00  0.00    +0.035 A 
ATOM      7  C12 UNL     1      21.668   0.331  29.066  0.00  0.00    +0.114 A 
ATOM      8  N3  UNL     1      21.411   0.836  27.821  0.00  0.00    -0.235 NA
ATOM      9  C13 UNL     1      21.378   2.182  27.671  0.00  0.00    +0.179 A 
ATOM     10  C14 UNL     1      21.605   3.050  28.686  0.00  0.00    +0.144 A 
ATOM     11  N4  UNL     1      21.596   4.301  28.181  0.00  0.00    -0.127 NA
ATOM     12  N5  UNL     1      21.356   4.167  26.876  0.00  0.00    -0.063 NA
ATOM     13  N6  UNL     1      21.207   2.887  26.547  0.00  0.00    -0.230 N 
ATOM     14  C15 UNL     1      21.042   2.383  25.191  0.00  0.00    +0.176 C 
ENDBRANCH   2   5
BRANCH   1  21
ATOM     15  C4  UNL     1      21.182   7.317  35.242  0.00  0.00    +0.218 C 
ATOM     16  O1  UNL     1      19.937   7.213  35.418  0.00  0.00    -0.275 OA
ATOM     17  N1  UNL     1      21.705   7.299  33.903  0.00  0.00    -0.300 N 
ATOM     18  C5  UNL     1      22.246   8.530  33.318  0.00  0.00    +0.108 C 
ATOM     19  C6  UNL     1      23.354   8.199  32.314  0.00  0.00    +0.021 C 
ATOM     20  C7  UNL     1      22.873   7.166  31.289  0.00  0.00    +0.025 C 
ATOM     21  C8  UNL     1      22.369   5.893  31.990  0.00  0.00    +0.091 C 
ATOM     22  C16 UNL     1      21.252   6.246  32.987  0.00  0.00    +0.130 C 
BRANCH  15  24
ATOM     23  C1  UNL     1      23.337   6.552  36.276  0.00  0.00    +0.017 C 
ATOM     24  C2  UNL     1      22.085   7.418  36.451  0.00  0.00    +0.069 C 
ATOM     25  C3  UNL     1      21.356   7.082  37.758  0.00  0.00    +0.017 C 
ENDBRANCH  15  24
ENDBRANCH   1  21
TORSDOF 3
ENDMDL
MODEL 6
REMARK VINA RESULT:    -6.180      6.178      9.000
REMARK INTER + INTRA:          -7.386
REMARK INTER:                  -6.696
REMARK INTRA:                  -0.690
REMARK UNBOUND:                -0.123
REMARK  Name = /home/qwerty/github/datacon2025hack/step_04_hit_selection/docking/ligands/lig_432.pdb
REMARK  6 active torsions:
REMARK  status: ('A' for Active; 'I' for Inactive)
REMARK    1  A    between atoms: C1_1  and  C2_2
REMARK    2  A    between atoms: C2_2  and  C3_3
REMARK    3  A    between atoms: C2_2  and  C4_4
REMARK    4  A    between atoms: C8_10  and  N2_11
REMARK    5  A    between atoms: C9_12  and  C10_14
REMARK    6  A    between atoms: N6_22  and  C15_23
REMARK                            x       y       z     vdW  Elec       q    Type
REMARK                         _______ _______ _______ _____ _____    ______ ____
ROOT
ATOM      1  N2  UNL     1      18.737   0.527  26.131  0.00  0.00    -0.307 N 
ATOM      2  C9  UNL     1      20.035   1.124  26.282  0.00  0.00    +0.247 C 
ATOM      3  O2  UNL     1      20.657   1.533  25.264  0.00  0.00    -0.270 OA
ATOM      4  H15 UNL     1      18.119   0.454  26.971  0.00  0.00    +0.149 HD
ENDROOT
BRANCH   2   5
ATOM      5  C10 UNL     1      20.645   1.293  27.620  0.00  0.00    +0.069 A 
ATOM      6  C11 UNL     1      22.052   1.334  27.780  0.00  0.00    +0.035 A 
ATOM      7  C12 UNL     1      22.620   1.471  29.072  0.00  0.00    +0.114 A 
ATOM      8  N3  UNL     1      21.822   1.556  30.179  0.00  0.00    -0.235 NA
ATOM      9  C13 UNL     1      20.479   1.519  30.005  0.00  0.00    +0.179 A 
ATOM     10  C14 UNL     1      19.890   1.385  28.793  0.00  0.00    +0.144 A 
ATOM     11  N4  UNL     1      18.558   1.285  28.981  0.00  0.00    -0.127 NA
ATOM     12  N5  UNL     1      18.367   1.369  30.299  0.00  0.00    -0.063 NA
ATOM     13  N6  UNL     1      19.522   1.524  30.939  0.00  0.00    -0.230 N 
ATOM     14  C15 UNL     1      19.682   1.542  32.386  0.00  0.00    +0.176 C 
ENDBRANCH   2   5
BRANCH   1  21
ATOM     15  C4  UNL     1      15.860   1.499  22.261  0.00  0.00    +0.218 C 
ATOM     16  O1  UNL     1      15.060   2.361  22.716  0.00  0.00    -0.275 OA
ATOM     17  N1  UNL     1      16.446   0.542  23.158  0.00  0.00    -0.300 N 
ATOM     18  C5  UNL     1      16.027  -0.863  23.097  0.00  0.00    +0.108 C 
ATOM     19  C6  UNL     1      17.180  -1.780  23.515  0.00  0.00    +0.021 C 
ATOM     20  C7  UNL     1      17.760  -1.349  24.867  0.00  0.00    +0.025 C 
ATOM     21  C8  UNL     1      18.214   0.121  24.823  0.00  0.00    +0.091 C 
ATOM     22  C16 UNL     1      17.041   1.025  24.408  0.00  0.00    +0.130 C 
BRANCH  15  24
ATOM     23  C1  UNL     1      16.535   2.952  20.329  0.00  0.00    +0.017 C 
ATOM     24  C2  UNL     1      16.204   1.528  20.788  0.00  0.00    +0.069 C 
ATOM     25  C3  UNL     1      15.107   0.905  19.916  0.00  0.00    +0.017 C 
ENDBRANCH  15  24
ENDBRANCH   1  21
TORSDOF 3
ENDMDL
MODEL 7
REMARK VINA RESULT:    -6.142      7.292     10.645
REMARK INTER + INTRA:          -7.342
REMARK INTER:                  -6.616
REMARK INTRA:                  -0.726
REMARK UNBOUND:                -0.123
REMARK  Name = /home/qwerty/github/datacon2025hack/step_04_hit_selection/docking/ligands/lig_432.pdb
REMARK  6 active torsions:
REMARK  status: ('A' for Active; 'I' for Inactive)
REMARK    1  A    between atoms: C1_1  and  C2_2
REMARK    2  A    between atoms: C2_2  and  C3_3
REMARK    3  A    between atoms: C2_2  and  C4_4
REMARK    4  A    between atoms: C8_10  and  N2_11
REMARK    5  A    between atoms: C9_12  and  C10_14
REMARK    6  A    between atoms: N6_22  and  C15_23
REMARK                            x       y       z     vdW  Elec       q    Type
REMARK                         _______ _______ _______ _____ _____    ______ ____
ROOT
ATOM      1  N2  UNL     1      18.555   1.234  24.495  0.00  0.00    -0.307 N 
ATOM      2  C9  UNL     1      19.440   2.300  24.117  0.00  0.00    +0.247 C 
ATOM      3  O2  UNL     1      19.231   2.938  23.049  0.00  0.00    -0.270 OA
ATOM      4  H15 UNL     1      18.560   0.908  25.488  0.00  0.00    +0.149 HD
ENDROOT
BRANCH   2   5
ATOM      5  C10 UNL     1      20.582   2.684  24.978  0.00  0.00    +0.069 A 
ATOM      6  C11 UNL     1      21.372   3.821  24.678  0.00  0.00    +0.035 A 
ATOM      7  C12 UNL     1      22.477   4.159  25.498  0.00  0.00    +0.114 A 
ATOM      8  N3  UNL     1      22.803   3.391  26.582  0.00  0.00    -0.235 NA
ATOM      9  C13 UNL     1      22.033   2.310  26.854  0.00  0.00    +0.179 A 
ATOM     10  C14 UNL     1      20.970   1.944  26.099  0.00  0.00    +0.144 A 
ATOM     11  N4  UNL     1      20.490   0.780  26.583  0.00  0.00    -0.127 NA
ATOM     12  N5  UNL     1      21.263   0.470  27.625  0.00  0.00    -0.063 NA
ATOM     13  N6  UNL     1      22.200   1.394  27.815  0.00  0.00    -0.230 N 
ATOM     14  C15 UNL     1      23.273   1.311  28.795  0.00  0.00    +0.176 C 
ENDBRANCH   2   5
BRANCH   1  21
ATOM     15  C4  UNL     1      14.071   1.412  22.479  0.00  0.00    +0.218 C 
ATOM     16  O1  UNL     1      13.421   2.112  23.303  0.00  0.00    -0.275 OA
ATOM     17  N1  UNL     1      15.190   0.638  22.943  0.00  0.00    -0.300 N 
ATOM     18  C5  UNL     1      15.087  -0.824  23.005  0.00  0.00    +0.108 C 
ATOM     19  C6  UNL     1      16.460  -1.463  22.784  0.00  0.00    +0.021 C 
ATOM     20  C7  UNL     1      17.504  -0.860  23.730  0.00  0.00    +0.025 C 
ATOM     21  C8  UNL     1      17.575   0.668  23.562  0.00  0.00    +0.091 C 
ATOM     22  C16 UNL     1      16.189   1.291  23.795  0.00  0.00    +0.130 C 
BRANCH  15  24
ATOM     23  C1  UNL     1      14.904   1.400  20.111  0.00  0.00    +0.017 C 
ATOM     24  C2  UNL     1      13.671   1.442  21.021  0.00  0.00    +0.069 C 
ATOM     25  C3  UNL     1      12.773   2.639  20.682  0.00  0.00    +0.017 C 
ENDBRANCH  15  24
ENDBRANCH   1  21
TORSDOF 3
ENDMDL
MODEL 8
REMARK VINA RESULT:    -6.139      2.089      8.210
REMARK INTER + INTRA:          -7.339
REMARK INTER:                  -6.614
REMARK INTRA:                  -0.725
REMARK UNBOUND:                -0.123
REMARK  Name = /home/qwerty/github/datacon2025hack/step_04_hit_selection/docking/ligands/lig_432.pdb
REMARK  6 active torsions:
REMARK  status: ('A' for Active; 'I' for Inactive)
REMARK    1  A    between atoms: C1_1  and  C2_2
REMARK    2  A    between atoms: C2_2  and  C3_3
REMARK    3  A    between atoms: C2_2  and  C4_4
REMARK    4  A    between atoms: C8_10  and  N2_11
REMARK    5  A    between atoms: C9_12  and  C10_14
REMARK    6  A    between atoms: N6_22  and  C15_23
REMARK                            x       y       z     vdW  Elec       q    Type
REMARK                         _______ _______ _______ _____ _____    ______ ____
ROOT
ATOM      1  N2  UNL     1      21.580   4.533  32.861  0.00  0.00    -0.307 N 
ATOM      2  C9  UNL     1      20.929   3.257  32.761  0.00  0.00    +0.247 C 
ATOM      3  O2  UNL     1      20.263   2.816  33.737  0.00  0.00    -0.270 OA
ATOM      4  H15 UNL     1      21.880   5.012  31.982  0.00  0.00    +0.149 HD
ENDROOT
BRANCH   2   5
ATOM      5  C10 UNL     1      21.002   2.459  31.516  0.00  0.00    +0.069 A 
ATOM      6  C11 UNL     1      20.916   1.045  31.549  0.00  0.00    +0.035 A 
ATOM      7  C12 UNL     1      21.014   0.296  30.349  0.00  0.00    +0.114 A 
ATOM      8  N3  UNL     1      21.202   0.923  29.149  0.00  0.00    -0.235 NA
ATOM      9  C13 UNL     1      21.276   2.276  29.137  0.00  0.00    +0.179 A 
ATOM     10  C14 UNL     1      21.193   3.035  30.256  0.00  0.00    +0.144 A 
ATOM     11  N4  UNL     1      21.404   4.321  29.909  0.00  0.00    -0.127 NA
ATOM     12  N5  UNL     1      21.601   4.317  28.590  0.00  0.00    -0.063 NA
ATOM     13  N6  UNL     1      21.515   3.084  28.099  0.00  0.00    -0.230 N 
ATOM     14  C15 UNL     1      21.784   2.711  26.717  0.00  0.00    +0.176 C 
ENDBRANCH   2   5
BRANCH   1  21
ATOM     15  C4  UNL     1      19.988   7.955  36.016  0.00  0.00    +0.218 C 
ATOM     16  O1  UNL     1      19.279   8.701  35.286  0.00  0.00    -0.275 OA
ATOM     17  N1  UNL     1      21.077   7.226  35.427  0.00  0.00    -0.300 N 
ATOM     18  C5  UNL     1      22.459   7.617  35.725  0.00  0.00    +0.108 C 
ATOM     19  C6  UNL     1      23.380   6.396  35.668  0.00  0.00    +0.021 C 
ATOM     20  C7  UNL     1      23.205   5.638  34.347  0.00  0.00    +0.025 C 
ATOM     21  C8  UNL     1      21.737   5.228  34.143  0.00  0.00    +0.091 C 
ATOM     22  C16 UNL     1      20.829   6.468  34.196  0.00  0.00    +0.130 C 
BRANCH  15  24
ATOM     23  C1  UNL     1      19.197   6.399  37.820  0.00  0.00    +0.017 C 
ATOM     24  C2  UNL     1      19.640   7.826  37.482  0.00  0.00    +0.069 C 
ATOM     25  C3  UNL     1      18.592   8.852  37.931  0.00  0.00    +0.017 C 
ENDBRANCH  15  24
ENDBRANCH   1  21
TORSDOF 3
ENDMDL
MODEL 9
REMARK VINA RESULT:    -5.928     11.211     14.694
REMARK INTER + INTRA:          -7.091
REMARK INTER:                  -6.341
REMARK INTRA:                  -0.750
REMARK UNBOUND:                -0.123
REMARK  Name = /home/qwerty/github/datacon2025hack/step_04_hit_selection/docking/ligands/lig_432.pdb
REMARK  6 active torsions:
REMARK  status: ('A' for Active; 'I' for Inactive)
REMARK    1  A    between atoms: C1_1  and  C2_2
REMARK    2  A    between atoms: C2_2  and  C3_3
REMARK    3  A    between atoms: C2_2  and  C4_4
REMARK    4  A    between atoms: C8_10  and  N2_11
REMARK    5  A    between atoms: C9_12  and  C10_14
REMARK    6  A    between atoms: N6_22  and  C15_23
REMARK                            x       y       z     vdW  Elec       q    Type
REMARK                         _______ _______ _______ _____ _____    ______ ____
ROOT
ATOM      1  N2  UNL     1      11.410  12.441  32.185  0.00  0.00    -0.307 N 
ATOM      2  C9  UNL     1      11.245  13.195  30.974  0.00  0.00    +0.247 C 
ATOM      3  O2  UNL     1      11.991  14.187  30.749  0.00  0.00    -0.270 OA
ATOM      4  H15 UNL     1      11.001  11.481  32.236  0.00  0.00    +0.149 HD
ENDROOT
BRANCH   2   5
ATOM      5  C10 UNL     1      10.230  12.810  29.968  0.00  0.00    +0.069 A 
ATOM      6  C11 UNL     1       9.767  13.741  29.005  0.00  0.00    +0.035 A 
ATOM      7  C12 UNL     1       8.776  13.362  28.065  0.00  0.00    +0.114 A 
ATOM      8  N3  UNL     1       8.246  12.101  28.079  0.00  0.00    -0.235 NA
ATOM      9  C13 UNL     1       8.705  11.224  29.004  0.00  0.00    +0.179 A 
ATOM     10  C14 UNL     1       9.648  11.540  29.925  0.00  0.00    +0.144 A 
ATOM     11  N4  UNL     1       9.802  10.483  30.749  0.00  0.00    -0.127 NA
ATOM     12  N5  UNL     1       8.960   9.548  30.306  0.00  0.00    -0.063 NA
ATOM     13  N6  UNL     1       8.292   9.974  29.238  0.00  0.00    -0.230 N 
ATOM     14  C15 UNL     1       7.221   9.246  28.574  0.00  0.00    +0.176 C 
ENDBRANCH   2   5
BRANCH   1  21
ATOM     15  C4  UNL     1      15.111  11.703  35.341  0.00  0.00    +0.218 C 
ATOM     16  O1  UNL     1      15.261  10.451  35.309  0.00  0.00    -0.275 OA
ATOM     17  N1  UNL     1      13.818  12.263  35.059  0.00  0.00    -0.300 N 
ATOM     18  C5  UNL     1      13.033  12.864  36.143  0.00  0.00    +0.108 C 
ATOM     19  C6  UNL     1      12.147  13.987  35.599  0.00  0.00    +0.021 C 
ATOM     20  C7  UNL     1      11.315  13.500  34.408  0.00  0.00    +0.025 C 
ATOM     21  C8  UNL     1      12.222  12.931  33.303  0.00  0.00    +0.091 C 
ATOM     22  C16 UNL     1      13.098  11.800  33.868  0.00  0.00    +0.130 C 
BRANCH  15  24
ATOM     23  C1  UNL     1      16.452  12.820  37.144  0.00  0.00    +0.017 C 
ATOM     24  C2  UNL     1      16.311  12.574  35.639  0.00  0.00    +0.069 C 
ATOM     25  C3  UNL     1      16.285  13.896  34.861  0.00  0.00    +0.017 C 
ENDBRANCH  15  24
ENDBRANCH   1  21
TORSDOF 3
ENDMDL
