REMARK  Name = /home/qwerty/github/datacon2025hack/step_04_hit_selection/docking/ligands/lig_176.pdb
REMARK  8 active torsions:
REMARK  status: ('A' for Active; 'I' for Inactive)
REMARK    1  A    between atoms: C1_1  and  C2_2
REMARK    2  A    between atoms: C2_2  and  C3_3
REMARK    3  A    between atoms: C2_2  and  C4_4
REMARK    4  A    between atoms: C5_7  and  C6_8
REMARK    5  A    between atoms: C6_8  and  N3_9
REMARK    6  A    between atoms: N3_9  and  C7_10
REMARK    7  A    between atoms: C10_14  and  C11_16
REMARK    8  A    between atoms: N7_19  and  C12_20
REMARK                            x       y       z     vdW  Elec       q    Type
REMARK                         _______ _______ _______ _____ _____    ______ ____
ROOT
ATOM      1  C7  UNL     1       0.413   0.995   1.058  0.00  0.00    +0.073 C 
ATOM      2  C8  UNL     1       0.882  -0.444   1.299  0.00  0.00    +0.039 C 
ATOM      3  C9  UNL     1       2.395  -0.417   1.130  0.00  0.00    +0.110 C 
ATOM      4  N4  UNL     1       2.684   0.793   0.377  0.00  0.00    -0.293 N 
ATOM      5  C10 UNL     1       3.961   1.130  -0.200  0.00  0.00    +0.287 C 
ATOM      6  O1  UNL     1       4.039   2.110  -0.989  0.00  0.00    -0.266 OA
ATOM      7  C13 UNL     1       1.502   1.615   0.179  0.00  0.00    +0.126 C 
ENDROOT
BRANCH   5   8
ATOM      8  C11 UNL     1       5.196   0.377   0.098  0.00  0.00    +0.259 A 
ATOM      9  N5  UNL     1       5.301  -0.627   0.994  0.00  0.00    -0.103 NA
ATOM     10  N6  UNL     1       6.572  -0.994   0.953  0.00  0.00    -0.046 NA
ATOM     11  N7  UNL     1       7.201  -0.249   0.062  0.00  0.00    -0.166 N 
ATOM     12  C12 UNL     1       8.628  -0.322  -0.207  0.00  0.00    +0.199 C 
ATOM     13  N8  UNL     1       6.384   0.634  -0.485  0.00  0.00    -0.126 NA
ENDBRANCH   5   8
BRANCH   1  14
ATOM     14  N3  UNL     1      -0.900   1.040   0.392  0.00  0.00    -0.305 NA
ATOM     15  H11 UNL     1      -1.063   2.025   0.074  0.00  0.00    +0.123 HD
BRANCH  14  16
ATOM     16  C6  UNL     1      -1.980   0.707   1.328  0.00  0.00    +0.157 C 
BRANCH  16  20
ATOM     17  C4  UNL     1      -4.900  -0.026  -0.556  0.00  0.00    +0.154 A 
ATOM     18  N1  UNL     1      -5.083   1.298  -0.381  0.00  0.00    -0.157 NA
ATOM     19  N2  UNL     1      -4.055   1.710   0.337  0.00  0.00    -0.261 N 
ATOM     20  C5  UNL     1      -3.280   0.643   0.592  0.00  0.00    +0.139 A 
ATOM     21  N9  UNL     1      -3.773  -0.481   0.037  0.00  0.00    -0.215 NA
ATOM     22  H8  UNL     1      -3.890   2.697   0.632  0.00  0.00    +0.190 HD
BRANCH  17  24
ATOM     23  C1  UNL     1      -5.142  -1.671  -2.416  0.00  0.00    +0.015 C 
ATOM     24  C2  UNL     1      -5.864  -0.902  -1.305  0.00  0.00    +0.053 C 
ATOM     25  C3  UNL     1      -6.566  -1.861  -0.339  0.00  0.00    +0.015 C 
ENDBRANCH  17  24
ENDBRANCH  16  20
ENDBRANCH  14  16
ENDBRANCH   1  14
TORSDOF 5
