REMARK  Name = /home/qwerty/github/datacon2025hack/step_04_hit_selection/docking/ligands/lig_153.pdb
REMARK  3 active torsions:
REMARK  status: ('A' for Active; 'I' for Inactive)
REMARK    1  A    between atoms: C1_2  and  C2_3
REMARK    2  A    between atoms: C16_19  and  O2_20
REMARK    3  A    between atoms: C17_21  and  O3_22
REMARK                            x       y       z     vdW  Elec       q    Type
REMARK                         _______ _______ _______ _____ _____    ______ ____
ROOT
ATOM      1  C2  UNL     1      -0.399   1.434   1.653  0.00  0.00    +0.038 A 
ATOM      2  C3  UNL     1       0.456   2.045   2.609  0.00  0.00    +0.015 A 
ATOM      3  C4  UNL     1       1.854   2.005   2.456  0.00  0.00    +0.027 A 
ATOM      4  C5  UNL     1       2.370   1.360   1.335  0.00  0.00    +0.047 A 
ATOM      5  N1  UNL     1       3.668   1.208   1.005  0.00  0.00    -0.358 N 
ATOM      6  C6  UNL     1       3.661   0.513  -0.155  0.00  0.00    +0.020 A 
ATOM      7  C7  UNL     1       2.367   0.256  -0.575  0.00  0.00    -0.019 A 
ATOM      8  C8  UNL     1       1.547   0.783   0.398  0.00  0.00    +0.004 A 
ATOM      9  C9  UNL     1       0.161   0.801   0.519  0.00  0.00    +0.023 A 
ATOM     10  C10 UNL     1       2.015  -0.552  -1.787  0.00  0.00    +0.037 C 
ATOM     11  C11 UNL     1       3.220  -0.628  -2.745  0.00  0.00    +0.005 C 
ATOM     12  C12 UNL     1       4.532  -0.941  -1.993  0.00  0.00    +0.006 C 
ATOM     13  C13 UNL     1       4.873   0.152  -0.959  0.00  0.00    +0.053 C 
ATOM     14  H3  UNL     1       4.502   1.557   1.530  0.00  0.00    +0.166 HD
ENDROOT
BRANCH   1  16
ATOM     15  O1  UNL     1      -2.381   2.457   2.454  0.00  0.00    -0.270 OA
ATOM     16  C1  UNL     1      -1.869   1.492   1.823  0.00  0.00    +0.247 C 
ATOM     17  N2  UNL     1      -2.725   0.482   1.260  0.00  0.00    -0.295 N 
ATOM     18  C14 UNL     1      -4.007   0.887   0.668  0.00  0.00    +0.111 C 
ATOM     19  C15 UNL     1      -4.728  -0.303   0.017  0.00  0.00    +0.053 C 
ATOM     20  C16 UNL     1      -3.730  -1.197  -0.740  0.00  0.00    +0.146 C 
ATOM     21  C17 UNL     1      -2.635  -1.769   0.206  0.00  0.00    +0.160 C 
ATOM     22  C18 UNL     1      -2.452  -0.942   1.496  0.00  0.00    +0.142 C 
BRANCH  20  23
ATOM     23  O2  UNL     1      -3.117  -0.459  -1.770  0.00  0.00    -0.389 OA
ATOM     24  H18 UNL     1      -3.793  -0.353  -2.491  0.00  0.00    +0.210 HD
ENDBRANCH  20  23
BRANCH  21  25
ATOM     25  O3  UNL     1      -2.948  -3.091   0.563  0.00  0.00    -0.388 OA
ATOM     26  H20 UNL     1      -2.721  -3.664  -0.215  0.00  0.00    +0.210 HD
ENDBRANCH  21  25
ENDBRANCH   1  16
TORSDOF 3
