MODEL 1
REMARK VINA RESULT:    -6.181      0.000      0.000
REMARK INTER + INTRA:          -7.052
REMARK INTER:                  -6.904
REMARK INTRA:                  -0.148
REMARK UNBOUND:                -0.148
REMARK  Name = /home/qwerty/github/datacon2025hack/step_04_hit_selection/docking/ligands/lig_110.pdb
REMARK  2 active torsions:
REMARK  status: ('A' for Active; 'I' for Inactive)
REMARK    1  A    between atoms: C1_2  and  C10_14
REMARK    2  A    between atoms: N1_3  and  C2_4
REMARK                            x       y       z     vdW  Elec       q    Type
REMARK                         _______ _______ _______ _____ _____    ______ ____
ROOT
ATOM      1  O1  UNL     1      13.740   2.474  22.048  0.00  0.00    -0.270 OA
ATOM      2  C1  UNL     1      13.468   1.248  22.166  0.00  0.00    +0.248 C 
ATOM      3  N1  UNL     1      12.108   0.804  22.025  0.00  0.00    -0.280 N 
ATOM      4  H1  UNL     1      11.942  -0.161  21.659  0.00  0.00    +0.155 HD
ENDROOT
BRANCH   3   5
ATOM      5  C2  UNL     1      10.966   1.658  22.210  0.00  0.00    +0.052 A 
ATOM      6  C3  UNL     1      10.137   1.476  23.326  0.00  0.00    +0.134 A 
ATOM      7  N2  UNL     1       9.071   2.294  23.532  0.00  0.00    -0.258 NA
ATOM      8  C4  UNL     1       8.776   3.316  22.685  0.00  0.00    +0.049 A 
ATOM      9  C5  UNL     1       9.572   3.535  21.550  0.00  0.00    +0.001 A 
ATOM     10  C6  UNL     1      10.685   2.716  21.329  0.00  0.00    +0.032 A 
ATOM     11  C7  UNL     1       9.282   4.711  20.649  0.00  0.00    +0.196 C 
ATOM     12  O2  UNL     1       7.929   5.125  20.741  0.00  0.00    -0.375 OA
ATOM     13  C8  UNL     1       7.610   5.440  22.084  0.00  0.00    +0.166 C 
ATOM     14  C9  UNL     1       7.563   4.164  22.934  0.00  0.00    +0.084 C 
ENDBRANCH   3   5
BRANCH   2  15
ATOM     15  C10 UNL     1      14.564   0.277  22.399  0.00  0.00    +0.041 A 
ATOM     16  C11 UNL     1      15.608   0.113  21.449  0.00  0.00    +0.017 A 
ATOM     17  C12 UNL     1      16.643  -0.814  21.671  0.00  0.00    +0.050 A 
ATOM     18  C13 UNL     1      16.605  -1.563  22.841  0.00  0.00    +0.166 A 
ATOM     19  C14 UNL     1      15.610  -1.422  23.750  0.00  0.00    +0.167 A 
ATOM     20  C15 UNL     1      14.567  -0.518  23.572  0.00  0.00    +0.062 A 
ATOM     21  O3  UNL     1      15.824  -2.289  24.805  0.00  0.00    -0.453 OA
ATOM     22  C16 UNL     1      17.030  -3.020  24.540  0.00  0.00    +0.466 C 
ATOM     23  O4  UNL     1      17.495  -2.525  23.277  0.00  0.00    -0.453 OA
ENDBRANCH   2  15
TORSDOF 2
ENDMDL
MODEL 2
REMARK VINA RESULT:    -6.134      1.553      8.614
REMARK INTER + INTRA:          -7.000
REMARK INTER:                  -6.754
REMARK INTRA:                  -0.246
REMARK UNBOUND:                -0.148
REMARK  Name = /home/qwerty/github/datacon2025hack/step_04_hit_selection/docking/ligands/lig_110.pdb
REMARK  2 active torsions:
REMARK  status: ('A' for Active; 'I' for Inactive)
REMARK    1  A    between atoms: C1_2  and  C10_14
REMARK    2  A    between atoms: N1_3  and  C2_4
REMARK                            x       y       z     vdW  Elec       q    Type
REMARK                         _______ _______ _______ _____ _____    ______ ____
ROOT
ATOM      1  O1  UNL     1      12.699   3.420  23.034  0.00  0.00    -0.270 OA
ATOM      2  C1  UNL     1      12.003   3.132  22.022  0.00  0.00    +0.248 C 
ATOM      3  N1  UNL     1      12.176   1.858  21.378  0.00  0.00    -0.280 N 
ATOM      4  H1  UNL     1      11.351   1.436  20.895  0.00  0.00    +0.155 HD
ENDROOT
BRANCH   3   5
ATOM      5  C2  UNL     1      13.369   1.062  21.490  0.00  0.00    +0.052 A 
ATOM      6  C3  UNL     1      14.337   1.118  20.477  0.00  0.00    +0.134 A 
ATOM      7  N2  UNL     1      15.484   0.395  20.581  0.00  0.00    -0.258 NA
ATOM      8  C4  UNL     1      15.743  -0.387  21.663  0.00  0.00    +0.049 A 
ATOM      9  C5  UNL     1      14.802  -0.482  22.699  0.00  0.00    +0.001 A 
ATOM     10  C6  UNL     1      13.623   0.268  22.620  0.00  0.00    +0.032 A 
ATOM     11  C7  UNL     1      15.122  -1.299  23.927  0.00  0.00    +0.196 C 
ATOM     12  O2  UNL     1      16.082  -2.306  23.656  0.00  0.00    -0.375 OA
ATOM     13  C8  UNL     1      17.260  -1.724  23.129  0.00  0.00    +0.166 C 
ATOM     14  C9  UNL     1      17.005  -1.198  21.710  0.00  0.00    +0.084 C 
ENDBRANCH   3   5
BRANCH   2  15
ATOM     15  C10 UNL     1      10.980   4.092  21.543  0.00  0.00    +0.041 A 
ATOM     16  C11 UNL     1      11.350   5.230  20.775  0.00  0.00    +0.017 A 
ATOM     17  C12 UNL     1      10.376   6.142  20.328  0.00  0.00    +0.050 A 
ATOM     18  C13 UNL     1       9.051   5.898  20.668  0.00  0.00    +0.166 A 
ATOM     19  C14 UNL     1       8.687   4.822  21.408  0.00  0.00    +0.167 A 
ATOM     20  C15 UNL     1       9.616   3.894  21.870  0.00  0.00    +0.062 A 
ATOM     21  O3  UNL     1       7.318   4.833  21.594  0.00  0.00    -0.453 OA
ATOM     22  C16 UNL     1       6.790   5.990  20.929  0.00  0.00    +0.466 C 
ATOM     23  O4  UNL     1       7.930   6.641  20.351  0.00  0.00    -0.453 OA
ENDBRANCH   2  15
TORSDOF 2
ENDMDL
MODEL 3
REMARK VINA RESULT:    -6.016      9.342     12.146
REMARK INTER + INTRA:          -6.868
REMARK INTER:                  -6.529
REMARK INTRA:                  -0.339
REMARK UNBOUND:                -0.148
REMARK  Name = /home/qwerty/github/datacon2025hack/step_04_hit_selection/docking/ligands/lig_110.pdb
REMARK  2 active torsions:
REMARK  status: ('A' for Active; 'I' for Inactive)
REMARK    1  A    between atoms: C1_2  and  C10_14
REMARK    2  A    between atoms: N1_3  and  C2_4
REMARK                            x       y       z     vdW  Elec       q    Type
REMARK                         _______ _______ _______ _____ _____    ______ ____
ROOT
ATOM      1  O1  UNL     1      20.726   5.880  24.456  0.00  0.00    -0.270 OA
ATOM      2  C1  UNL     1      21.239   5.090  23.617  0.00  0.00    +0.248 C 
ATOM      3  N1  UNL     1      21.170   3.671  23.841  0.00  0.00    -0.280 N 
ATOM      4  H1  UNL     1      21.147   3.043  23.006  0.00  0.00    +0.155 HD
ENDROOT
BRANCH   3   5
ATOM      5  C2  UNL     1      20.976   3.075  25.136  0.00  0.00    +0.052 A 
ATOM      6  C3  UNL     1      19.685   2.715  25.547  0.00  0.00    +0.134 A 
ATOM      7  N2  UNL     1      19.488   2.124  26.755  0.00  0.00    -0.258 NA
ATOM      8  C4  UNL     1      20.520   1.846  27.596  0.00  0.00    +0.049 A 
ATOM      9  C5  UNL     1      21.830   2.194  27.232  0.00  0.00    +0.001 A 
ATOM     10  C6  UNL     1      22.057   2.787  25.985  0.00  0.00    +0.032 A 
ATOM     11  C7  UNL     1      22.980   1.825  28.138  0.00  0.00    +0.196 C 
ATOM     12  O2  UNL     1      22.563   1.669  29.483  0.00  0.00    -0.375 OA
ATOM     13  C8  UNL     1      21.539   0.696  29.564  0.00  0.00    +0.166 C 
ATOM     14  C9  UNL     1      20.245   1.231  28.936  0.00  0.00    +0.084 C 
ENDBRANCH   3   5
BRANCH   2  15
ATOM     15  C10 UNL     1      21.862   5.636  22.388  0.00  0.00    +0.041 A 
ATOM     16  C11 UNL     1      21.421   5.223  21.101  0.00  0.00    +0.017 A 
ATOM     17  C12 UNL     1      22.020   5.739  19.937  0.00  0.00    +0.050 A 
ATOM     18  C13 UNL     1      23.054   6.654  20.088  0.00  0.00    +0.166 A 
ATOM     19  C14 UNL     1      23.490   7.049  21.310  0.00  0.00    +0.167 A 
ATOM     20  C15 UNL     1      22.927   6.564  22.487  0.00  0.00    +0.062 A 
ATOM     21  O3  UNL     1      24.522   7.955  21.160  0.00  0.00    -0.453 OA
ATOM     22  C16 UNL     1      24.748   8.140  19.755  0.00  0.00    +0.466 C 
ATOM     23  O4  UNL     1      23.790   7.292  19.108  0.00  0.00    -0.453 OA
ENDBRANCH   2  15
TORSDOF 2
ENDMDL
MODEL 4
REMARK VINA RESULT:    -5.984      7.840      9.356
REMARK INTER + INTRA:          -6.832
REMARK INTER:                  -6.473
REMARK INTRA:                  -0.360
REMARK UNBOUND:                -0.148
REMARK  Name = /home/qwerty/github/datacon2025hack/step_04_hit_selection/docking/ligands/lig_110.pdb
REMARK  2 active torsions:
REMARK  status: ('A' for Active; 'I' for Inactive)
REMARK    1  A    between atoms: C1_2  and  C10_14
REMARK    2  A    between atoms: N1_3  and  C2_4
REMARK                            x       y       z     vdW  Elec       q    Type
REMARK                         _______ _______ _______ _____ _____    ______ ____
ROOT
ATOM      1  O1  UNL     1      20.990   5.255  24.755  0.00  0.00    -0.270 OA
ATOM      2  C1  UNL     1      21.079   4.048  24.399  0.00  0.00    +0.248 C 
ATOM      3  N1  UNL     1      21.105   3.718  23.000  0.00  0.00    -0.280 N 
ATOM      4  H1  UNL     1      21.628   2.862  22.707  0.00  0.00    +0.155 HD
ENDROOT
BRANCH   3   5
ATOM      5  C2  UNL     1      20.588   4.576  21.968  0.00  0.00    +0.052 A 
ATOM      6  C3  UNL     1      21.476   5.280  21.142  0.00  0.00    +0.134 A 
ATOM      7  N2  UNL     1      21.004   6.072  20.142  0.00  0.00    -0.258 NA
ATOM      8  C4  UNL     1      19.673   6.199  19.895  0.00  0.00    +0.049 A 
ATOM      9  C5  UNL     1      18.745   5.519  20.698  0.00  0.00    +0.001 A 
ATOM     10  C6  UNL     1      19.210   4.685  21.721  0.00  0.00    +0.032 A 
ATOM     11  C7  UNL     1      17.272   5.611  20.379  0.00  0.00    +0.196 C 
ATOM     12  O2  UNL     1      16.960   6.793  19.661  0.00  0.00    -0.375 OA
ATOM     13  C8  UNL     1      17.728   6.855  18.474  0.00  0.00    +0.166 C 
ATOM     14  C9  UNL     1      19.202   7.119  18.806  0.00  0.00    +0.084 C 
ENDBRANCH   3   5
BRANCH   2  15
ATOM     15  C10 UNL     1      21.207   2.992  25.431  0.00  0.00    +0.041 A 
ATOM     16  C11 UNL     1      20.237   1.958  25.543  0.00  0.00    +0.017 A 
ATOM     17  C12 UNL     1      20.359   0.962  26.528  0.00  0.00    +0.050 A 
ATOM     18  C13 UNL     1      21.450   1.026  27.387  0.00  0.00    +0.166 A 
ATOM     19  C14 UNL     1      22.377   2.011  27.296  0.00  0.00    +0.167 A 
ATOM     20  C15 UNL     1      22.296   3.017  26.338  0.00  0.00    +0.062 A 
ATOM     21  O3  UNL     1      23.339   1.828  28.271  0.00  0.00    -0.453 OA
ATOM     22  C16 UNL     1      22.994   0.655  29.020  0.00  0.00    +0.466 C 
ATOM     23  O4  UNL     1      21.782   0.174  28.422  0.00  0.00    -0.453 OA
ENDBRANCH   2  15
TORSDOF 2
ENDMDL
MODEL 5
REMARK VINA RESULT:    -5.971     12.058     14.331
REMARK INTER + INTRA:          -6.818
REMARK INTER:                  -6.511
REMARK INTRA:                  -0.307
REMARK UNBOUND:                -0.148
REMARK  Name = /home/qwerty/github/datacon2025hack/step_04_hit_selection/docking/ligands/lig_110.pdb
REMARK  2 active torsions:
REMARK  status: ('A' for Active; 'I' for Inactive)
REMARK    1  A    between atoms: C1_2  and  C10_14
REMARK    2  A    between atoms: N1_3  and  C2_4
REMARK                            x       y       z     vdW  Elec       q    Type
REMARK                         _______ _______ _______ _____ _____    ______ ____
ROOT
ATOM      1  O1  UNL     1      17.393   2.068  33.165  0.00  0.00    -0.270 OA
ATOM      2  C1  UNL     1      18.196   1.587  34.011  0.00  0.00    +0.248 C 
ATOM      3  N1  UNL     1      19.612   1.702  33.793  0.00  0.00    -0.280 N 
ATOM      4  H1  UNL     1      20.235   1.752  34.631  0.00  0.00    +0.155 HD
ENDROOT
BRANCH   3   5
ATOM      5  C2  UNL     1      20.207   1.906  32.500  0.00  0.00    +0.052 A 
ATOM      6  C3  UNL     1      20.409   3.211  32.028  0.00  0.00    +0.134 A 
ATOM      7  N2  UNL     1      20.998   3.421  30.820  0.00  0.00    -0.258 NA
ATOM      8  C4  UNL     1      21.423   2.393  30.040  0.00  0.00    +0.049 A 
ATOM      9  C5  UNL     1      21.237   1.069  30.466  0.00  0.00    +0.001 A 
ATOM     10  C6  UNL     1      20.650   0.830  31.713  0.00  0.00    +0.032 A 
ATOM     11  C7  UNL     1      21.770  -0.068  29.627  0.00  0.00    +0.196 C 
ATOM     12  O2  UNL     1      21.901   0.298  28.264  0.00  0.00    -0.375 OA
ATOM     13  C8  UNL     1      22.738   1.433  28.146  0.00  0.00    +0.166 C 
ATOM     14  C9  UNL     1      22.029   2.678  28.696  0.00  0.00    +0.084 C 
ENDBRANCH   3   5
BRANCH   2  15
ATOM     15  C10 UNL     1      17.665   0.956  35.243  0.00  0.00    +0.041 A 
ATOM     16  C11 UNL     1      17.998   1.467  36.527  0.00  0.00    +0.017 A 
ATOM     17  C12 UNL     1      17.497   0.860  37.693  0.00  0.00    +0.050 A 
ATOM     18  C13 UNL     1      16.677  -0.252  37.548  0.00  0.00    +0.166 A 
ATOM     19  C14 UNL     1      16.359  -0.754  36.329  0.00  0.00    +0.167 A 
ATOM     20  C15 UNL     1      16.832  -0.186  35.150  0.00  0.00    +0.062 A 
ATOM     21  O3  UNL     1      15.538  -1.854  36.484  0.00  0.00    -0.453 OA
ATOM     22  C16 UNL     1      15.328  -2.056  37.889  0.00  0.00    +0.466 C 
ATOM     23  O4  UNL     1      16.072  -1.011  38.531  0.00  0.00    -0.453 OA
ENDBRANCH   2  15
TORSDOF 2
ENDMDL
MODEL 6
REMARK VINA RESULT:    -5.946     17.341     19.422
REMARK INTER + INTRA:          -6.789
REMARK INTER:                  -6.480
REMARK INTRA:                  -0.309
REMARK UNBOUND:                -0.148
REMARK  Name = /home/qwerty/github/datacon2025hack/step_04_hit_selection/docking/ligands/lig_110.pdb
REMARK  2 active torsions:
REMARK  status: ('A' for Active; 'I' for Inactive)
REMARK    1  A    between atoms: C1_2  and  C10_14
REMARK    2  A    between atoms: N1_3  and  C2_4
REMARK                            x       y       z     vdW  Elec       q    Type
REMARK                         _______ _______ _______ _____ _____    ______ ____
ROOT
ATOM      1  O1  UNL     1      18.007   9.739  34.633  0.00  0.00    -0.270 OA
ATOM      2  C1  UNL     1      18.238  10.587  35.539  0.00  0.00    +0.248 C 
ATOM      3  N1  UNL     1      19.558  10.685  36.101  0.00  0.00    -0.280 N 
ATOM      4  H1  UNL     1      19.870  11.617  36.458  0.00  0.00    +0.155 HD
ENDROOT
BRANCH   3   5
ATOM      5  C2  UNL     1      20.525   9.622  36.061  0.00  0.00    +0.052 A 
ATOM      6  C3  UNL     1      20.544   8.664  37.085  0.00  0.00    +0.134 A 
ATOM      7  N2  UNL     1      21.432   7.635  37.047  0.00  0.00    -0.258 NA
ATOM      8  C4  UNL     1      22.314   7.485  36.023  0.00  0.00    +0.049 A 
ATOM      9  C5  UNL     1      22.338   8.422  34.978  0.00  0.00    +0.001 A 
ATOM     10  C6  UNL     1      21.421   9.479  34.989  0.00  0.00    +0.032 A 
ATOM     11  C7  UNL     1      23.273   8.217  33.811  0.00  0.00    +0.196 C 
ATOM     12  O2  UNL     1      24.389   7.417  34.164  0.00  0.00    -0.375 OA
ATOM     13  C8  UNL     1      23.952   6.171  34.672  0.00  0.00    +0.166 C 
ATOM     14  C9  UNL     1      23.302   6.356  36.049  0.00  0.00    +0.084 C 
ENDBRANCH   3   5
BRANCH   2  15
ATOM     15  C10 UNL     1      17.156  11.502  35.973  0.00  0.00    +0.041 A 
ATOM     16  C11 UNL     1      16.069  11.028  36.757  0.00  0.00    +0.017 A 
ATOM     17  C12 UNL     1      15.042  11.899  37.161  0.00  0.00    +0.050 A 
ATOM     18  C13 UNL     1      15.121  13.229  36.764  0.00  0.00    +0.166 A 
ATOM     19  C14 UNL     1      16.148  13.691  36.009  0.00  0.00    +0.167 A 
ATOM     20  C15 UNL     1      17.185  12.865  35.587  0.00  0.00    +0.062 A 
ATOM     21  O3  UNL     1      15.968  15.039  35.764  0.00  0.00    -0.453 OA
ATOM     22  C16 UNL     1      14.752  15.447  36.405  0.00  0.00    +0.466 C 
ATOM     23  O4  UNL     1      14.244  14.261  37.032  0.00  0.00    -0.453 OA
ENDBRANCH   2  15
TORSDOF 2
ENDMDL
MODEL 7
REMARK VINA RESULT:    -5.906     13.008     15.332
REMARK INTER + INTRA:          -6.745
REMARK INTER:                  -6.364
REMARK INTRA:                  -0.381
REMARK UNBOUND:                -0.148
REMARK  Name = /home/qwerty/github/datacon2025hack/step_04_hit_selection/docking/ligands/lig_110.pdb
REMARK  2 active torsions:
REMARK  status: ('A' for Active; 'I' for Inactive)
REMARK    1  A    between atoms: C1_2  and  C10_14
REMARK    2  A    between atoms: N1_3  and  C2_4
REMARK                            x       y       z     vdW  Elec       q    Type
REMARK                         _______ _______ _______ _____ _____    ______ ____
ROOT
ATOM      1  O1  UNL     1      23.818   5.058  32.684  0.00  0.00    -0.270 OA
ATOM      2  C1  UNL     1      22.676   4.936  33.206  0.00  0.00    +0.248 C 
ATOM      3  N1  UNL     1      21.732   4.009  32.644  0.00  0.00    -0.280 N 
ATOM      4  H1  UNL     1      21.035   3.569  33.287  0.00  0.00    +0.155 HD
ENDROOT
BRANCH   3   5
ATOM      5  C2  UNL     1      21.787   3.537  31.287  0.00  0.00    +0.052 A 
ATOM      6  C3  UNL     1      22.192   2.220  31.027  0.00  0.00    +0.134 A 
ATOM      7  N2  UNL     1      22.221   1.749  29.752  0.00  0.00    -0.258 NA
ATOM      8  C4  UNL     1      21.849   2.517  28.693  0.00  0.00    +0.049 A 
ATOM      9  C5  UNL     1      21.443   3.844  28.902  0.00  0.00    +0.001 A 
ATOM     10  C6  UNL     1      21.389   4.344  30.208  0.00  0.00    +0.032 A 
ATOM     11  C7  UNL     1      20.969   4.673  27.733  0.00  0.00    +0.196 C 
ATOM     12  O2  UNL     1      21.503   4.208  26.505  0.00  0.00    -0.375 OA
ATOM     13  C8  UNL     1      21.165   2.847  26.315  0.00  0.00    +0.166 C 
ATOM     14  C9  UNL     1      21.940   1.963  27.302  0.00  0.00    +0.084 C 
ENDBRANCH   3   5
BRANCH   2  15
ATOM     15  C10 UNL     1      22.344   5.716  34.423  0.00  0.00    +0.041 A 
ATOM     16  C11 UNL     1      23.352   6.066  35.362  0.00  0.00    +0.017 A 
ATOM     17  C12 UNL     1      23.031   6.801  36.518  0.00  0.00    +0.050 A 
ATOM     18  C13 UNL     1      21.703   7.163  36.713  0.00  0.00    +0.166 A 
ATOM     19  C14 UNL     1      20.733   6.826  35.829  0.00  0.00    +0.167 A 
ATOM     20  C15 UNL     1      21.004   6.101  34.672  0.00  0.00    +0.062 A 
ATOM     21  O3  UNL     1      19.517   7.310  36.274  0.00  0.00    -0.453 OA
ATOM     22  C16 UNL     1      19.740   7.992  37.516  0.00  0.00    +0.466 C 
ATOM     23  O4  UNL     1      21.149   7.874  37.758  0.00  0.00    -0.453 OA
ENDBRANCH   2  15
TORSDOF 2
ENDMDL
MODEL 8
REMARK VINA RESULT:    -5.886      5.937     10.171
REMARK INTER + INTRA:          -6.723
REMARK INTER:                  -6.396
REMARK INTRA:                  -0.326
REMARK UNBOUND:                -0.148
REMARK  Name = /home/qwerty/github/datacon2025hack/step_04_hit_selection/docking/ligands/lig_110.pdb
REMARK  2 active torsions:
REMARK  status: ('A' for Active; 'I' for Inactive)
REMARK    1  A    between atoms: C1_2  and  C10_14
REMARK    2  A    between atoms: N1_3  and  C2_4
REMARK                            x       y       z     vdW  Elec       q    Type
REMARK                         _______ _______ _______ _____ _____    ______ ____
ROOT
ATOM      1  O1  UNL     1      17.639  -0.200  25.972  0.00  0.00    -0.270 OA
ATOM      2  C1  UNL     1      18.166   0.317  24.948  0.00  0.00    +0.248 C 
ATOM      3  N1  UNL     1      19.453   0.950  25.053  0.00  0.00    -0.280 N 
ATOM      4  H1  UNL     1      20.072   0.945  24.211  0.00  0.00    +0.155 HD
ENDROOT
BRANCH   3   5
ATOM      5  C2  UNL     1      19.998   1.453  26.285  0.00  0.00    +0.052 A 
ATOM      6  C3  UNL     1      19.520   2.660  26.814  0.00  0.00    +0.134 A 
ATOM      7  N2  UNL     1      20.004   3.134  27.993  0.00  0.00    -0.258 NA
ATOM      8  C4  UNL     1      20.944   2.459  28.706  0.00  0.00    +0.049 A 
ATOM      9  C5  UNL     1      21.459   1.249  28.216  0.00  0.00    +0.001 A 
ATOM     10  C6  UNL     1      20.962   0.735  27.013  0.00  0.00    +0.032 A 
ATOM     11  C7  UNL     1      22.453   0.471  29.042  0.00  0.00    +0.196 C 
ATOM     12  O2  UNL     1      23.159   1.306  29.944  0.00  0.00    -0.375 OA
ATOM     13  C8  UNL     1      22.249   1.991  30.783  0.00  0.00    +0.166 C 
ATOM     14  C9  UNL     1      21.475   3.046  29.981  0.00  0.00    +0.084 C 
ENDBRANCH   3   5
BRANCH   2  15
ATOM     15  C10 UNL     1      17.472   0.218  23.642  0.00  0.00    +0.041 A 
ATOM     16  C11 UNL     1      17.357  -1.029  22.969  0.00  0.00    +0.017 A 
ATOM     17  C12 UNL     1      16.703  -1.116  21.727  0.00  0.00    +0.050 A 
ATOM     18  C13 UNL     1      16.182   0.051  21.181  0.00  0.00    +0.166 A 
ATOM     19  C14 UNL     1      16.294   1.247  21.809  0.00  0.00    +0.167 A 
ATOM     20  C15 UNL     1      16.933   1.381  23.038  0.00  0.00    +0.062 A 
ATOM     21  O3  UNL     1      15.694   2.227  21.042  0.00  0.00    -0.453 OA
ATOM     22  C16 UNL     1      15.174   1.606  19.858  0.00  0.00    +0.466 C 
ATOM     23  O4  UNL     1      15.507   0.217  19.988  0.00  0.00    -0.453 OA
ENDBRANCH   2  15
TORSDOF 2
ENDMDL
MODEL 9
REMARK VINA RESULT:    -5.857     16.997     17.496
REMARK INTER + INTRA:          -6.690
REMARK INTER:                  -6.472
REMARK INTRA:                  -0.219
REMARK UNBOUND:                -0.148
REMARK  Name = /home/qwerty/github/datacon2025hack/step_04_hit_selection/docking/ligands/lig_110.pdb
REMARK  2 active torsions:
REMARK  status: ('A' for Active; 'I' for Inactive)
REMARK    1  A    between atoms: C1_2  and  C10_14
REMARK    2  A    between atoms: N1_3  and  C2_4
REMARK                            x       y       z     vdW  Elec       q    Type
REMARK                         _______ _______ _______ _____ _____    ______ ____
ROOT
ATOM      1  O1  UNL     1      19.022   7.582  36.167  0.00  0.00    -0.270 OA
ATOM      2  C1  UNL     1      20.069   8.278  36.276  0.00  0.00    +0.248 C 
ATOM      3  N1  UNL     1      19.991   9.596  36.845  0.00  0.00    -0.280 N 
ATOM      4  H1  UNL     1      20.828   9.960  37.355  0.00  0.00    +0.155 HD
ENDROOT
BRANCH   3   5
ATOM      5  C2  UNL     1      18.786  10.378  36.887  0.00  0.00    +0.052 A 
ATOM      6  C3  UNL     1      17.803  10.088  37.844  0.00  0.00    +0.134 A 
ATOM      7  N2  UNL     1      16.671  10.837  37.917  0.00  0.00    -0.258 NA
ATOM      8  C4  UNL     1      16.453  11.892  37.087  0.00  0.00    +0.049 A 
ATOM      9  C5  UNL     1      17.404  12.218  36.108  0.00  0.00    +0.001 A 
ATOM     10  C6  UNL     1      18.585  11.471  36.028  0.00  0.00    +0.032 A 
ATOM     11  C7  UNL     1      17.190  13.430  35.233  0.00  0.00    +0.196 C 
ATOM     12  O2  UNL     1      15.818  13.769  35.127  0.00  0.00    -0.375 OA
ATOM     13  C8  UNL     1      15.272  13.986  36.415  0.00  0.00    +0.166 C 
ATOM     14  C9  UNL     1      15.168  12.660  37.180  0.00  0.00    +0.084 C 
ENDBRANCH   3   5
BRANCH   2  15
ATOM     15  C10 UNL     1      21.372   7.704  35.863  0.00  0.00    +0.041 A 
ATOM     16  C11 UNL     1      22.185   6.997  36.790  0.00  0.00    +0.017 A 
ATOM     17  C12 UNL     1      23.423   6.460  36.395  0.00  0.00    +0.050 A 
ATOM     18  C13 UNL     1      23.824   6.648  35.078  0.00  0.00    +0.166 A 
ATOM     19  C14 UNL     1      23.062   7.327  34.187  0.00  0.00    +0.167 A 
ATOM     20  C15 UNL     1      21.831   7.876  34.534  0.00  0.00    +0.062 A 
ATOM     21  O3  UNL     1      23.704   7.362  32.964  0.00  0.00    -0.453 OA
ATOM     22  C16 UNL     1      24.948   6.660  33.097  0.00  0.00    +0.466 C 
ATOM     23  O4  UNL     1      24.984   6.220  34.461  0.00  0.00    -0.453 OA
ENDBRANCH   2  15
TORSDOF 2
ENDMDL
