REMARK  Name = /home/qwerty/github/datacon2025hack/step_04_hit_selection/docking/ligands/lig_209.pdb
REMARK  5 active torsions:
REMARK  status: ('A' for Active; 'I' for Inactive)
REMARK    1  A    between atoms: C5_5  and  C6_6
REMARK    2  A    between atoms: C9_11  and  N2_12
REMARK    3  A    between atoms: C10_13  and  C11_15
REMARK    4  A    between atoms: N4_18  and  C13_19
REMARK    5  A    between atoms: C14_20  and  N5_21
REMARK                            x       y       z     vdW  Elec       q    Type
REMARK                         _______ _______ _______ _____ _____    ______ ____
ROOT
ATOM      1  C6  UNL     1       2.606   0.252  -1.471  0.00  0.00    +0.219 C 
ATOM      2  O1  UNL     1       3.494   0.751  -2.218  0.00  0.00    -0.275 OA
ATOM      3  N1  UNL     1       1.280   0.048  -1.995  0.00  0.00    -0.299 N 
ATOM      4  C7  UNL     1       0.905   0.438  -3.345  0.00  0.00    +0.109 C 
ATOM      5  C8  UNL     1      -0.613   0.327  -3.401  0.00  0.00    +0.043 C 
ATOM      6  C9  UNL     1      -0.999  -0.581  -2.227  0.00  0.00    +0.092 C 
ATOM      7  C15 UNL     1       0.161  -0.491  -1.237  0.00  0.00    +0.130 C 
ENDROOT
BRANCH   1  12
ATOM      8  C1  UNL     1       5.873   0.959   2.965  0.00  0.00    +0.007 C 
ATOM      9  C2  UNL     1       4.992   0.780   1.968  0.00  0.00    -0.077 C 
ATOM     10  C3  UNL     1       3.547   1.182   2.152  0.00  0.00    +0.031 C 
ATOM     11  C4  UNL     1       2.833   1.275   0.798  0.00  0.00    +0.017 C 
ATOM     12  C5  UNL     1       2.945  -0.034  -0.021  0.00  0.00    +0.076 C 
ATOM     13  C16 UNL     1       4.330  -0.736   0.110  0.00  0.00    +0.017 C 
ATOM     14  C17 UNL     1       5.430   0.189   0.647  0.00  0.00    +0.031 C 
ENDBRANCH   1  12
BRANCH   6  15
ATOM     15  N2  UNL     1      -2.262  -0.175  -1.601  0.00  0.00    -0.307 N 
ATOM     16  C10 UNL     1      -2.987  -1.056  -0.727  0.00  0.00    +0.249 C 
ATOM     17  O2  UNL     1      -2.561  -2.225  -0.528  0.00  0.00    -0.270 OA
ATOM     18  H13 UNL     1      -2.577   0.820  -1.694  0.00  0.00    +0.149 HD
BRANCH  16  19
ATOM     19  C11 UNL     1      -4.234  -0.608  -0.070  0.00  0.00    +0.095 A 
ATOM     20  C12 UNL     1      -4.991   0.511  -0.392  0.00  0.00    +0.149 A 
ATOM     21  N3  UNL     1      -6.073   0.575   0.411  0.00  0.00    -0.177 NA
ATOM     22  N4  UNL     1      -6.033  -0.464   1.232  0.00  0.00    -0.253 N 
ATOM     23  C13 UNL     1      -7.034  -0.721   2.261  0.00  0.00    +0.174 C 
ATOM     24  C14 UNL     1      -4.935  -1.201   0.971  0.00  0.00    +0.126 A 
BRANCH  24  25
ATOM     25  N5  UNL     1      -4.564  -2.376   1.703  0.00  0.00    -0.343 N 
ATOM     26  H18 UNL     1      -3.646  -2.849   1.554  0.00  0.00    +0.144 HD
ATOM     27  H19 UNL     1      -5.188  -2.756   2.447  0.00  0.00    +0.144 HD
ENDBRANCH  24  25
ENDBRANCH  16  19
ENDBRANCH   6  15
TORSDOF 4
