REMARK  Name = /home/qwerty/github/datacon2025hack/step_04_hit_selection/docking/ligands/lig_754.pdb
REMARK  6 active torsions:
REMARK  status: ('A' for Active; 'I' for Inactive)
REMARK    1  A    between atoms: C1_1  and  C2_2
REMARK    2  A    between atoms: C2_2  and  C3_3
REMARK    3  A    between atoms: C2_2  and  C18_24
REMARK    4  A    between atoms: C3_3  and  C4_4
REMARK    5  A    between atoms: C7_9  and  C8_10
REMARK    6  A    between atoms: N2_12  and  C9_13
REMARK                            x       y       z     vdW  Elec       q    Type
REMARK                         _______ _______ _______ _____ _____    ______ ____
ROOT
ATOM      1  C4  UNL     1       2.168   0.117  -2.780  0.00  0.00    +0.216 C 
ATOM      2  O1  UNL     1       2.184  -0.912  -3.504  0.00  0.00    -0.276 OA
ATOM      3  N1  UNL     1       1.180   0.242  -1.743  0.00  0.00    -0.301 N 
ATOM      4  C5  UNL     1       0.531   1.538  -1.494  0.00  0.00    +0.108 C 
ATOM      5  C6  UNL     1      -0.896   1.334  -0.981  0.00  0.00    +0.032 C 
ATOM      6  C7  UNL     1      -0.931   0.477   0.305  0.00  0.00    +0.078 C 
ATOM      7  C16 UNL     1       0.212  -0.572   0.375  0.00  0.00    +0.032 C 
ATOM      8  C17 UNL     1       0.744  -0.955  -1.012  0.00  0.00    +0.108 C 
ENDROOT
BRANCH   6   9
ATOM      9  C8  UNL     1      -2.296  -0.152   0.452  0.00  0.00    +0.220 C 
ATOM     10  O2  UNL     1      -2.517  -1.297  -0.033  0.00  0.00    -0.275 OA
ATOM     11  N2  UNL     1      -3.370   0.613   1.024  0.00  0.00    -0.285 N 
ATOM     12  H12 UNL     1      -3.232   1.643   1.135  0.00  0.00    +0.155 HD
BRANCH  11  13
ATOM     13  C9  UNL     1      -4.678   0.076   1.273  0.00  0.00    +0.037 A 
ATOM     14  C10 UNL     1      -5.818   0.885   1.033  0.00  0.00    +0.027 A 
ATOM     15  C11 UNL     1      -7.111   0.395   1.289  0.00  0.00    +0.051 A 
ATOM     16  C12 UNL     1      -7.227  -0.890   1.804  0.00  0.00    +0.166 A 
ATOM     17  C13 UNL     1      -6.142  -1.664   2.055  0.00  0.00    +0.168 A 
ATOM     18  C14 UNL     1      -4.845  -1.223   1.806  0.00  0.00    +0.072 A 
ATOM     19  O3  UNL     1      -6.552  -2.876   2.577  0.00  0.00    -0.453 OA
ATOM     20  C15 UNL     1      -7.985  -2.864   2.651  0.00  0.00    +0.466 C 
ATOM     21  O4  UNL     1      -8.375  -1.577   2.149  0.00  0.00    -0.453 OA
ENDBRANCH  11  13
ENDBRANCH   6   9
BRANCH   1  22
ATOM     22  C3  UNL     1       3.231   1.168  -2.975  0.00  0.00    +0.104 C 
BRANCH  22  24
ATOM     23  C1  UNL     1       5.634   1.822  -2.514  0.00  0.00    +0.013 C 
ATOM     24  C2  UNL     1       4.544   0.769  -2.271  0.00  0.00    +0.025 C 
BRANCH  24  25
ATOM     25  C18 UNL     1       4.337   0.536  -0.785  0.00  0.00    -0.040 A 
ATOM     26  C19 UNL     1       3.916   1.591   0.071  0.00  0.00    +0.008 A 
ATOM     27  C20 UNL     1       3.680   1.354   1.437  0.00  0.00    +0.050 A 
ATOM     28  C21 UNL     1       3.867   0.061   1.913  0.00  0.00    +0.166 A 
ATOM     29  C22 UNL     1       4.266  -0.952   1.105  0.00  0.00    +0.166 A 
ATOM     30  C23 UNL     1       4.515  -0.761  -0.250  0.00  0.00    +0.053 A 
ATOM     31  O5  UNL     1       4.362  -2.117   1.839  0.00  0.00    -0.453 OA
ATOM     32  C24 UNL     1       3.999  -1.817   3.194  0.00  0.00    +0.466 C 
ATOM     33  O6  UNL     1       3.693  -0.416   3.198  0.00  0.00    -0.453 OA
ENDBRANCH  24  25
ENDBRANCH  22  24
ENDBRANCH   1  22
TORSDOF 5
