REMARK  Name = /home/qwerty/github/datacon2025hack/step_04_hit_selection/docking/ligands/lig_401.pdb
REMARK  4 active torsions:
REMARK  status: ('A' for Active; 'I' for Inactive)
REMARK    1  A    between atoms: C1_2  and  C12_18
REMARK    2  A    between atoms: N1_3  and  C2_4
REMARK    3  A    between atoms: C4_7  and  C5_8
REMARK    4  A    between atoms: C8_11  and  O2_12
REMARK                            x       y       z     vdW  Elec       q    Type
REMARK                         _______ _______ _______ _____ _____    ______ ____
ROOT
ATOM      1  C2  UNL     1       0.476   0.529  -0.093  0.00  0.00    +0.070 A 
ATOM      2  C3  UNL     1      -0.303   1.621  -0.486  0.00  0.00    +0.138 A 
ATOM      3  N2  UNL     1      -1.658   1.538  -0.459  0.00  0.00    -0.234 NA
ATOM      4  C4  UNL     1      -2.290   0.398  -0.066  0.00  0.00    +0.160 A 
ATOM      5  N3  UNL     1      -1.547  -0.683   0.298  0.00  0.00    -0.234 NA
ATOM      6  C11 UNL     1      -0.189  -0.644   0.289  0.00  0.00    +0.138 A 
ENDROOT
BRANCH   4   7
ATOM      7  C5  UNL     1      -3.773   0.331  -0.044  0.00  0.00    +0.022 A 
ATOM      8  C6  UNL     1      -4.546   1.444  -0.423  0.00  0.00    +0.015 A 
ATOM      9  C7  UNL     1      -5.942   1.379  -0.401  0.00  0.00    +0.049 A 
ATOM     10  C8  UNL     1      -6.589   0.206  -0.001  0.00  0.00    +0.152 A 
ATOM     11  C9  UNL     1      -5.829  -0.909   0.379  0.00  0.00    +0.165 A 
ATOM     12  F1  UNL     1      -6.440  -2.056   0.770  0.00  0.00    -0.202 F 
ATOM     13  C10 UNL     1      -4.432  -0.847   0.358  0.00  0.00    +0.053 A 
BRANCH  10  14
ATOM     14  O2  UNL     1      -7.982   0.165   0.013  0.00  0.00    -0.504 OA
ATOM     15  H5  UNL     1      -8.489  -0.665   0.296  0.00  0.00    +0.292 HD
ENDBRANCH  10  14
ENDBRANCH   4   7
BRANCH   1  18
ATOM     16  O1  UNL     1       2.356  -0.576   1.816  0.00  0.00    -0.270 OA
ATOM     17  C1  UNL     1       2.786  -0.138   0.714  0.00  0.00    +0.249 C 
ATOM     18  N1  UNL     1       1.911   0.612  -0.145  0.00  0.00    -0.279 N 
ATOM     19  H1  UNL     1       2.335   1.337  -0.767  0.00  0.00    +0.155 HD
BRANCH  17  20
ATOM     20  C12 UNL     1       4.206  -0.359   0.346  0.00  0.00    +0.043 A 
ATOM     21  C13 UNL     1       4.636  -0.237  -0.989  0.00  0.00    +0.054 A 
ATOM     22  C14 UNL     1       5.976  -0.455  -1.326  0.00  0.00    +0.162 A 
ATOM     23  F2  UNL     1       6.375  -0.336  -2.616  0.00  0.00    -0.202 F 
ATOM     24  C15 UNL     1       6.901  -0.800  -0.337  0.00  0.00    +0.193 A 
ATOM     25  F3  UNL     1       8.199  -1.011  -0.665  0.00  0.00    -0.199 F 
ATOM     26  C16 UNL     1       6.485  -0.933   0.991  0.00  0.00    +0.162 A 
ATOM     27  F4  UNL     1       7.380  -1.271   1.952  0.00  0.00    -0.202 F 
ATOM     28  C17 UNL     1       5.146  -0.717   1.332  0.00  0.00    +0.054 A 
ENDBRANCH  17  20
ENDBRANCH   1  18
TORSDOF 4
