REMARK  Name = /home/qwerty/github/datacon2025hack/step_04_hit_selection/docking/ligands/lig_445.pdb
REMARK  6 active torsions:
REMARK  status: ('A' for Active; 'I' for Inactive)
REMARK    1  A    between atoms: N1_3  and  C2_4
REMARK    2  A    between atoms: C2_4  and  C3_5
REMARK    3  A    between atoms: C4_7  and  C5_8
REMARK    4  A    between atoms: N3_14  and  C7_15
REMARK    5  A    between atoms: C12_21  and  O2_22
REMARK    6  A    between atoms: O2_22  and  C13_23
REMARK                            x       y       z     vdW  Elec       q    Type
REMARK                         _______ _______ _______ _____ _____    ______ ____
ROOT
ATOM      1  O1  UNL     1       1.941   0.228  -1.207  0.00  0.00    -0.252 OA
ATOM      2  C1  UNL     1       1.390   0.668  -0.161  0.00  0.00    +0.304 C 
ATOM      3  N1  UNL     1       1.865   1.876   0.447  0.00  0.00    -0.293 N 
ATOM      4  N3  UNL     1       0.262  -0.015   0.406  0.00  0.00    -0.266 N 
ATOM      5  H1  UNL     1       1.366   2.253   1.284  0.00  0.00    +0.151 HD
ATOM      6  H5  UNL     1      -0.320   0.505   1.101  0.00  0.00    +0.156 HD
ENDROOT
BRANCH   4   7
ATOM      7  C7  UNL     1      -0.167  -1.326  -0.004  0.00  0.00    +0.080 A 
ATOM      8  C8  UNL     1       0.773  -2.329  -0.301  0.00  0.00    +0.065 A 
ATOM      9  C9  UNL     1       0.351  -3.605  -0.678  0.00  0.00    +0.125 A 
ATOM     10  F4  UNL     1       1.266  -4.565  -0.963  0.00  0.00    -0.205 F 
ATOM     11  C10 UNL     1      -1.011  -3.897  -0.750  0.00  0.00    +0.042 A 
ATOM     12  C11 UNL     1      -1.956  -2.917  -0.440  0.00  0.00    +0.050 A 
ATOM     13  C12 UNL     1      -1.543  -1.622  -0.063  0.00  0.00    +0.142 A 
BRANCH  13  14
ATOM     14  O2  UNL     1      -2.460  -0.606   0.257  0.00  0.00    -0.487 OA
BRANCH  14  15
ATOM     15  C13 UNL     1      -3.880  -0.668   0.093  0.00  0.00    +0.176 C 
ATOM     16  C14 UNL     1      -4.522   0.492   0.864  0.00  0.00    +0.059 C 
ATOM     17  C15 UNL     1      -4.179   1.842   0.216  0.00  0.00    +0.084 C 
ATOM     18  N4  UNL     1      -4.582   1.878  -1.196  0.00  0.00    -0.316 NA
ATOM     19  C16 UNL     1      -3.923   0.811  -1.963  0.00  0.00    +0.084 C 
ATOM     20  C17 UNL     1      -4.259  -0.576  -1.396  0.00  0.00    +0.059 C 
ATOM     21  H14 UNL     1      -5.620   1.749  -1.257  0.00  0.00    +0.122 HD
ENDBRANCH  14  15
ENDBRANCH  13  14
ENDBRANCH   4   7
BRANCH   3  22
ATOM     22  C2  UNL     1       3.024   2.607  -0.061  0.00  0.00    +0.168 C 
BRANCH  22  23
ATOM     23  C3  UNL     1       4.279   1.847   0.226  0.00  0.00    +0.096 A 
ATOM     24  N2  UNL     1       4.747   1.627   1.473  0.00  0.00    -0.238 NA
ATOM     25  C4  UNL     1       5.889   0.885   1.462  0.00  0.00    +0.151 A 
ATOM     26  C6  UNL     1       6.326   0.494   0.199  0.00  0.00    +0.079 A 
ATOM     27  S1  UNL     1       5.249   1.113  -0.934  0.00  0.00    -0.078 S 
BRANCH  25  28
ATOM     28  C5  UNL     1       6.587   0.482   2.724  0.00  0.00    +0.435 C 
ATOM     29  F1  UNL     1       6.055   1.161   3.806  0.00  0.00    -0.164 F 
ATOM     30  F2  UNL     1       7.935   0.776   2.628  0.00  0.00    -0.164 F 
ATOM     31  F3  UNL     1       6.430  -0.878   2.923  0.00  0.00    -0.164 F 
ENDBRANCH  25  28
ENDBRANCH  22  23
ENDBRANCH   3  22
TORSDOF 6
