REMARK  Name = /home/qwerty/github/datacon2025hack/step_04_hit_selection/docking/ligands/lig_780.pdb
REMARK  10 active torsions:
REMARK  status: ('A' for Active; 'I' for Inactive)
REMARK    1  A    between atoms: C1_1  and  C2_2
REMARK    2  A    between atoms: C2_2  and  N1_3
REMARK    3  A    between atoms: N1_3  and  C3_4
REMARK    4  A    between atoms: N1_3  and  C5_6
REMARK    5  A    between atoms: C3_4  and  C4_5
REMARK    6  A    between atoms: C5_6  and  C6_7
REMARK    7  A    between atoms: N2_9  and  C7_10
REMARK    8  A    between atoms: C13_17  and  C14_18
REMARK    9  A    between atoms: C14_18  and  N4_19
REMARK   10  A    between atoms: N7_24  and  C17_25
REMARK                            x       y       z     vdW  Elec       q    Type
REMARK                         _______ _______ _______ _____ _____    ______ ____
ROOT
ATOM      1  C7  UNL     1       0.754  -0.922   0.008  0.00  0.00    +0.036 A 
ATOM      2  C8  UNL     1       0.087  -1.909  -0.767  0.00  0.00    +0.025 A 
ATOM      3  C9  UNL     1      -1.315  -2.025  -0.729  0.00  0.00    +0.030 A 
ATOM      4  C10 UNL     1      -2.019  -1.143   0.092  0.00  0.00    +0.069 A 
ATOM      5  C11 UNL     1      -1.381  -0.220   0.866  0.00  0.00    +0.091 A 
ATOM      6  C12 UNL     1       0.004  -0.080   0.857  0.00  0.00    +0.053 A 
ATOM      7  N3  UNL     1      -2.263   0.447   1.631  0.00  0.00    -0.230 NA
ATOM      8  C13 UNL     1      -3.454  -0.108   1.283  0.00  0.00    +0.133 A 
ATOM      9  N7  UNL     1      -3.343  -1.064   0.318  0.00  0.00    -0.323 N 
ENDROOT
BRANCH   1  12
ATOM     10  C6  UNL     1       3.006  -1.030  -1.158  0.00  0.00    +0.231 C 
ATOM     11  O1  UNL     1       2.487  -1.159  -2.300  0.00  0.00    -0.274 OA
ATOM     12  N2  UNL     1       2.187  -0.809   0.000  0.00  0.00    -0.284 N 
ATOM     13  H13 UNL     1       2.656  -0.455   0.865  0.00  0.00    +0.155 HD
BRANCH  10  14
ATOM     14  C5  UNL     1       4.499  -1.047  -1.021  0.00  0.00    +0.180 C 
BRANCH  14  15
ATOM     15  N1  UNL     1       4.985   0.284  -0.598  0.00  0.00    -0.295 NA
BRANCH  15  17
ATOM     16  C1  UNL     1       4.819   2.647  -1.290  0.00  0.00    +0.020 C 
ATOM     17  C2  UNL     1       5.060   1.212  -1.750  0.00  0.00    +0.081 C 
ENDBRANCH  15  17
BRANCH  15  18
ATOM     18  C3  UNL     1       6.291   0.176   0.092  0.00  0.00    +0.081 C 
ATOM     19  C4  UNL     1       6.080  -0.059   1.585  0.00  0.00    +0.020 C 
ENDBRANCH  15  18
ENDBRANCH  14  15
ENDBRANCH  10  14
ENDBRANCH   1  12
BRANCH   9  20
ATOM     20  C17 UNL     1      -4.397  -1.937  -0.205  0.00  0.00    +0.089 C 
ATOM     21  C18 UNL     1      -5.482  -1.195  -0.972  0.00  0.00    +0.027 C 
ATOM     22  C19 UNL     1      -4.457  -2.020  -1.725  0.00  0.00    +0.027 C 
ENDBRANCH   9  20
BRANCH   8  23
ATOM     23  C14 UNL     1      -4.743   0.298   1.940  0.00  0.00    +0.219 C 
BRANCH  23  24
ATOM     24  N4  UNL     1      -5.336   1.442   1.254  0.00  0.00    -0.245 N 
ATOM     25  C15 UNL     1      -4.782   2.652   1.066  0.00  0.00    +0.219 A 
ATOM     26  N5  UNL     1      -5.637   3.485   0.442  0.00  0.00    -0.223 NA
ATOM     27  C16 UNL     1      -6.732   2.711   0.278  0.00  0.00    +0.245 A 
ATOM     28  N6  UNL     1      -6.566   1.470   0.775  0.00  0.00    -0.158 NA
ENDBRANCH  23  24
ENDBRANCH   8  23
TORSDOF 8
