REMARK  Name = /home/qwerty/github/datacon2025hack/step_04_hit_selection/docking/ligands/lig_441.pdb
REMARK  4 active torsions:
REMARK  status: ('A' for Active; 'I' for Inactive)
REMARK    1  A    between atoms: C1_1  and  C2_2
REMARK    2  A    between atoms: C4_4  and  C5_5
REMARK    3  A    between atoms: N2_13  and  C11_14
REMARK    4  A    between atoms: C14_17  and  C15_18
REMARK                            x       y       z     vdW  Elec       q    Type
REMARK                         _______ _______ _______ _____ _____    ______ ____
ROOT
ATOM      1  C1  UNL     1       5.131   2.264   2.577  0.00  0.00    +0.044 C 
ATOM      2  C2  UNL     1       4.550   1.336   1.551  0.00  0.00    -0.050 A 
ATOM      3  C3  UNL     1       5.339   0.875   0.492  0.00  0.00    +0.007 A 
ATOM      4  C4  UNL     1       4.798   0.039  -0.498  0.00  0.00    -0.047 A 
ATOM      5  C5  UNL     1       5.690  -0.428  -1.620  0.00  0.00    +0.044 C 
ATOM      6  C6  UNL     1       3.441  -0.365  -0.409  0.00  0.00    -0.038 A 
ATOM      7  C7  UNL     1       2.632   0.148   0.634  0.00  0.00    -0.026 A 
ATOM      8  C8  UNL     1       3.196   0.990   1.603  0.00  0.00    +0.008 A 
ATOM      9  C9  UNL     1       1.159  -0.180   0.750  0.00  0.00    +0.144 C 
ATOM     10  N1  UNL     1       0.681  -1.063  -0.322  0.00  0.00    -0.281 N 
ATOM     11  C10 UNL     1      -0.722  -1.107  -0.659  0.00  0.00    +0.307 C 
ATOM     12  O1  UNL     1      -1.092  -1.652  -1.735  0.00  0.00    -0.252 OA
ATOM     13  N2  UNL     1      -1.707  -0.560   0.235  0.00  0.00    -0.267 N 
ATOM     14  C19 UNL     1       1.622  -2.015  -0.919  0.00  0.00    +0.114 C 
ATOM     15  C20 UNL     1       2.829  -1.262  -1.463  0.00  0.00    +0.055 C 
ATOM     16  H11 UNL     1      -1.461  -0.466   1.244  0.00  0.00    +0.156 HD
ENDROOT
BRANCH  13  17
ATOM     17  C11 UNL     1      -3.047  -0.231  -0.170  0.00  0.00    +0.060 A 
ATOM     18  C12 UNL     1      -3.335   0.275  -1.459  0.00  0.00    +0.026 A 
ATOM     19  C13 UNL     1      -4.655   0.624  -1.821  0.00  0.00    +0.006 A 
ATOM     20  C14 UNL     1      -5.716   0.480  -0.901  0.00  0.00    -0.040 A 
ATOM     21  C15 UNL     1      -7.124   0.852  -1.263  0.00  0.00    +0.044 C 
ATOM     22  C16 UNL     1      -5.396  -0.005   0.369  0.00  0.00    +0.024 A 
ATOM     23  C17 UNL     1      -6.165  -0.259   1.486  0.00  0.00    +0.143 A 
ATOM     24  N3  UNL     1      -5.356  -0.736   2.461  0.00  0.00    -0.181 NA
ATOM     25  N4  UNL     1      -4.115  -0.785   1.992  0.00  0.00    -0.275 N 
ATOM     26  C18 UNL     1      -4.119  -0.342   0.723  0.00  0.00    +0.087 A 
ATOM     27  H18 UNL     1      -3.295  -1.126   2.540  0.00  0.00    +0.189 HD
ENDBRANCH  13  17
TORSDOF 1
