MODEL 1
REMARK VINA RESULT:    -7.982      0.000      0.000
REMARK INTER + INTRA:         -10.912
REMARK INTER:                 -10.315
REMARK INTRA:                  -0.597
REMARK UNBOUND:                -0.597
REMARK  Name = /home/qwerty/github/datacon2025hack/step_04_hit_selection/docking/ligands/lig_473.pdb
REMARK  6 active torsions:
REMARK  status: ('A' for Active; 'I' for Inactive)
REMARK    1  A    between atoms: C1_1  and  C2_2
REMARK    2  A    between atoms: C2_2  and  N1_3
REMARK    3  A    between atoms: C2_2  and  C17_23
REMARK    4  A    between atoms: N2_6  and  C4_7
REMARK    5  A    between atoms: C8_12  and  C9_13
REMARK    6  A    between atoms: C20_26  and  N5_27
REMARK                            x       y       z     vdW  Elec       q    Type
REMARK                         _______ _______ _______ _____ _____    ______ ____
ROOT
ATOM      1  N1  UNL     1      13.160  11.376  37.369  0.00  0.00    -0.293 N 
ATOM      2  C3  UNL     1      14.462  11.126  36.819  0.00  0.00    +0.304 C 
ATOM      3  O1  UNL     1      14.577  10.505  35.727  0.00  0.00    -0.252 OA
ATOM      4  N2  UNL     1      15.625  11.631  37.492  0.00  0.00    -0.269 N 
ATOM      5  H5  UNL     1      13.105  11.842  38.303  0.00  0.00    +0.151 HD
ATOM      6  H6  UNL     1      15.480  12.334  38.252  0.00  0.00    +0.156 HD
ENDROOT
BRANCH   4   7
ATOM      7  C4  UNL     1      16.972  11.361  37.072  0.00  0.00    +0.037 A 
ATOM      8  C5  UNL     1      17.814  12.445  36.710  0.00  0.00    +0.025 A 
ATOM      9  C6  UNL     1      19.141  12.217  36.300  0.00  0.00    +0.029 A 
ATOM     10  C7  UNL     1      19.593  10.901  36.281  0.00  0.00    +0.067 A 
ATOM     11  N3  UNL     1      20.803  10.442  35.942  0.00  0.00    -0.338 N 
ATOM     12  C8  UNL     1      20.708   9.097  36.122  0.00  0.00    +0.142 A 
ATOM     13  N4  UNL     1      19.481   8.700  36.561  0.00  0.00    -0.228 NA
ATOM     14  C15 UNL     1      18.801   9.857  36.649  0.00  0.00    +0.091 A 
ATOM     15  C16 UNL     1      17.483  10.041  37.056  0.00  0.00    +0.053 A 
ATOM     16  H9  UNL     1      21.626  11.008  35.636  0.00  0.00    +0.167 HD
BRANCH  12  17
ATOM     17  C9  UNL     1      21.821   8.149  35.866  0.00  0.00    +0.052 A 
ATOM     18  C10 UNL     1      22.464   8.123  34.614  0.00  0.00    +0.014 A 
ATOM     19  C11 UNL     1      23.509   7.227  34.369  0.00  0.00    +0.001 A 
ATOM     20  C12 UNL     1      23.927   6.350  35.369  0.00  0.00    +0.003 A 
ATOM     21  C13 UNL     1      23.296   6.358  36.615  0.00  0.00    +0.039 A 
ATOM     22  C14 UNL     1      22.246   7.247  36.867  0.00  0.00    +0.134 A 
ATOM     23  F1  UNL     1      21.666   7.237  38.096  0.00  0.00    -0.205 F 
ENDBRANCH  12  17
ENDBRANCH   4   7
BRANCH   1  25
ATOM     24  C1  UNL     1      10.735  11.070  37.649  0.00  0.00    +0.033 C 
ATOM     25  C2  UNL     1      11.928  10.954  36.695  0.00  0.00    +0.102 C 
BRANCH  25  26
ATOM     26  C17 UNL     1      11.707  11.765  35.432  0.00  0.00    -0.027 A 
ATOM     27  C18 UNL     1      11.635  13.170  35.476  0.00  0.00    +0.007 A 
ATOM     28  C19 UNL     1      11.443  13.906  34.303  0.00  0.00    +0.023 A 
ATOM     29  C20 UNL     1      11.338  13.258  33.063  0.00  0.00    +0.035 A 
ATOM     30  C22 UNL     1      11.388  11.854  33.020  0.00  0.00    +0.023 A 
ATOM     31  C23 UNL     1      11.575  11.117  34.192  0.00  0.00    +0.007 A 
BRANCH  29  32
ATOM     32  N5  UNL     1      11.125  14.036  31.872  0.00  0.00    -0.270 N 
ATOM     33  C21 UNL     1      12.144  14.297  30.895  0.00  0.00    +0.301 C 
ATOM     34  N6  UNL     1      11.787  14.802  29.610  0.00  0.00    -0.313 N 
ATOM     35  O2  UNL     1      13.361  14.118  31.176  0.00  0.00    -0.253 OA
ATOM     36  H17 UNL     1      10.197  14.499  31.743  0.00  0.00    +0.156 HD
ATOM     37  H18 UNL     1      12.522  14.980  28.890  0.00  0.00    +0.146 HD
ATOM     38  H19 UNL     1      10.786  14.954  29.360  0.00  0.00    +0.146 HD
ENDBRANCH  29  32
ENDBRANCH  25  26
ENDBRANCH   1  25
TORSDOF 5
ENDMDL
MODEL 2
REMARK VINA RESULT:    -7.736     13.268     15.893
REMARK INTER + INTRA:         -10.595
REMARK INTER:                 -10.002
REMARK INTRA:                  -0.593
REMARK UNBOUND:                -0.597
REMARK  Name = /home/qwerty/github/datacon2025hack/step_04_hit_selection/docking/ligands/lig_473.pdb
REMARK  6 active torsions:
REMARK  status: ('A' for Active; 'I' for Inactive)
REMARK    1  A    between atoms: C1_1  and  C2_2
REMARK    2  A    between atoms: C2_2  and  N1_3
REMARK    3  A    between atoms: C2_2  and  C17_23
REMARK    4  A    between atoms: N2_6  and  C4_7
REMARK    5  A    between atoms: C8_12  and  C9_13
REMARK    6  A    between atoms: C20_26  and  N5_27
REMARK                            x       y       z     vdW  Elec       q    Type
REMARK                         _______ _______ _______ _____ _____    ______ ____
ROOT
ATOM      1  N1  UNL     1       9.530   8.334  20.866  0.00  0.00    -0.293 N 
ATOM      2  C3  UNL     1      10.178   7.122  21.278  0.00  0.00    +0.304 C 
ATOM      3  O1  UNL     1      11.084   7.158  22.154  0.00  0.00    -0.252 OA
ATOM      4  N2  UNL     1       9.752   5.868  20.726  0.00  0.00    -0.269 N 
ATOM      5  H5  UNL     1       8.824   8.274  20.097  0.00  0.00    +0.151 HD
ATOM      6  H6  UNL     1       8.853   5.850  20.193  0.00  0.00    +0.156 HD
ENDROOT
BRANCH   4   7
ATOM      7  C4  UNL     1      10.392   4.612  21.007  0.00  0.00    +0.037 A 
ATOM      8  C5  UNL     1       9.650   3.585  21.648  0.00  0.00    +0.025 A 
ATOM      9  C6  UNL     1      10.244   2.342  21.932  0.00  0.00    +0.029 A 
ATOM     10  C7  UNL     1      11.568   2.156  21.548  0.00  0.00    +0.067 A 
ATOM     11  N3  UNL     1      12.334   1.070  21.700  0.00  0.00    -0.338 N 
ATOM     12  C8  UNL     1      13.521   1.421  21.134  0.00  0.00    +0.142 A 
ATOM     13  N4  UNL     1      13.522   2.688  20.634  0.00  0.00    -0.228 NA
ATOM     14  C15 UNL     1      12.281   3.126  20.912  0.00  0.00    +0.091 A 
ATOM     15  C16 UNL     1      11.731   4.370  20.617  0.00  0.00    +0.053 A 
ATOM     16  H9  UNL     1      12.057   0.161  22.135  0.00  0.00    +0.167 HD
BRANCH  12  17
ATOM     17  C9  UNL     1      14.701   0.523  21.064  0.00  0.00    +0.052 A 
ATOM     18  C10 UNL     1      15.464   0.436  19.884  0.00  0.00    +0.014 A 
ATOM     19  C11 UNL     1      16.572  -0.413  19.815  0.00  0.00    +0.001 A 
ATOM     20  C12 UNL     1      16.934  -1.184  20.920  0.00  0.00    +0.003 A 
ATOM     21  C13 UNL     1      16.183  -1.114  22.096  0.00  0.00    +0.039 A 
ATOM     22  C14 UNL     1      15.070  -0.271  22.173  0.00  0.00    +0.134 A 
ATOM     23  F1  UNL     1      14.373  -0.218  23.339  0.00  0.00    -0.205 F 
ENDBRANCH  12  17
ENDBRANCH   4   7
BRANCH   1  25
ATOM     24  C1  UNL     1       9.438  10.764  20.495  0.00  0.00    +0.033 C 
ATOM     25  C2  UNL     1       9.863   9.640  21.443  0.00  0.00    +0.102 C 
BRANCH  25  26
ATOM     26  C17 UNL     1       9.224   9.797  22.810  0.00  0.00    -0.027 A 
ATOM     27  C18 UNL     1       7.826   9.893  22.949  0.00  0.00    +0.007 A 
ATOM     28  C19 UNL     1       7.248  10.025  24.216  0.00  0.00    +0.023 A 
ATOM     29  C20 UNL     1       8.049  10.045  25.367  0.00  0.00    +0.035 A 
ATOM     30  C22 UNL     1       9.446   9.972  25.229  0.00  0.00    +0.023 A 
ATOM     31  C23 UNL     1      10.025   9.844  23.964  0.00  0.00    +0.007 A 
BRANCH  29  32
ATOM     32  N5  UNL     1       7.433  10.198  26.657  0.00  0.00    -0.270 N 
ATOM     33  C21 UNL     1       7.090   9.100  27.514  0.00  0.00    +0.301 C 
ATOM     34  N6  UNL     1       6.775   9.336  28.885  0.00  0.00    -0.313 N 
ATOM     35  O2  UNL     1       7.029   7.926  27.057  0.00  0.00    -0.253 OA
ATOM     36  H17 UNL     1       7.151  11.159  26.961  0.00  0.00    +0.156 HD
ATOM     37  H18 UNL     1       6.539   8.539  29.518  0.00  0.00    +0.146 HD
ATOM     38  H19 UNL     1       6.821  10.300  29.282  0.00  0.00    +0.146 HD
ENDBRANCH  29  32
ENDBRANCH  25  26
ENDBRANCH   1  25
TORSDOF 5
ENDMDL
MODEL 3
REMARK VINA RESULT:    -7.700      8.953     10.391
REMARK INTER + INTRA:         -10.548
REMARK INTER:                 -10.128
REMARK INTRA:                  -0.419
REMARK UNBOUND:                -0.597
REMARK  Name = /home/qwerty/github/datacon2025hack/step_04_hit_selection/docking/ligands/lig_473.pdb
REMARK  6 active torsions:
REMARK  status: ('A' for Active; 'I' for Inactive)
REMARK    1  A    between atoms: C1_1  and  C2_2
REMARK    2  A    between atoms: C2_2  and  N1_3
REMARK    3  A    between atoms: C2_2  and  C17_23
REMARK    4  A    between atoms: N2_6  and  C4_7
REMARK    5  A    between atoms: C8_12  and  C9_13
REMARK    6  A    between atoms: C20_26  and  N5_27
REMARK                            x       y       z     vdW  Elec       q    Type
REMARK                         _______ _______ _______ _____ _____    ______ ____
ROOT
ATOM      1  N1  UNL     1      23.212  12.888  29.512  0.00  0.00    -0.293 N 
ATOM      2  C3  UNL     1      22.984  11.614  30.131  0.00  0.00    +0.304 C 
ATOM      3  O1  UNL     1      21.810  11.251  30.415  0.00  0.00    -0.252 OA
ATOM      4  N2  UNL     1      24.093  10.737  30.379  0.00  0.00    -0.269 N 
ATOM      5  H5  UNL     1      24.202  13.180  29.344  0.00  0.00    +0.151 HD
ATOM      6  H6  UNL     1      25.005  10.965  29.921  0.00  0.00    +0.156 HD
ENDROOT
BRANCH   4   7
ATOM      7  C4  UNL     1      23.982   9.483  31.071  0.00  0.00    +0.037 A 
ATOM      8  C5  UNL     1      24.799   9.244  32.206  0.00  0.00    +0.025 A 
ATOM      9  C6  UNL     1      24.712   8.029  32.911  0.00  0.00    +0.029 A 
ATOM     10  C7  UNL     1      23.787   7.090  32.464  0.00  0.00    +0.067 A 
ATOM     11  N3  UNL     1      23.519   5.881  32.971  0.00  0.00    -0.338 N 
ATOM     12  C8  UNL     1      22.528   5.401  32.171  0.00  0.00    +0.142 A 
ATOM     13  N4  UNL     1      22.170   6.266  31.183  0.00  0.00    -0.228 NA
ATOM     14  C15 UNL     1      22.982   7.318  31.391  0.00  0.00    +0.091 A 
ATOM     15  C16 UNL     1      23.042   8.505  30.666  0.00  0.00    +0.053 A 
ATOM     16  H9  UNL     1      23.962   5.437  33.807  0.00  0.00    +0.167 HD
BRANCH  12  17
ATOM     17  C9  UNL     1      21.897   4.068  32.348  0.00  0.00    +0.052 A 
ATOM     18  C10 UNL     1      22.054   3.069  31.369  0.00  0.00    +0.014 A 
ATOM     19  C11 UNL     1      21.457   1.815  31.531  0.00  0.00    +0.001 A 
ATOM     20  C12 UNL     1      20.698   1.543  32.669  0.00  0.00    +0.003 A 
ATOM     21  C13 UNL     1      20.527   2.526  33.647  0.00  0.00    +0.039 A 
ATOM     22  C14 UNL     1      21.118   3.784  33.491  0.00  0.00    +0.134 A 
ATOM     23  F1  UNL     1      20.942   4.711  34.470  0.00  0.00    -0.205 F 
ENDBRANCH  12  17
ENDBRANCH   4   7
BRANCH   1  25
ATOM     24  C1  UNL     1      21.862  14.783  30.309  0.00  0.00    +0.033 C 
ATOM     25  C2  UNL     1      22.118  13.800  29.163  0.00  0.00    +0.102 C 
BRANCH  25  26
ATOM     26  C17 UNL     1      22.423  14.528  27.868  0.00  0.00    -0.027 A 
ATOM     27  C18 UNL     1      21.878  15.799  27.604  0.00  0.00    +0.007 A 
ATOM     28  C19 UNL     1      22.177  16.465  26.412  0.00  0.00    +0.023 A 
ATOM     29  C20 UNL     1      23.039  15.886  25.469  0.00  0.00    +0.035 A 
ATOM     30  C22 UNL     1      23.568  14.608  25.719  0.00  0.00    +0.023 A 
ATOM     31  C23 UNL     1      23.266  13.940  26.909  0.00  0.00    +0.007 A 
BRANCH  29  32
ATOM     32  N5  UNL     1      23.319  16.583  24.242  0.00  0.00    -0.270 N 
ATOM     33  C21 UNL     1      22.722  16.250  22.980  0.00  0.00    +0.301 C 
ATOM     34  N6  UNL     1      22.805  17.165  21.889  0.00  0.00    -0.313 N 
ATOM     35  O2  UNL     1      22.154  15.137  22.815  0.00  0.00    -0.253 OA
ATOM     36  H17 UNL     1      24.052  17.329  24.252  0.00  0.00    +0.156 HD
ATOM     37  H18 UNL     1      22.360  16.935  20.972  0.00  0.00    +0.146 HD
ATOM     38  H19 UNL     1      23.270  18.091  22.007  0.00  0.00    +0.146 HD
ENDBRANCH  29  32
ENDBRANCH  25  26
ENDBRANCH   1  25
TORSDOF 5
ENDMDL
MODEL 4
REMARK VINA RESULT:    -7.620      4.206      7.517
REMARK INTER + INTRA:         -10.444
REMARK INTER:                 -10.364
REMARK INTRA:                  -0.080
REMARK UNBOUND:                -0.597
REMARK  Name = /home/qwerty/github/datacon2025hack/step_04_hit_selection/docking/ligands/lig_473.pdb
REMARK  6 active torsions:
REMARK  status: ('A' for Active; 'I' for Inactive)
REMARK    1  A    between atoms: C1_1  and  C2_2
REMARK    2  A    between atoms: C2_2  and  N1_3
REMARK    3  A    between atoms: C2_2  and  C17_23
REMARK    4  A    between atoms: N2_6  and  C4_7
REMARK    5  A    between atoms: C8_12  and  C9_13
REMARK    6  A    between atoms: C20_26  and  N5_27
REMARK                            x       y       z     vdW  Elec       q    Type
REMARK                         _______ _______ _______ _____ _____    ______ ____
ROOT
ATOM      1  N1  UNL     1      12.122  15.359  28.930  0.00  0.00    -0.293 N 
ATOM      2  C3  UNL     1      12.391  14.516  30.059  0.00  0.00    +0.304 C 
ATOM      3  O1  UNL     1      12.492  13.268  29.906  0.00  0.00    -0.252 OA
ATOM      4  N2  UNL     1      12.594  15.107  31.352  0.00  0.00    -0.269 N 
ATOM      5  H5  UNL     1      11.987  16.381  29.103  0.00  0.00    +0.151 HD
ATOM      6  H6  UNL     1      12.739  16.141  31.397  0.00  0.00    +0.156 HD
ENDROOT
BRANCH   4   7
ATOM      7  C4  UNL     1      12.783  14.348  32.557  0.00  0.00    +0.037 A 
ATOM      8  C5  UNL     1      11.781  14.385  33.562  0.00  0.00    +0.025 A 
ATOM      9  C6  UNL     1      11.930  13.649  34.752  0.00  0.00    +0.029 A 
ATOM     10  C7  UNL     1      13.079  12.877  34.893  0.00  0.00    +0.067 A 
ATOM     11  N3  UNL     1      13.434  12.093  35.917  0.00  0.00    -0.338 N 
ATOM     12  C8  UNL     1      14.625  11.561  35.528  0.00  0.00    +0.142 A 
ATOM     13  N4  UNL     1      15.025  11.986  34.298  0.00  0.00    -0.228 NA
ATOM     14  C15 UNL     1      14.034  12.814  33.925  0.00  0.00    +0.091 A 
ATOM     15  C16 UNL     1      13.925  13.531  32.736  0.00  0.00    +0.053 A 
ATOM     16  H9  UNL     1      12.893  11.923  36.795  0.00  0.00    +0.167 HD
BRANCH  12  17
ATOM     17  C9  UNL     1      15.416  10.615  36.355  0.00  0.00    +0.052 A 
ATOM     18  C10 UNL     1      15.392   9.235  36.081  0.00  0.00    +0.014 A 
ATOM     19  C11 UNL     1      16.132   8.341  36.861  0.00  0.00    +0.001 A 
ATOM     20  C12 UNL     1      16.905   8.813  37.922  0.00  0.00    +0.003 A 
ATOM     21  C13 UNL     1      16.934  10.179  38.212  0.00  0.00    +0.039 A 
ATOM     22  C14 UNL     1      16.194  11.080  37.439  0.00  0.00    +0.134 A 
ATOM     23  F1  UNL     1      16.259  12.404  37.742  0.00  0.00    -0.205 F 
ENDBRANCH  12  17
ENDBRANCH   4   7
BRANCH   1  25
ATOM     24  C1  UNL     1      13.331  14.344  27.043  0.00  0.00    +0.033 C 
ATOM     25  C2  UNL     1      11.977  14.829  27.570  0.00  0.00    +0.102 C 
BRANCH  25  26
ATOM     26  C17 UNL     1      10.942  13.720  27.538  0.00  0.00    -0.027 A 
ATOM     27  C18 UNL     1      11.284  12.421  27.115  0.00  0.00    +0.007 A 
ATOM     28  C19 UNL     1      10.324  11.405  27.102  0.00  0.00    +0.023 A 
ATOM     29  C20 UNL     1       9.011  11.659  27.527  0.00  0.00    +0.035 A 
ATOM     30  C22 UNL     1       8.662  12.961  27.928  0.00  0.00    +0.023 A 
ATOM     31  C23 UNL     1       9.620  13.977  27.937  0.00  0.00    +0.007 A 
BRANCH  29  32
ATOM     32  N5  UNL     1       8.036  10.602  27.488  0.00  0.00    -0.270 N 
ATOM     33  C21 UNL     1       7.584   9.890  28.649  0.00  0.00    +0.301 C 
ATOM     34  N6  UNL     1       6.409   9.084  28.579  0.00  0.00    -0.313 N 
ATOM     35  O2  UNL     1       8.237   9.942  29.727  0.00  0.00    -0.253 OA
ATOM     36  H17 UNL     1       7.689  10.282  26.555  0.00  0.00    +0.156 HD
ATOM     37  H18 UNL     1       6.066   8.576  29.424  0.00  0.00    +0.146 HD
ATOM     38  H19 UNL     1       5.855   9.030  27.697  0.00  0.00    +0.146 HD
ENDBRANCH  29  32
ENDBRANCH  25  26
ENDBRANCH   1  25
TORSDOF 5
ENDMDL
MODEL 5
REMARK VINA RESULT:    -7.539     13.915     16.070
REMARK INTER + INTRA:         -10.340
REMARK INTER:                  -9.649
REMARK INTRA:                  -0.691
REMARK UNBOUND:                -0.597
REMARK  Name = /home/qwerty/github/datacon2025hack/step_04_hit_selection/docking/ligands/lig_473.pdb
REMARK  6 active torsions:
REMARK  status: ('A' for Active; 'I' for Inactive)
REMARK    1  A    between atoms: C1_1  and  C2_2
REMARK    2  A    between atoms: C2_2  and  N1_3
REMARK    3  A    between atoms: C2_2  and  C17_23
REMARK    4  A    between atoms: N2_6  and  C4_7
REMARK    5  A    between atoms: C8_12  and  C9_13
REMARK    6  A    between atoms: C20_26  and  N5_27
REMARK                            x       y       z     vdW  Elec       q    Type
REMARK                         _______ _______ _______ _____ _____    ______ ____
ROOT
ATOM      1  N1  UNL     1      15.418   8.500  21.048  0.00  0.00    -0.293 N 
ATOM      2  C3  UNL     1      16.761   8.999  21.116  0.00  0.00    +0.304 C 
ATOM      3  O1  UNL     1      17.577   8.506  21.942  0.00  0.00    -0.252 OA
ATOM      4  N2  UNL     1      17.183  10.024  20.204  0.00  0.00    -0.269 N 
ATOM      5  H5  UNL     1      14.753   8.971  20.393  0.00  0.00    +0.151 HD
ATOM      6  H6  UNL     1      16.563  10.236  19.389  0.00  0.00    +0.156 HD
ENDROOT
BRANCH   4   7
ATOM      7  C4  UNL     1      18.476  10.650  20.248  0.00  0.00    +0.037 A 
ATOM      8  C5  UNL     1      19.370  10.467  19.161  0.00  0.00    +0.025 A 
ATOM      9  C6  UNL     1      20.641  11.071  19.169  0.00  0.00    +0.029 A 
ATOM     10  C7  UNL     1      20.974  11.861  20.265  0.00  0.00    +0.067 A 
ATOM     11  N3  UNL     1      22.106  12.536  20.490  0.00  0.00    -0.338 N 
ATOM     12  C8  UNL     1      21.893  13.148  21.687  0.00  0.00    +0.142 A 
ATOM     13  N4  UNL     1      20.668  12.876  22.216  0.00  0.00    -0.228 NA
ATOM     14  C15 UNL     1      20.115  12.062  21.301  0.00  0.00    +0.091 A 
ATOM     15  C16 UNL     1      18.851  11.479  21.333  0.00  0.00    +0.053 A 
ATOM     16  H9  UNL     1      22.941  12.590  19.864  0.00  0.00    +0.167 HD
BRANCH  12  17
ATOM     17  C9  UNL     1      22.889  14.021  22.357  0.00  0.00    +0.052 A 
ATOM     18  C10 UNL     1      23.586  15.001  21.625  0.00  0.00    +0.014 A 
ATOM     19  C11 UNL     1      24.528  15.822  22.252  0.00  0.00    +0.001 A 
ATOM     20  C12 UNL     1      24.785  15.677  23.615  0.00  0.00    +0.003 A 
ATOM     21  C13 UNL     1      24.107  14.705  24.355  0.00  0.00    +0.039 A 
ATOM     22  C14 UNL     1      23.166  13.877  23.735  0.00  0.00    +0.134 A 
ATOM     23  F1  UNL     1      22.514  12.953  24.489  0.00  0.00    -0.205 F 
ENDBRANCH  12  17
ENDBRANCH   4   7
BRANCH   1  25
ATOM     24  C1  UNL     1      13.476   7.623  22.278  0.00  0.00    +0.033 C 
ATOM     25  C2  UNL     1      14.943   7.403  21.897  0.00  0.00    +0.102 C 
BRANCH  25  26
ATOM     26  C17 UNL     1      15.140   6.068  21.204  0.00  0.00    -0.027 A 
ATOM     27  C18 UNL     1      16.296   5.297  21.430  0.00  0.00    +0.007 A 
ATOM     28  C19 UNL     1      16.460   4.063  20.794  0.00  0.00    +0.023 A 
ATOM     29  C20 UNL     1      15.468   3.565  19.937  0.00  0.00    +0.035 A 
ATOM     30  C22 UNL     1      14.322   4.342  19.692  0.00  0.00    +0.023 A 
ATOM     31  C23 UNL     1      14.160   5.577  20.324  0.00  0.00    +0.007 A 
BRANCH  29  32
ATOM     32  N5  UNL     1      15.666   2.300  19.282  0.00  0.00    -0.270 N 
ATOM     33  C21 UNL     1      15.128   1.059  19.760  0.00  0.00    +0.301 C 
ATOM     34  N6  UNL     1      15.102  -0.084  18.907  0.00  0.00    -0.313 N 
ATOM     35  O2  UNL     1      14.707   0.958  20.945  0.00  0.00    -0.253 OA
ATOM     36  H17 UNL     1      16.298   2.267  18.449  0.00  0.00    +0.156 HD
ATOM     37  H18 UNL     1      14.698  -0.986  19.244  0.00  0.00    +0.146 HD
ATOM     38  H19 UNL     1      15.444  -0.020  17.924  0.00  0.00    +0.146 HD
ENDBRANCH  29  32
ENDBRANCH  25  26
ENDBRANCH   1  25
TORSDOF 5
ENDMDL
MODEL 6
REMARK VINA RESULT:    -7.525      6.957     10.316
REMARK INTER + INTRA:         -10.321
REMARK INTER:                  -9.672
REMARK INTRA:                  -0.650
REMARK UNBOUND:                -0.597
REMARK  Name = /home/qwerty/github/datacon2025hack/step_04_hit_selection/docking/ligands/lig_473.pdb
REMARK  6 active torsions:
REMARK  status: ('A' for Active; 'I' for Inactive)
REMARK    1  A    between atoms: C1_1  and  C2_2
REMARK    2  A    between atoms: C2_2  and  N1_3
REMARK    3  A    between atoms: C2_2  and  C17_23
REMARK    4  A    between atoms: N2_6  and  C4_7
REMARK    5  A    between atoms: C8_12  and  C9_13
REMARK    6  A    between atoms: C20_26  and  N5_27
REMARK                            x       y       z     vdW  Elec       q    Type
REMARK                         _______ _______ _______ _____ _____    ______ ____
ROOT
ATOM      1  N1  UNL     1      21.031  14.299  30.929  0.00  0.00    -0.293 N 
ATOM      2  C3  UNL     1      19.981  14.041  31.873  0.00  0.00    +0.304 C 
ATOM      3  O1  UNL     1      19.011  14.841  31.974  0.00  0.00    -0.252 OA
ATOM      4  N2  UNL     1      20.015  12.842  32.661  0.00  0.00    -0.269 N 
ATOM      5  H5  UNL     1      21.846  13.645  30.914  0.00  0.00    +0.151 HD
ATOM      6  H6  UNL     1      20.696  12.097  32.385  0.00  0.00    +0.156 HD
ENDROOT
BRANCH   4   7
ATOM      7  C4  UNL     1      19.062  12.534  33.691  0.00  0.00    +0.037 A 
ATOM      8  C5  UNL     1      19.445  12.672  35.051  0.00  0.00    +0.025 A 
ATOM      9  C6  UNL     1      18.534  12.385  36.085  0.00  0.00    +0.029 A 
ATOM     10  C7  UNL     1      17.252  11.984  35.723  0.00  0.00    +0.067 A 
ATOM     11  N3  UNL     1      16.223  11.670  36.518  0.00  0.00    -0.338 N 
ATOM     12  C8  UNL     1      15.217  11.372  35.652  0.00  0.00    +0.142 A 
ATOM     13  N4  UNL     1      15.582  11.488  34.345  0.00  0.00    -0.228 NA
ATOM     14  C15 UNL     1      16.868  11.871  34.422  0.00  0.00    +0.091 A 
ATOM     15  C16 UNL     1      17.741  12.141  33.371  0.00  0.00    +0.053 A 
ATOM     16  H9  UNL     1      16.209  11.682  37.563  0.00  0.00    +0.167 HD
BRANCH  12  17
ATOM     17  C9  UNL     1      13.856  10.959  36.079  0.00  0.00    +0.052 A 
ATOM     18  C10 UNL     1      13.375   9.669  35.782  0.00  0.00    +0.014 A 
ATOM     19  C11 UNL     1      12.092   9.280  36.178  0.00  0.00    +0.001 A 
ATOM     20  C12 UNL     1      11.275  10.169  36.875  0.00  0.00    +0.003 A 
ATOM     21  C13 UNL     1      11.734  11.455  37.172  0.00  0.00    +0.039 A 
ATOM     22  C14 UNL     1      13.014  11.854  36.776  0.00  0.00    +0.134 A 
ATOM     23  F1  UNL     1      13.433  13.108  37.095  0.00  0.00    -0.205 F 
ENDBRANCH  12  17
ENDBRANCH   4   7
BRANCH   1  25
ATOM     24  C1  UNL     1      21.491  16.712  30.795  0.00  0.00    +0.033 C 
ATOM     25  C2  UNL     1      21.019  15.466  30.041  0.00  0.00    +0.102 C 
BRANCH  25  26
ATOM     26  C17 UNL     1      21.870  15.208  28.812  0.00  0.00    -0.027 A 
ATOM     27  C18 UNL     1      22.706  14.077  28.733  0.00  0.00    +0.007 A 
ATOM     28  C19 UNL     1      23.476  13.844  27.590  0.00  0.00    +0.023 A 
ATOM     29  C20 UNL     1      23.414  14.722  26.497  0.00  0.00    +0.035 A 
ATOM     30  C22 UNL     1      22.597  15.862  26.582  0.00  0.00    +0.023 A 
ATOM     31  C23 UNL     1      21.831  16.098  27.725  0.00  0.00    +0.007 A 
BRANCH  29  32
ATOM     32  N5  UNL     1      24.228  14.469  25.338  0.00  0.00    -0.270 N 
ATOM     33  C21 UNL     1      23.725  13.916  24.113  0.00  0.00    +0.301 C 
ATOM     34  N6  UNL     1      24.510  13.984  22.925  0.00  0.00    -0.313 N 
ATOM     35  O2  UNL     1      22.605  13.336  24.085  0.00  0.00    -0.253 OA
ATOM     36  H17 UNL     1      25.259  14.629  25.413  0.00  0.00    +0.156 HD
ATOM     37  H18 UNL     1      24.143  13.597  22.026  0.00  0.00    +0.146 HD
ATOM     38  H19 UNL     1      25.437  14.462  22.928  0.00  0.00    +0.146 HD
ENDBRANCH  29  32
ENDBRANCH  25  26
ENDBRANCH   1  25
TORSDOF 5
ENDMDL
MODEL 7
REMARK VINA RESULT:    -7.475     13.659     15.275
REMARK INTER + INTRA:         -10.258
REMARK INTER:                 -10.811
REMARK INTRA:                   0.553
REMARK UNBOUND:                -0.597
REMARK  Name = /home/qwerty/github/datacon2025hack/step_04_hit_selection/docking/ligands/lig_473.pdb
REMARK  6 active torsions:
REMARK  status: ('A' for Active; 'I' for Inactive)
REMARK    1  A    between atoms: C1_1  and  C2_2
REMARK    2  A    between atoms: C2_2  and  N1_3
REMARK    3  A    between atoms: C2_2  and  C17_23
REMARK    4  A    between atoms: N2_6  and  C4_7
REMARK    5  A    between atoms: C8_12  and  C9_13
REMARK    6  A    between atoms: C20_26  and  N5_27
REMARK                            x       y       z     vdW  Elec       q    Type
REMARK                         _______ _______ _______ _____ _____    ______ ____
ROOT
ATOM      1  N1  UNL     1      11.939   0.737  21.771  0.00  0.00    -0.293 N 
ATOM      2  C3  UNL     1      13.101   0.580  22.597  0.00  0.00    +0.304 C 
ATOM      3  O1  UNL     1      13.107   1.036  23.773  0.00  0.00    -0.252 OA
ATOM      4  N2  UNL     1      14.236  -0.142  22.095  0.00  0.00    -0.269 N 
ATOM      5  H5  UNL     1      11.991   0.398  20.784  0.00  0.00    +0.151 HD
ATOM      6  H6  UNL     1      14.108  -0.703  21.221  0.00  0.00    +0.156 HD
ENDROOT
BRANCH   4   7
ATOM      7  C4  UNL     1      15.476  -0.279  22.807  0.00  0.00    +0.037 A 
ATOM      8  C5  UNL     1      16.038  -1.571  22.976  0.00  0.00    +0.025 A 
ATOM      9  C6  UNL     1      17.254  -1.741  23.663  0.00  0.00    +0.029 A 
ATOM     10  C7  UNL     1      17.885  -0.600  24.148  0.00  0.00    +0.067 A 
ATOM     11  N3  UNL     1      19.041  -0.509  24.816  0.00  0.00    -0.338 N 
ATOM     12  C8  UNL     1      19.195   0.827  25.027  0.00  0.00    +0.142 A 
ATOM     13  N4  UNL     1      18.177   1.572  24.514  0.00  0.00    -0.228 NA
ATOM     14  C15 UNL     1      17.367   0.646  23.971  0.00  0.00    +0.091 A 
ATOM     15  C16 UNL     1      16.165   0.855  23.301  0.00  0.00    +0.053 A 
ATOM     16  H9  UNL     1      19.676  -1.294  25.082  0.00  0.00    +0.167 HD
BRANCH  12  17
ATOM     17  C9  UNL     1      20.352   1.421  25.743  0.00  0.00    +0.052 A 
ATOM     18  C10 UNL     1      20.641   1.045  27.069  0.00  0.00    +0.014 A 
ATOM     19  C11 UNL     1      21.727   1.607  27.747  0.00  0.00    +0.001 A 
ATOM     20  C12 UNL     1      22.537   2.548  27.113  0.00  0.00    +0.003 A 
ATOM     21  C13 UNL     1      22.261   2.937  25.800  0.00  0.00    +0.039 A 
ATOM     22  C14 UNL     1      21.174   2.383  25.115  0.00  0.00    +0.134 A 
ATOM     23  F1  UNL     1      20.945   2.774  23.833  0.00  0.00    -0.205 F 
ENDBRANCH  12  17
ENDBRANCH   4   7
BRANCH   1  25
ATOM     24  C1  UNL     1      10.714   1.461  23.778  0.00  0.00    +0.033 C 
ATOM     25  C2  UNL     1      10.719   1.397  22.248  0.00  0.00    +0.102 C 
BRANCH  25  26
ATOM     26  C17 UNL     1      10.589   2.780  21.637  0.00  0.00    -0.027 A 
ATOM     27  C18 UNL     1      11.562   3.275  20.748  0.00  0.00    +0.007 A 
ATOM     28  C19 UNL     1      11.424   4.545  20.182  0.00  0.00    +0.023 A 
ATOM     29  C20 UNL     1      10.305   5.339  20.476  0.00  0.00    +0.035 A 
ATOM     30  C22 UNL     1       9.343   4.856  21.380  0.00  0.00    +0.023 A 
ATOM     31  C23 UNL     1       9.482   3.588  21.949  0.00  0.00    +0.007 A 
BRANCH  29  32
ATOM     32  N5  UNL     1      10.193   6.650  19.894  0.00  0.00    -0.270 N 
ATOM     33  C21 UNL     1      10.937   7.791  20.345  0.00  0.00    +0.301 C 
ATOM     34  N6  UNL     1      11.007   8.962  19.536  0.00  0.00    -0.313 N 
ATOM     35  O2  UNL     1      11.503   7.780  21.473  0.00  0.00    -0.253 OA
ATOM     36  H17 UNL     1       9.477   6.801  19.147  0.00  0.00    +0.156 HD
ATOM     37  H18 UNL     1      11.560   9.790  19.852  0.00  0.00    +0.146 HD
ATOM     38  H19 UNL     1      10.547   8.989  18.600  0.00  0.00    +0.146 HD
ENDBRANCH  29  32
ENDBRANCH  25  26
ENDBRANCH   1  25
TORSDOF 5
ENDMDL
MODEL 8
REMARK VINA RESULT:    -7.414      8.148      9.390
REMARK INTER + INTRA:         -10.178
REMARK INTER:                  -9.478
REMARK INTRA:                  -0.701
REMARK UNBOUND:                -0.597
REMARK  Name = /home/qwerty/github/datacon2025hack/step_04_hit_selection/docking/ligands/lig_473.pdb
REMARK  6 active torsions:
REMARK  status: ('A' for Active; 'I' for Inactive)
REMARK    1  A    between atoms: C1_1  and  C2_2
REMARK    2  A    between atoms: C2_2  and  N1_3
REMARK    3  A    between atoms: C2_2  and  C17_23
REMARK    4  A    between atoms: N2_6  and  C4_7
REMARK    5  A    between atoms: C8_12  and  C9_13
REMARK    6  A    between atoms: C20_26  and  N5_27
REMARK                            x       y       z     vdW  Elec       q    Type
REMARK                         _______ _______ _______ _____ _____    ______ ____
ROOT
ATOM      1  N1  UNL     1      12.718  14.326  29.835  0.00  0.00    -0.293 N 
ATOM      2  C3  UNL     1      14.123  14.595  29.729  0.00  0.00    +0.304 C 
ATOM      3  O1  UNL     1      14.918  14.150  30.601  0.00  0.00    -0.252 OA
ATOM      4  N2  UNL     1      14.622  15.328  28.600  0.00  0.00    -0.269 N 
ATOM      5  H5  UNL     1      12.082  14.759  29.127  0.00  0.00    +0.151 HD
ATOM      6  H6  UNL     1      13.977  15.470  27.789  0.00  0.00    +0.156 HD
ENDROOT
BRANCH   4   7
ATOM      7  C4  UNL     1      15.994  15.722  28.446  0.00  0.00    +0.037 A 
ATOM      8  C5  UNL     1      16.519  16.744  29.281  0.00  0.00    +0.025 A 
ATOM      9  C6  UNL     1      17.860  17.151  29.161  0.00  0.00    +0.029 A 
ATOM     10  C7  UNL     1      18.648  16.505  28.213  0.00  0.00    +0.067 A 
ATOM     11  N3  UNL     1      19.938  16.709  27.926  0.00  0.00    -0.338 N 
ATOM     12  C8  UNL     1      20.205  15.802  26.947  0.00  0.00    +0.142 A 
ATOM     13  N4  UNL     1      19.127  15.040  26.613  0.00  0.00    -0.228 NA
ATOM     14  C15 UNL     1      18.162  15.508  27.424  0.00  0.00    +0.091 A 
ATOM     15  C16 UNL     1      16.840  15.080  27.510  0.00  0.00    +0.053 A 
ATOM     16  H9  UNL     1      20.583  17.395  28.380  0.00  0.00    +0.167 HD
BRANCH  12  17
ATOM     17  C9  UNL     1      21.534  15.652  26.300  0.00  0.00    +0.052 A 
ATOM     18  C10 UNL     1      21.956  16.566  25.317  0.00  0.00    +0.014 A 
ATOM     19  C11 UNL     1      23.205  16.424  24.703  0.00  0.00    +0.001 A 
ATOM     20  C12 UNL     1      24.046  15.371  25.063  0.00  0.00    +0.003 A 
ATOM     21  C13 UNL     1      23.638  14.451  26.032  0.00  0.00    +0.039 A 
ATOM     22  C14 UNL     1      22.390  14.583  26.648  0.00  0.00    +0.134 A 
ATOM     23  F1  UNL     1      22.033  13.678  27.598  0.00  0.00    -0.205 F 
ENDBRANCH  12  17
ENDBRANCH   4   7
BRANCH   1  25
ATOM     24  C1  UNL     1      11.799  14.414  32.115  0.00  0.00    +0.033 C 
ATOM     25  C2  UNL     1      12.151  13.521  30.922  0.00  0.00    +0.102 C 
BRANCH  25  26
ATOM     26  C17 UNL     1      10.941  12.746  30.436  0.00  0.00    -0.027 A 
ATOM     27  C18 UNL     1      10.764  11.391  30.776  0.00  0.00    +0.007 A 
ATOM     28  C19 UNL     1       9.638  10.691  30.333  0.00  0.00    +0.023 A 
ATOM     29  C20 UNL     1       8.659  11.331  29.557  0.00  0.00    +0.035 A 
ATOM     30  C22 UNL     1       8.845  12.678  29.198  0.00  0.00    +0.023 A 
ATOM     31  C23 UNL     1       9.972  13.376  29.638  0.00  0.00    +0.007 A 
BRANCH  29  32
ATOM     32  N5  UNL     1       7.518  10.586  29.099  0.00  0.00    -0.270 N 
ATOM     33  C21 UNL     1       7.574   9.599  28.058  0.00  0.00    +0.301 C 
ATOM     34  N6  UNL     1       6.488   8.694  27.875  0.00  0.00    -0.313 N 
ATOM     35  O2  UNL     1       8.563   9.548  27.277  0.00  0.00    -0.253 OA
ATOM     36  H17 UNL     1       6.579  10.824  29.493  0.00  0.00    +0.156 HD
ATOM     37  H18 UNL     1       6.529   7.964  27.129  0.00  0.00    +0.146 HD
ATOM     38  H19 UNL     1       5.662   8.720  28.512  0.00  0.00    +0.146 HD
ENDBRANCH  29  32
ENDBRANCH  25  26
ENDBRANCH   1  25
TORSDOF 5
ENDMDL
MODEL 9
REMARK VINA RESULT:    -7.384      7.432      8.640
REMARK INTER + INTRA:         -10.140
REMARK INTER:                  -9.251
REMARK INTRA:                  -0.888
REMARK UNBOUND:                -0.597
REMARK  Name = /home/qwerty/github/datacon2025hack/step_04_hit_selection/docking/ligands/lig_473.pdb
REMARK  6 active torsions:
REMARK  status: ('A' for Active; 'I' for Inactive)
REMARK    1  A    between atoms: C1_1  and  C2_2
REMARK    2  A    between atoms: C2_2  and  N1_3
REMARK    3  A    between atoms: C2_2  and  C17_23
REMARK    4  A    between atoms: N2_6  and  C4_7
REMARK    5  A    between atoms: C8_12  and  C9_13
REMARK    6  A    between atoms: C20_26  and  N5_27
REMARK                            x       y       z     vdW  Elec       q    Type
REMARK                         _______ _______ _______ _____ _____    ______ ____
ROOT
ATOM      1  N1  UNL     1      17.782  14.015  34.374  0.00  0.00    -0.293 N 
ATOM      2  C3  UNL     1      18.022  14.194  32.971  0.00  0.00    +0.304 C 
ATOM      3  O1  UNL     1      17.516  13.396  32.136  0.00  0.00    -0.252 OA
ATOM      4  N2  UNL     1      18.799  15.315  32.522  0.00  0.00    -0.269 N 
ATOM      5  H5  UNL     1      18.264  14.661  35.039  0.00  0.00    +0.151 HD
ATOM      6  H6  UNL     1      18.997  16.077  33.211  0.00  0.00    +0.156 HD
ENDROOT
BRANCH   4   7
ATOM      7  C4  UNL     1      19.169  15.535  31.152  0.00  0.00    +0.037 A 
ATOM      8  C5  UNL     1      18.403  16.433  30.363  0.00  0.00    +0.025 A 
ATOM      9  C6  UNL     1      18.741  16.676  29.019  0.00  0.00    +0.029 A 
ATOM     10  C7  UNL     1      19.856  16.020  28.506  0.00  0.00    +0.067 A 
ATOM     11  N3  UNL     1      20.372  16.097  27.275  0.00  0.00    -0.338 N 
ATOM     12  C8  UNL     1      21.457  15.277  27.320  0.00  0.00    +0.142 A 
ATOM     13  N4  UNL     1      21.635  14.690  28.536  0.00  0.00    -0.228 NA
ATOM     14  C15 UNL     1      20.611  15.175  29.259  0.00  0.00    +0.091 A 
ATOM     15  C16 UNL     1      20.306  14.905  30.591  0.00  0.00    +0.053 A 
ATOM     16  H9  UNL     1      20.022  16.681  26.481  0.00  0.00    +0.167 HD
BRANCH  12  17
ATOM     17  C9  UNL     1      22.360  15.038  26.166  0.00  0.00    +0.052 A 
ATOM     18  C10 UNL     1      23.275  16.027  25.758  0.00  0.00    +0.014 A 
ATOM     19  C11 UNL     1      24.123  15.805  24.668  0.00  0.00    +0.001 A 
ATOM     20  C12 UNL     1      24.070  14.597  23.974  0.00  0.00    +0.003 A 
ATOM     21  C13 UNL     1      23.163  13.608  24.362  0.00  0.00    +0.039 A 
ATOM     22  C14 UNL     1      22.308  13.822  25.448  0.00  0.00    +0.134 A 
ATOM     23  F1  UNL     1      21.449  12.831  25.805  0.00  0.00    -0.205 F 
ENDBRANCH  12  17
ENDBRANCH   4   7
BRANCH   1  25
ATOM     24  C1  UNL     1      17.419  12.507  36.283  0.00  0.00    +0.033 C 
ATOM     25  C2  UNL     1      16.936  12.936  34.895  0.00  0.00    +0.102 C 
BRANCH  25  26
ATOM     26  C17 UNL     1      15.481  13.365  34.923  0.00  0.00    -0.027 A 
ATOM     27  C18 UNL     1      15.051  14.413  35.758  0.00  0.00    +0.007 A 
ATOM     28  C19 UNL     1      13.709  14.807  35.765  0.00  0.00    +0.023 A 
ATOM     29  C20 UNL     1      12.776  14.178  34.928  0.00  0.00    +0.035 A 
ATOM     30  C22 UNL     1      13.200  13.116  34.109  0.00  0.00    +0.023 A 
ATOM     31  C23 UNL     1      14.539  12.720  34.104  0.00  0.00    +0.007 A 
BRANCH  29  32
ATOM     32  N5  UNL     1      11.399  14.590  34.965  0.00  0.00    -0.270 N 
ATOM     33  C21 UNL     1      10.430  14.058  35.881  0.00  0.00    +0.301 C 
ATOM     34  N6  UNL     1       9.184  14.725  36.067  0.00  0.00    -0.313 N 
ATOM     35  O2  UNL     1      10.657  12.982  36.499  0.00  0.00    -0.253 OA
ATOM     36  H17 UNL     1      11.063  15.262  34.238  0.00  0.00    +0.156 HD
ATOM     37  H18 UNL     1       8.481  14.351  36.744  0.00  0.00    +0.146 HD
ATOM     38  H19 UNL     1       8.979  15.616  35.567  0.00  0.00    +0.146 HD
ENDBRANCH  29  32
ENDBRANCH  25  26
ENDBRANCH   1  25
TORSDOF 5
ENDMDL
