MODEL 1
REMARK VINA RESULT:    -6.592      0.000      0.000
REMARK INTER + INTRA:          -8.189
REMARK INTER:                  -7.556
REMARK INTRA:                  -0.633
REMARK UNBOUND:                -0.633
REMARK  Name = /home/qwerty/github/datacon2025hack/step_04_hit_selection/docking/ligands/lig_453.pdb
REMARK  5 active torsions:
REMARK  status: ('A' for Active; 'I' for Inactive)
REMARK    1  A    between atoms: C1_1  and  C2_2
REMARK    2  A    between atoms: C2_2  and  C3_3
REMARK    3  A    between atoms: C2_2  and  C4_4
REMARK    4  A    between atoms: C10_13  and  C11_15
REMARK    5  A    between atoms: C15_20  and  O2_21
REMARK                            x       y       z     vdW  Elec       q    Type
REMARK                         _______ _______ _______ _____ _____    ______ ____
ROOT
ATOM      1  C4  UNL     1       8.787  10.265  26.300  0.00  0.00    +0.132 A 
ATOM      2  N1  UNL     1      10.028  10.498  25.794  0.00  0.00    -0.240 NA
ATOM      3  C5  UNL     1      10.938  11.236  26.479  0.00  0.00    +0.119 A 
ATOM      4  C6  UNL     1      10.611  11.771  27.729  0.00  0.00    +0.009 A 
ATOM      5  C7  UNL     1       9.317  11.537  28.229  0.00  0.00    +0.051 A 
ATOM      6  N2  UNL     1       8.447  10.780  27.511  0.00  0.00    -0.236 NA
ATOM      7  C8  UNL     1       8.904  12.037  29.583  0.00  0.00    +0.075 C 
ATOM      8  C9  UNL     1       9.707  13.272  29.983  0.00  0.00    +0.114 C 
ATOM      9  N3  UNL     1      11.139  13.004  29.807  0.00  0.00    -0.293 N 
ATOM     10  C10 UNL     1      12.093  13.419  30.805  0.00  0.00    +0.252 C 
ATOM     11  O1  UNL     1      13.228  13.835  30.449  0.00  0.00    -0.270 OA
ATOM     12  C19 UNL     1      11.620  12.613  28.475  0.00  0.00    +0.146 C 
ENDROOT
BRANCH  10  13
ATOM     13  C11 UNL     1      11.792  13.289  32.247  0.00  0.00    +0.098 A 
ATOM     14  C12 UNL     1      11.661  12.001  32.802  0.00  0.00    +0.023 A 
ATOM     15  C13 UNL     1      11.426  11.877  34.168  0.00  0.00    -0.025 A 
ATOM     16  C14 UNL     1      11.332  12.986  34.957  0.00  0.00    +0.048 A 
ATOM     17  N4  UNL     1      11.447  14.235  34.440  0.00  0.00    -0.217 NA
ATOM     18  C15 UNL     1      11.667  14.419  33.105  0.00  0.00    +0.225 A 
ATOM     19  C16 UNL     1      11.092  12.660  36.376  0.00  0.00    +0.056 C 
ATOM     20  C17 UNL     1      11.044  11.118  36.392  0.00  0.00    +0.011 C 
ATOM     21  C18 UNL     1      11.269  10.628  34.946  0.00  0.00    +0.037 C 
BRANCH  18  22
ATOM     22  O2  UNL     1      11.735  15.726  32.621  0.00  0.00    -0.492 OA
ATOM     23  H14 UNL     1      11.592  16.540  33.204  0.00  0.00    +0.294 HD
ENDBRANCH  18  22
ENDBRANCH  10  13
BRANCH   1  25
ATOM     24  C1  UNL     1       8.278   7.990  25.406  0.00  0.00    +0.015 C 
ATOM     25  C2  UNL     1       7.794   9.438  25.530  0.00  0.00    +0.051 C 
ATOM     26  C3  UNL     1       7.539  10.051  24.149  0.00  0.00    +0.015 C 
ENDBRANCH   1  25
TORSDOF 3
ENDMDL
MODEL 2
REMARK VINA RESULT:    -6.508     13.880     16.664
REMARK INTER + INTRA:          -8.093
REMARK INTER:                  -7.810
REMARK INTRA:                  -0.283
REMARK UNBOUND:                -0.633
REMARK  Name = /home/qwerty/github/datacon2025hack/step_04_hit_selection/docking/ligands/lig_453.pdb
REMARK  5 active torsions:
REMARK  status: ('A' for Active; 'I' for Inactive)
REMARK    1  A    between atoms: C1_1  and  C2_2
REMARK    2  A    between atoms: C2_2  and  C3_3
REMARK    3  A    between atoms: C2_2  and  C4_4
REMARK    4  A    between atoms: C10_13  and  C11_15
REMARK    5  A    between atoms: C15_20  and  O2_21
REMARK                            x       y       z     vdW  Elec       q    Type
REMARK                         _______ _______ _______ _____ _____    ______ ____
ROOT
ATOM      1  C4  UNL     1      22.289   1.730  28.556  0.00  0.00    +0.132 A 
ATOM      2  N1  UNL     1      21.108   2.268  28.965  0.00  0.00    -0.240 NA
ATOM      3  C5  UNL     1      20.549   3.315  28.306  0.00  0.00    +0.119 A 
ATOM      4  C6  UNL     1      21.182   3.859  27.185  0.00  0.00    +0.009 A 
ATOM      5  C7  UNL     1      22.412   3.303  26.787  0.00  0.00    +0.051 A 
ATOM      6  N2  UNL     1      22.925   2.248  27.472  0.00  0.00    -0.236 NA
ATOM      7  C8  UNL     1      23.133   3.801  25.567  0.00  0.00    +0.075 C 
ATOM      8  C9  UNL     1      22.777   5.255  25.271  0.00  0.00    +0.114 C 
ATOM      9  N3  UNL     1      21.317   5.411  25.264  0.00  0.00    -0.293 N 
ATOM     10  C10 UNL     1      20.667   6.198  24.246  0.00  0.00    +0.252 C 
ATOM     11  O1  UNL     1      19.659   6.894  24.543  0.00  0.00    -0.270 OA
ATOM     12  C19 UNL     1      20.567   5.040  26.471  0.00  0.00    +0.146 C 
ENDROOT
BRANCH  10  13
ATOM     13  C11 UNL     1      21.113   6.141  22.837  0.00  0.00    +0.098 A 
ATOM     14  C12 UNL     1      22.373   6.676  22.499  0.00  0.00    +0.023 A 
ATOM     15  C13 UNL     1      22.813   6.579  21.183  0.00  0.00    -0.025 A 
ATOM     16  C14 UNL     1      22.041   5.971  20.238  0.00  0.00    +0.048 A 
ATOM     17  N4  UNL     1      20.823   5.457  20.542  0.00  0.00    -0.217 NA
ATOM     18  C15 UNL     1      20.333   5.531  21.814  0.00  0.00    +0.225 A 
ATOM     19  C16 UNL     1      22.676   5.954  18.905  0.00  0.00    +0.056 C 
ATOM     20  C17 UNL     1      24.024   6.668  19.135  0.00  0.00    +0.011 C 
ATOM     21  C18 UNL     1      24.096   7.062  20.625  0.00  0.00    +0.037 C 
BRANCH  18  22
ATOM     22  O2  UNL     1      19.057   5.025  22.060  0.00  0.00    -0.492 OA
ATOM     23  H14 UNL     1      18.708   4.830  22.989  0.00  0.00    +0.294 HD
ENDBRANCH  18  22
ENDBRANCH  10  13
BRANCH   1  25
ATOM     24  C1  UNL     1      24.419   0.662  29.300  0.00  0.00    +0.015 C 
ATOM     25  C2  UNL     1      22.891   0.565  29.294  0.00  0.00    +0.051 C 
ATOM     26  C3  UNL     1      22.428  -0.759  28.678  0.00  0.00    +0.015 C 
ENDBRANCH   1  25
TORSDOF 3
ENDMDL
MODEL 3
REMARK VINA RESULT:    -6.441     13.281     14.747
REMARK INTER + INTRA:          -8.015
REMARK INTER:                  -7.367
REMARK INTRA:                  -0.648
REMARK UNBOUND:                -0.633
REMARK  Name = /home/qwerty/github/datacon2025hack/step_04_hit_selection/docking/ligands/lig_453.pdb
REMARK  5 active torsions:
REMARK  status: ('A' for Active; 'I' for Inactive)
REMARK    1  A    between atoms: C1_1  and  C2_2
REMARK    2  A    between atoms: C2_2  and  C3_3
REMARK    3  A    between atoms: C2_2  and  C4_4
REMARK    4  A    between atoms: C10_13  and  C11_15
REMARK    5  A    between atoms: C15_20  and  O2_21
REMARK                            x       y       z     vdW  Elec       q    Type
REMARK                         _______ _______ _______ _____ _____    ______ ____
ROOT
ATOM      1  C4  UNL     1      21.344   1.011  30.450  0.00  0.00    +0.132 A 
ATOM      2  N1  UNL     1      22.014   1.856  31.279  0.00  0.00    -0.240 NA
ATOM      3  C5  UNL     1      21.428   2.351  32.399  0.00  0.00    +0.119 A 
ATOM      4  C6  UNL     1      20.115   1.994  32.722  0.00  0.00    +0.009 A 
ATOM      5  C7  UNL     1      19.430   1.135  31.843  0.00  0.00    +0.051 A 
ATOM      6  N2  UNL     1      20.064   0.656  30.741  0.00  0.00    -0.236 NA
ATOM      7  C8  UNL     1      18.034   0.667  32.142  0.00  0.00    +0.075 C 
ATOM      8  C9  UNL     1      17.294   1.671  33.023  0.00  0.00    +0.114 C 
ATOM      9  N3  UNL     1      18.123   2.006  34.187  0.00  0.00    -0.293 N 
ATOM     10  C10 UNL     1      17.540   2.093  35.503  0.00  0.00    +0.252 C 
ATOM     11  O1  UNL     1      17.954   2.967  36.312  0.00  0.00    -0.270 OA
ATOM     12  C19 UNL     1      19.461   2.568  33.956  0.00  0.00    +0.146 C 
ENDROOT
BRANCH  10  13
ATOM     13  C11 UNL     1      16.520   1.121  35.951  0.00  0.00    +0.098 A 
ATOM     14  C12 UNL     1      16.861  -0.244  36.013  0.00  0.00    +0.023 A 
ATOM     15  C13 UNL     1      15.917  -1.153  36.480  0.00  0.00    -0.025 A 
ATOM     16  C14 UNL     1      14.684  -0.726  36.879  0.00  0.00    +0.048 A 
ATOM     17  N4  UNL     1      14.334   0.583  36.819  0.00  0.00    -0.217 NA
ATOM     18  C15 UNL     1      15.215   1.519  36.359  0.00  0.00    +0.225 A 
ATOM     19  C16 UNL     1      13.823  -1.828  37.352  0.00  0.00    +0.056 C 
ATOM     20  C17 UNL     1      14.713  -3.079  37.197  0.00  0.00    +0.011 C 
ATOM     21  C18 UNL     1      16.073  -2.617  36.633  0.00  0.00    +0.037 C 
BRANCH  18  22
ATOM     22  O2  UNL     1      14.787   2.845  36.279  0.00  0.00    -0.492 OA
ATOM     23  H14 UNL     1      13.945   3.182  36.724  0.00  0.00    +0.294 HD
ENDBRANCH  18  22
ENDBRANCH  10  13
BRANCH   1  25
ATOM     24  C1  UNL     1      23.507   0.793  29.224  0.00  0.00    +0.015 C 
ATOM     25  C2  UNL     1      22.011   0.466  29.216  0.00  0.00    +0.051 C 
ATOM     26  C3  UNL     1      21.337   1.014  27.953  0.00  0.00    +0.015 C 
ENDBRANCH   1  25
TORSDOF 3
ENDMDL
MODEL 4
REMARK VINA RESULT:    -6.319     13.874     16.304
REMARK INTER + INTRA:          -7.876
REMARK INTER:                  -7.238
REMARK INTRA:                  -0.638
REMARK UNBOUND:                -0.633
REMARK  Name = /home/qwerty/github/datacon2025hack/step_04_hit_selection/docking/ligands/lig_453.pdb
REMARK  5 active torsions:
REMARK  status: ('A' for Active; 'I' for Inactive)
REMARK    1  A    between atoms: C1_1  and  C2_2
REMARK    2  A    between atoms: C2_2  and  C3_3
REMARK    3  A    between atoms: C2_2  and  C4_4
REMARK    4  A    between atoms: C10_13  and  C11_15
REMARK    5  A    between atoms: C15_20  and  O2_21
REMARK                            x       y       z     vdW  Elec       q    Type
REMARK                         _______ _______ _______ _____ _____    ______ ____
ROOT
ATOM      1  C4  UNL     1      21.932   1.965  27.837  0.00  0.00    +0.132 A 
ATOM      2  N1  UNL     1      21.268   1.097  27.027  0.00  0.00    -0.240 NA
ATOM      3  C5  UNL     1      20.719   1.509  25.856  0.00  0.00    +0.119 A 
ATOM      4  C6  UNL     1      20.832   2.845  25.459  0.00  0.00    +0.009 A 
ATOM      5  C7  UNL     1      21.506   3.734  26.317  0.00  0.00    +0.051 A 
ATOM      6  N2  UNL     1      22.049   3.270  27.472  0.00  0.00    -0.236 NA
ATOM      7  C8  UNL     1      21.710   5.174  25.941  0.00  0.00    +0.075 C 
ATOM      8  C9  UNL     1      20.623   5.653  24.982  0.00  0.00    +0.114 C 
ATOM      9  N3  UNL     1      20.503   4.708  23.865  0.00  0.00    -0.293 N 
ATOM     10  C10 UNL     1      20.364   5.184  22.512  0.00  0.00    +0.252 C 
ATOM     11  O1  UNL     1      19.621   4.563  21.705  0.00  0.00    -0.270 OA
ATOM     12  C19 UNL     1      20.198   3.302  24.166  0.00  0.00    +0.146 C 
ENDROOT
BRANCH  10  13
ATOM     13  C11 UNL     1      21.141   6.345  22.028  0.00  0.00    +0.098 A 
ATOM     14  C12 UNL     1      22.543   6.236  21.937  0.00  0.00    +0.023 A 
ATOM     15  C13 UNL     1      23.271   7.311  21.437  0.00  0.00    -0.025 A 
ATOM     16  C14 UNL     1      22.635   8.449  21.034  0.00  0.00    +0.048 A 
ATOM     17  N4  UNL     1      21.287   8.576  21.122  0.00  0.00    -0.217 NA
ATOM     18  C15 UNL     1      20.522   7.559  21.614  0.00  0.00    +0.225 A 
ATOM     19  C16 UNL     1      23.567   9.474  20.524  0.00  0.00    +0.056 C 
ATOM     20  C17 UNL     1      24.952   8.808  20.659  0.00  0.00    +0.011 C 
ATOM     21  C18 UNL     1      24.736   7.399  21.250  0.00  0.00    +0.037 C 
BRANCH  18  22
ATOM     22  O2  UNL     1      19.146   7.760  21.721  0.00  0.00    -0.492 OA
ATOM     23  H14 UNL     1      18.735   8.645  21.990  0.00  0.00    +0.294 HD
ENDBRANCH  18  22
ENDBRANCH  10  13
BRANCH   1  25
ATOM     24  C1  UNL     1      23.988   1.040  28.909  0.00  0.00    +0.015 C 
ATOM     25  C2  UNL     1      22.540   1.489  29.128  0.00  0.00    +0.051 C 
ATOM     26  C3  UNL     1      21.700   0.359  29.733  0.00  0.00    +0.015 C 
ENDBRANCH   1  25
TORSDOF 3
ENDMDL
MODEL 5
REMARK VINA RESULT:    -6.312      8.438     11.076
REMARK INTER + INTRA:          -7.867
REMARK INTER:                  -7.503
REMARK INTRA:                  -0.365
REMARK UNBOUND:                -0.633
REMARK  Name = /home/qwerty/github/datacon2025hack/step_04_hit_selection/docking/ligands/lig_453.pdb
REMARK  5 active torsions:
REMARK  status: ('A' for Active; 'I' for Inactive)
REMARK    1  A    between atoms: C1_1  and  C2_2
REMARK    2  A    between atoms: C2_2  and  C3_3
REMARK    3  A    between atoms: C2_2  and  C4_4
REMARK    4  A    between atoms: C10_13  and  C11_15
REMARK    5  A    between atoms: C15_20  and  O2_21
REMARK                            x       y       z     vdW  Elec       q    Type
REMARK                         _______ _______ _______ _____ _____    ______ ____
ROOT
ATOM      1  C4  UNL     1      22.400   9.174  33.277  0.00  0.00    +0.132 A 
ATOM      2  N1  UNL     1      22.644   8.413  34.378  0.00  0.00    -0.240 NA
ATOM      3  C5  UNL     1      21.881   8.529  35.495  0.00  0.00    +0.119 A 
ATOM      4  C6  UNL     1      20.821   9.440  35.530  0.00  0.00    +0.009 A 
ATOM      5  C7  UNL     1      20.594  10.233  34.389  0.00  0.00    +0.051 A 
ATOM      6  N2  UNL     1      21.377  10.070  33.291  0.00  0.00    -0.236 NA
ATOM      7  C8  UNL     1      19.447  11.201  34.330  0.00  0.00    +0.075 C 
ATOM      8  C9  UNL     1      19.052  11.673  35.727  0.00  0.00    +0.114 C 
ATOM      9  N3  UNL     1      18.866  10.510  36.603  0.00  0.00    -0.293 N 
ATOM     10  C10 UNL     1      17.747  10.444  37.509  0.00  0.00    +0.252 C 
ATOM     11  O1  UNL     1      17.895   9.921  38.647  0.00  0.00    -0.270 OA
ATOM     12  C19 UNL     1      19.992   9.583  36.784  0.00  0.00    +0.146 C 
ENDROOT
BRANCH  10  13
ATOM     13  C11 UNL     1      16.404  10.907  37.098  0.00  0.00    +0.098 A 
ATOM     14  C12 UNL     1      15.489   9.968  36.583  0.00  0.00    +0.023 A 
ATOM     15  C13 UNL     1      14.209  10.394  36.241  0.00  0.00    -0.025 A 
ATOM     16  C14 UNL     1      13.847  11.698  36.409  0.00  0.00    +0.048 A 
ATOM     17  N4  UNL     1      14.717  12.619  36.895  0.00  0.00    -0.217 NA
ATOM     18  C15 UNL     1      15.989  12.262  37.238  0.00  0.00    +0.225 A 
ATOM     19  C16 UNL     1      12.452  11.961  36.003  0.00  0.00    +0.056 C 
ATOM     20  C17 UNL     1      11.944  10.582  35.530  0.00  0.00    +0.011 C 
ATOM     21  C18 UNL     1      13.102   9.576  35.699  0.00  0.00    +0.037 C 
BRANCH  18  22
ATOM     22  O2  UNL     1      16.854  13.257  37.692  0.00  0.00    -0.492 OA
ATOM     23  H14 UNL     1      16.764  13.698  38.598  0.00  0.00    +0.294 HD
ENDBRANCH  18  22
ENDBRANCH  10  13
BRANCH   1  25
ATOM     24  C1  UNL     1      23.290   7.564  31.589  0.00  0.00    +0.015 C 
ATOM     25  C2  UNL     1      23.251   9.026  32.045  0.00  0.00    +0.051 C 
ATOM     26  C3  UNL     1      24.665   9.559  32.301  0.00  0.00    +0.015 C 
ENDBRANCH   1  25
TORSDOF 3
ENDMDL
MODEL 6
REMARK VINA RESULT:    -6.240     12.018     14.220
REMARK INTER + INTRA:          -7.786
REMARK INTER:                  -7.484
REMARK INTRA:                  -0.302
REMARK UNBOUND:                -0.633
REMARK  Name = /home/qwerty/github/datacon2025hack/step_04_hit_selection/docking/ligands/lig_453.pdb
REMARK  5 active torsions:
REMARK  status: ('A' for Active; 'I' for Inactive)
REMARK    1  A    between atoms: C1_1  and  C2_2
REMARK    2  A    between atoms: C2_2  and  C3_3
REMARK    3  A    between atoms: C2_2  and  C4_4
REMARK    4  A    between atoms: C10_13  and  C11_15
REMARK    5  A    between atoms: C15_20  and  O2_21
REMARK                            x       y       z     vdW  Elec       q    Type
REMARK                         _______ _______ _______ _____ _____    ______ ____
ROOT
ATOM      1  C4  UNL     1       9.386   5.088  21.640  0.00  0.00    +0.132 A 
ATOM      2  N1  UNL     1       9.771   5.594  20.437  0.00  0.00    -0.240 NA
ATOM      3  C5  UNL     1      11.025   5.390  19.960  0.00  0.00    +0.119 A 
ATOM      4  C6  UNL     1      11.948   4.647  20.702  0.00  0.00    +0.009 A 
ATOM      5  C7  UNL     1      11.539   4.146  21.952  0.00  0.00    +0.051 A 
ATOM      6  N2  UNL     1      10.269   4.367  22.381  0.00  0.00    -0.236 NA
ATOM      7  C8  UNL     1      12.455   3.300  22.789  0.00  0.00    +0.075 C 
ATOM      8  C9  UNL     1      13.919   3.610  22.489  0.00  0.00    +0.114 C 
ATOM      9  N3  UNL     1      14.144   3.560  21.039  0.00  0.00    -0.293 N 
ATOM     10  C10 UNL     1      15.314   2.915  20.499  0.00  0.00    +0.252 C 
ATOM     11  O1  UNL     1      15.880   3.400  19.481  0.00  0.00    -0.270 OA
ATOM     12  C19 UNL     1      13.349   4.445  20.176  0.00  0.00    +0.146 C 
ENDROOT
BRANCH  10  13
ATOM     13  C11 UNL     1      15.819   1.647  21.069  0.00  0.00    +0.098 A 
ATOM     14  C12 UNL     1      16.382   1.658  22.360  0.00  0.00    +0.023 A 
ATOM     15  C13 UNL     1      16.813   0.458  22.916  0.00  0.00    -0.025 A 
ATOM     16  C14 UNL     1      16.685  -0.711  22.223  0.00  0.00    +0.048 A 
ATOM     17  N4  UNL     1      16.153  -0.740  20.976  0.00  0.00    -0.217 NA
ATOM     18  C15 UNL     1      15.722   0.408  20.375  0.00  0.00    +0.225 A 
ATOM     19  C16 UNL     1      17.185  -1.879  22.975  0.00  0.00    +0.056 C 
ATOM     20  C17 UNL     1      17.675  -1.273  24.307  0.00  0.00    +0.011 C 
ATOM     21  C18 UNL     1      17.418   0.248  24.250  0.00  0.00    +0.037 C 
BRANCH  18  22
ATOM     22  O2  UNL     1      15.224   0.325  19.075  0.00  0.00    -0.492 OA
ATOM     23  H14 UNL     1      14.497   0.932  18.720  0.00  0.00    +0.294 HD
ENDBRANCH  18  22
ENDBRANCH  10  13
BRANCH   1  25
ATOM     24  C1  UNL     1       7.498   4.102  22.943  0.00  0.00    +0.015 C 
ATOM     25  C2  UNL     1       7.989   5.318  22.151  0.00  0.00    +0.051 C 
ATOM     26  C3  UNL     1       7.039   5.638  20.992  0.00  0.00    +0.015 C 
ENDBRANCH   1  25
TORSDOF 3
ENDMDL
MODEL 7
REMARK VINA RESULT:    -6.236      8.075     11.158
REMARK INTER + INTRA:          -7.781
REMARK INTER:                  -7.446
REMARK INTRA:                  -0.334
REMARK UNBOUND:                -0.633
REMARK  Name = /home/qwerty/github/datacon2025hack/step_04_hit_selection/docking/ligands/lig_453.pdb
REMARK  5 active torsions:
REMARK  status: ('A' for Active; 'I' for Inactive)
REMARK    1  A    between atoms: C1_1  and  C2_2
REMARK    2  A    between atoms: C2_2  and  C3_3
REMARK    3  A    between atoms: C2_2  and  C4_4
REMARK    4  A    between atoms: C10_13  and  C11_15
REMARK    5  A    between atoms: C15_20  and  O2_21
REMARK                            x       y       z     vdW  Elec       q    Type
REMARK                         _______ _______ _______ _____ _____    ______ ____
ROOT
ATOM      1  C4  UNL     1      13.387  11.120  36.514  0.00  0.00    +0.132 A 
ATOM      2  N1  UNL     1      13.742  12.422  36.688  0.00  0.00    -0.240 NA
ATOM      3  C5  UNL     1      15.047  12.789  36.762  0.00  0.00    +0.119 A 
ATOM      4  C6  UNL     1      16.056  11.826  36.656  0.00  0.00    +0.009 A 
ATOM      5  C7  UNL     1      15.671  10.482  36.495  0.00  0.00    +0.051 A 
ATOM      6  N2  UNL     1      14.352  10.167  36.414  0.00  0.00    -0.236 NA
ATOM      7  C8  UNL     1      16.692   9.395  36.327  0.00  0.00    +0.075 C 
ATOM      8  C9  UNL     1      18.017   9.777  36.983  0.00  0.00    +0.114 C 
ATOM      9  N3  UNL     1      18.421  11.114  36.530  0.00  0.00    -0.293 N 
ATOM     10  C10 UNL     1      19.789  11.384  36.166  0.00  0.00    +0.252 C 
ATOM     11  O1  UNL     1      20.299  12.504  36.442  0.00  0.00    -0.270 OA
ATOM     12  C19 UNL     1      17.505  12.238  36.764  0.00  0.00    +0.146 C 
ENDROOT
BRANCH  10  13
ATOM     13  C11 UNL     1      20.584  10.399  35.402  0.00  0.00    +0.098 A 
ATOM     14  C12 UNL     1      20.662  10.527  34.001  0.00  0.00    +0.023 A 
ATOM     15  C13 UNL     1      21.449   9.629  33.286  0.00  0.00    -0.025 A 
ATOM     16  C14 UNL     1      22.138   8.646  33.933  0.00  0.00    +0.048 A 
ATOM     17  N4  UNL     1      22.069   8.501  35.281  0.00  0.00    -0.217 NA
ATOM     18  C15 UNL     1      21.305   9.346  36.034  0.00  0.00    +0.225 A 
ATOM     19  C16 UNL     1      22.924   7.799  33.014  0.00  0.00    +0.056 C 
ATOM     20  C17 UNL     1      22.632   8.401  31.624  0.00  0.00    +0.011 C 
ATOM     21  C18 UNL     1      21.674   9.594  31.824  0.00  0.00    +0.037 C 
BRANCH  18  22
ATOM     22  O2  UNL     1      21.237   9.124  37.409  0.00  0.00    -0.492 OA
ATOM     23  H14 UNL     1      20.691   8.381  37.823  0.00  0.00    +0.294 HD
ENDBRANCH  18  22
ENDBRANCH  10  13
BRANCH   1  25
ATOM     24  C1  UNL     1      11.292  11.331  35.174  0.00  0.00    +0.015 C 
ATOM     25  C2  UNL     1      11.936  10.732  36.427  0.00  0.00    +0.051 C 
ATOM     26  C3  UNL     1      11.186  11.168  37.691  0.00  0.00    +0.015 C 
ENDBRANCH   1  25
TORSDOF 3
ENDMDL
MODEL 8
REMARK VINA RESULT:    -6.141     11.850     15.412
REMARK INTER + INTRA:          -7.672
REMARK INTER:                  -7.019
REMARK INTRA:                  -0.653
REMARK UNBOUND:                -0.633
REMARK  Name = /home/qwerty/github/datacon2025hack/step_04_hit_selection/docking/ligands/lig_453.pdb
REMARK  5 active torsions:
REMARK  status: ('A' for Active; 'I' for Inactive)
REMARK    1  A    between atoms: C1_1  and  C2_2
REMARK    2  A    between atoms: C2_2  and  C3_3
REMARK    3  A    between atoms: C2_2  and  C4_4
REMARK    4  A    between atoms: C10_13  and  C11_15
REMARK    5  A    between atoms: C15_20  and  O2_21
REMARK                            x       y       z     vdW  Elec       q    Type
REMARK                         _______ _______ _______ _____ _____    ______ ____
ROOT
ATOM      1  C4  UNL     1      21.504  15.391  28.570  0.00  0.00    +0.132 A 
ATOM      2  N1  UNL     1      21.592  16.706  28.234  0.00  0.00    -0.240 NA
ATOM      3  C5  UNL     1      21.909  17.088  26.971  0.00  0.00    +0.119 A 
ATOM      4  C6  UNL     1      22.149  16.126  25.985  0.00  0.00    +0.009 A 
ATOM      5  C7  UNL     1      22.072  14.770  26.353  0.00  0.00    +0.051 A 
ATOM      6  N2  UNL     1      21.739  14.439  27.628  0.00  0.00    -0.236 NA
ATOM      7  C8  UNL     1      22.271  13.677  25.343  0.00  0.00    +0.075 C 
ATOM      8  C9  UNL     1      23.153  14.146  24.189  0.00  0.00    +0.114 C 
ATOM      9  N3  UNL     1      22.641  15.419  23.666  0.00  0.00    -0.293 N 
ATOM     10  C10 UNL     1      22.560  15.650  22.246  0.00  0.00    +0.252 C 
ATOM     11  O1  UNL     1      22.803  16.799  21.786  0.00  0.00    -0.270 OA
ATOM     12  C19 UNL     1      22.525  16.558  24.587  0.00  0.00    +0.146 C 
ENDROOT
BRANCH  10  13
ATOM     13  C11 UNL     1      22.119  14.583  21.323  0.00  0.00    +0.098 A 
ATOM     14  C12 UNL     1      20.781  14.144  21.380  0.00  0.00    +0.023 A 
ATOM     15  C13 UNL     1      20.352  13.174  20.479  0.00  0.00    -0.025 A 
ATOM     16  C14 UNL     1      21.213  12.663  19.552  0.00  0.00    +0.048 A 
ATOM     17  N4  UNL     1      22.506  13.067  19.487  0.00  0.00    -0.217 NA
ATOM     18  C15 UNL     1      22.986  14.008  20.351  0.00  0.00    +0.225 A 
ATOM     19  C16 UNL     1      20.579  11.655  18.678  0.00  0.00    +0.056 C 
ATOM     20  C17 UNL     1      19.127  11.587  19.195  0.00  0.00    +0.011 C 
ATOM     21  C18 UNL     1      18.999  12.586  20.364  0.00  0.00    +0.037 C 
BRANCH  18  22
ATOM     22  O2  UNL     1      24.335  14.355  20.266  0.00  0.00    -0.492 OA
ATOM     23  H14 UNL     1      25.086  13.691  20.398  0.00  0.00    +0.294 HD
ENDBRANCH  18  22
ENDBRANCH  10  13
BRANCH   1  25
ATOM     24  C1  UNL     1      22.049  15.693  30.987  0.00  0.00    +0.015 C 
ATOM     25  C2  UNL     1      21.145  14.985  29.974  0.00  0.00    +0.051 C 
ATOM     26  C3  UNL     1      21.230  13.463  30.132  0.00  0.00    +0.015 C 
ENDBRANCH   1  25
TORSDOF 3
ENDMDL
MODEL 9
REMARK VINA RESULT:    -6.103      9.284     11.926
REMARK INTER + INTRA:          -7.628
REMARK INTER:                  -7.131
REMARK INTRA:                  -0.498
REMARK UNBOUND:                -0.633
REMARK  Name = /home/qwerty/github/datacon2025hack/step_04_hit_selection/docking/ligands/lig_453.pdb
REMARK  5 active torsions:
REMARK  status: ('A' for Active; 'I' for Inactive)
REMARK    1  A    between atoms: C1_1  and  C2_2
REMARK    2  A    between atoms: C2_2  and  C3_3
REMARK    3  A    between atoms: C2_2  and  C4_4
REMARK    4  A    between atoms: C10_13  and  C11_15
REMARK    5  A    between atoms: C15_20  and  O2_21
REMARK                            x       y       z     vdW  Elec       q    Type
REMARK                         _______ _______ _______ _____ _____    ______ ____
ROOT
ATOM      1  C4  UNL     1      23.306   8.254  33.716  0.00  0.00    +0.132 A 
ATOM      2  N1  UNL     1      23.219   7.484  34.834  0.00  0.00    -0.240 NA
ATOM      3  C5  UNL     1      22.319   7.765  35.811  0.00  0.00    +0.119 A 
ATOM      4  C6  UNL     1      21.457   8.859  35.679  0.00  0.00    +0.009 A 
ATOM      5  C7  UNL     1      21.574   9.655  34.525  0.00  0.00    +0.051 A 
ATOM      6  N2  UNL     1      22.482   9.325  33.570  0.00  0.00    -0.236 NA
ATOM      7  C8  UNL     1      20.655  10.819  34.286  0.00  0.00    +0.075 C 
ATOM      8  C9  UNL     1      20.131  11.386  35.603  0.00  0.00    +0.114 C 
ATOM      9  N3  UNL     1      19.589  10.297  36.426  0.00  0.00    -0.293 N 
ATOM     10  C10 UNL     1      18.344  10.461  37.133  0.00  0.00    +0.252 C 
ATOM     11  O1  UNL     1      18.203   9.944  38.275  0.00  0.00    -0.270 OA
ATOM     12  C19 UNL     1      20.475   9.180  36.781  0.00  0.00    +0.146 C 
ENDROOT
BRANCH  10  13
ATOM     13  C11 UNL     1      17.198  11.157  36.510  0.00  0.00    +0.098 A 
ATOM     14  C12 UNL     1      16.924  12.487  36.886  0.00  0.00    +0.023 A 
ATOM     15  C13 UNL     1      15.876  13.159  36.265  0.00  0.00    -0.025 A 
ATOM     16  C14 UNL     1      15.131  12.541  35.304  0.00  0.00    +0.048 A 
ATOM     17  N4  UNL     1      15.374  11.258  34.935  0.00  0.00    -0.217 NA
ATOM     18  C15 UNL     1      16.383  10.545  35.516  0.00  0.00    +0.225 A 
ATOM     19  C16 UNL     1      14.073  13.410  34.753  0.00  0.00    +0.056 C 
ATOM     20  C17 UNL     1      14.249  14.733  35.527  0.00  0.00    +0.011 C 
ATOM     21  C18 UNL     1      15.431  14.550  36.502  0.00  0.00    +0.037 C 
BRANCH  18  22
ATOM     22  O2  UNL     1      16.560   9.217  35.129  0.00  0.00    -0.492 OA
ATOM     23  H14 UNL     1      17.443   8.849  34.801  0.00  0.00    +0.294 HD
ENDBRANCH  18  22
ENDBRANCH  10  13
BRANCH   1  25
ATOM     24  C1  UNL     1      25.138   6.700  33.035  0.00  0.00    +0.015 C 
ATOM     25  C2  UNL     1      24.305   7.923  32.640  0.00  0.00    +0.051 C 
ATOM     26  C3  UNL     1      25.205   9.130  32.353  0.00  0.00    +0.015 C 
ENDBRANCH   1  25
TORSDOF 3
ENDMDL
