MODEL 1
REMARK VINA RESULT:    -6.332      0.000      0.000
REMARK INTER + INTRA:          -8.781
REMARK INTER:                  -8.182
REMARK INTRA:                  -0.599
REMARK UNBOUND:                -0.599
REMARK  Name = /home/qwerty/github/datacon2025hack/step_04_hit_selection/docking/ligands/lig_573.pdb
REMARK  8 active torsions:
REMARK  status: ('A' for Active; 'I' for Inactive)
REMARK    1  A    between atoms: C2_2  and  C3_3
REMARK    2  A    between atoms: C2_2  and  C4_4
REMARK    3  A    between atoms: C4_4  and  C5_5
REMARK    4  A    between atoms: C4_4  and  C6_6
REMARK    5  A    between atoms: C4_4  and  C7_7
REMARK    6  A    between atoms: N1_9  and  C8_10
REMARK    7  A    between atoms: C8_10  and  C9_11
REMARK    8  A    between atoms: C14_17  and  C15_19
REMARK                            x       y       z     vdW  Elec       q    Type
REMARK                         _______ _______ _______ _____ _____    ______ ____
ROOT
ATOM      1  C9  UNL     1      21.253   2.950  32.045  0.00  0.00    +0.093 C 
ATOM      2  C10 UNL     1      20.795   2.283  33.370  0.00  0.00    +0.024 C 
ATOM      3  C11 UNL     1      19.549   1.386  33.237  0.00  0.00    +0.003 C 
ATOM      4  C12 UNL     1      18.751   1.687  31.971  0.00  0.00    +0.019 C 
ATOM      5  C13 UNL     1      19.630   1.462  30.739  0.00  0.00    +0.108 C 
ATOM      6  N2  UNL     1      20.958   2.073  30.892  0.00  0.00    -0.293 N 
ATOM      7  C14 UNL     1      21.805   2.050  29.731  0.00  0.00    +0.246 C 
ATOM      8  O2  UNL     1      21.806   3.044  28.956  0.00  0.00    -0.270 OA
ENDROOT
BRANCH   7   9
ATOM      9  C15 UNL     1      22.658   0.875  29.433  0.00  0.00    +0.049 C 
ATOM     10  C16 UNL     1      23.992   1.010  29.305  0.00  0.00    +0.195 C 
ATOM     11  O3  UNL     1      24.813  -0.096  29.043  0.00  0.00    -0.499 OA
ATOM     12  C17 UNL     1      24.329  -1.436  29.084  0.00  0.00    +0.228 C 
ATOM     13  C18 UNL     1      22.896  -1.488  28.560  0.00  0.00    +0.046 C 
ATOM     14  C19 UNL     1      22.025  -0.497  29.341  0.00  0.00    +0.047 C 
ENDBRANCH   7   9
BRANCH   1  15
ATOM     15  C8  UNL     1      22.751   3.330  32.132  0.00  0.00    +0.126 C 
BRANCH  15  18
ATOM     16  C7  UNL     1      22.912   5.809  32.665  0.00  0.00    +0.223 C 
ATOM     17  O1  UNL     1      22.621   6.098  31.470  0.00  0.00    -0.275 OA
ATOM     18  N1  UNL     1      22.965   4.431  33.071  0.00  0.00    -0.313 N 
ATOM     19  H12 UNL     1      23.237   4.197  34.053  0.00  0.00    +0.149 HD
BRANCH  16  20
ATOM     20  C4  UNL     1      23.249   6.912  33.662  0.00  0.00    +0.062 C 
ATOM     21  C5  UNL     1      24.786   7.090  33.643  0.00  0.00    +0.025 C 
ATOM     22  C6  UNL     1      22.609   8.252  33.241  0.00  0.00    +0.025 C 
BRANCH  20  24
ATOM     23  C1  UNL     1      23.475   6.313  36.121  0.00  0.00    +0.008 C 
ATOM     24  C2  UNL     1      22.690   6.532  35.047  0.00  0.00    -0.065 C 
ATOM     25  C3  UNL     1      21.196   6.501  35.272  0.00  0.00    +0.039 C 
ENDBRANCH  20  24
ENDBRANCH  16  20
ENDBRANCH  15  18
ENDBRANCH   1  15
TORSDOF 5
ENDMDL
MODEL 2
REMARK VINA RESULT:    -6.196      1.416      2.059
REMARK INTER + INTRA:          -8.606
REMARK INTER:                  -8.100
REMARK INTRA:                  -0.506
REMARK UNBOUND:                -0.599
REMARK  Name = /home/qwerty/github/datacon2025hack/step_04_hit_selection/docking/ligands/lig_573.pdb
REMARK  8 active torsions:
REMARK  status: ('A' for Active; 'I' for Inactive)
REMARK    1  A    between atoms: C2_2  and  C3_3
REMARK    2  A    between atoms: C2_2  and  C4_4
REMARK    3  A    between atoms: C4_4  and  C5_5
REMARK    4  A    between atoms: C4_4  and  C6_6
REMARK    5  A    between atoms: C4_4  and  C7_7
REMARK    6  A    between atoms: N1_9  and  C8_10
REMARK    7  A    between atoms: C8_10  and  C9_11
REMARK    8  A    between atoms: C14_17  and  C15_19
REMARK                            x       y       z     vdW  Elec       q    Type
REMARK                         _______ _______ _______ _____ _____    ______ ____
ROOT
ATOM      1  C9  UNL     1      20.838   2.543  31.973  0.00  0.00    +0.093 C 
ATOM      2  C10 UNL     1      20.197   1.746  33.141  0.00  0.00    +0.024 C 
ATOM      3  C11 UNL     1      18.986   0.883  32.738  0.00  0.00    +0.003 C 
ATOM      4  C12 UNL     1      18.376   1.326  31.411  0.00  0.00    +0.019 C 
ATOM      5  C13 UNL     1      19.422   1.221  30.299  0.00  0.00    +0.108 C 
ATOM      6  N2  UNL     1      20.713   1.795  30.703  0.00  0.00    -0.293 N 
ATOM      7  C14 UNL     1      21.716   1.884  29.679  0.00  0.00    +0.246 C 
ATOM      8  O2  UNL     1      21.825   2.954  29.021  0.00  0.00    -0.270 OA
ENDROOT
BRANCH   7   9
ATOM      9  C15 UNL     1      22.607   0.737  29.383  0.00  0.00    +0.049 C 
ATOM     10  C16 UNL     1      22.104  -0.504  29.240  0.00  0.00    +0.195 C 
ATOM     11  O3  UNL     1      22.932  -1.595  28.940  0.00  0.00    -0.499 OA
ATOM     12  C17 UNL     1      24.303  -1.440  28.583  0.00  0.00    +0.228 C 
ATOM     13  C18 UNL     1      24.920  -0.290  29.375  0.00  0.00    +0.046 C 
ATOM     14  C19 UNL     1      24.086   0.981  29.172  0.00  0.00    +0.047 C 
ENDBRANCH   7   9
BRANCH   1  15
ATOM     15  C8  UNL     1      22.307   2.893  32.312  0.00  0.00    +0.126 C 
BRANCH  15  18
ATOM     16  C7  UNL     1      22.692   5.335  32.899  0.00  0.00    +0.223 C 
ATOM     17  O1  UNL     1      22.529   5.079  34.125  0.00  0.00    -0.275 OA
ATOM     18  N1  UNL     1      22.623   4.270  31.936  0.00  0.00    -0.313 N 
ATOM     19  H12 UNL     1      22.728   4.493  30.919  0.00  0.00    +0.149 HD
BRANCH  16  20
ATOM     20  C4  UNL     1      22.919   6.769  32.437  0.00  0.00    +0.062 C 
ATOM     21  C5  UNL     1      22.527   6.834  30.941  0.00  0.00    +0.025 C 
ATOM     22  C6  UNL     1      22.010   7.750  33.210  0.00  0.00    +0.025 C 
BRANCH  20  24
ATOM     23  C1  UNL     1      24.799   8.445  32.774  0.00  0.00    +0.008 C 
ATOM     24  C2  UNL     1      24.384   7.165  32.707  0.00  0.00    -0.065 C 
ATOM     25  C3  UNL     1      25.405   6.096  33.022  0.00  0.00    +0.039 C 
ENDBRANCH  20  24
ENDBRANCH  16  20
ENDBRANCH  15  18
ENDBRANCH   1  15
TORSDOF 5
ENDMDL
MODEL 3
REMARK VINA RESULT:    -6.126      1.821      7.173
REMARK INTER + INTRA:          -8.515
REMARK INTER:                  -7.940
REMARK INTRA:                  -0.575
REMARK UNBOUND:                -0.599
REMARK  Name = /home/qwerty/github/datacon2025hack/step_04_hit_selection/docking/ligands/lig_573.pdb
REMARK  8 active torsions:
REMARK  status: ('A' for Active; 'I' for Inactive)
REMARK    1  A    between atoms: C2_2  and  C3_3
REMARK    2  A    between atoms: C2_2  and  C4_4
REMARK    3  A    between atoms: C4_4  and  C5_5
REMARK    4  A    between atoms: C4_4  and  C6_6
REMARK    5  A    between atoms: C4_4  and  C7_7
REMARK    6  A    between atoms: N1_9  and  C8_10
REMARK    7  A    between atoms: C8_10  and  C9_11
REMARK    8  A    between atoms: C14_17  and  C15_19
REMARK                            x       y       z     vdW  Elec       q    Type
REMARK                         _______ _______ _______ _____ _____    ______ ____
ROOT
ATOM      1  C9  UNL     1      21.993   4.466  33.455  0.00  0.00    +0.093 C 
ATOM      2  C10 UNL     1      20.488   4.389  33.080  0.00  0.00    +0.024 C 
ATOM      3  C11 UNL     1      19.572   5.293  33.928  0.00  0.00    +0.003 C 
ATOM      4  C12 UNL     1      20.229   5.719  35.237  0.00  0.00    +0.019 C 
ATOM      5  C13 UNL     1      21.516   6.493  34.944  0.00  0.00    +0.108 C 
ATOM      6  N2  UNL     1      22.343   5.822  33.930  0.00  0.00    -0.293 N 
ATOM      7  C14 UNL     1      23.642   6.387  33.695  0.00  0.00    +0.246 C 
ATOM      8  O2  UNL     1      24.632   5.927  34.325  0.00  0.00    -0.270 OA
ENDROOT
BRANCH   7   9
ATOM      9  C15 UNL     1      23.825   7.504  32.738  0.00  0.00    +0.049 C 
ATOM     10  C16 UNL     1      23.178   7.509  31.556  0.00  0.00    +0.195 C 
ATOM     11  O3  UNL     1      23.326   8.568  30.650  0.00  0.00    -0.499 OA
ATOM     12  C17 UNL     1      24.003   9.777  30.989  0.00  0.00    +0.228 C 
ATOM     13  C18 UNL     1      25.182   9.472  31.909  0.00  0.00    +0.046 C 
ATOM     14  C19 UNL     1      24.695   8.680  33.128  0.00  0.00    +0.047 C 
ENDBRANCH   7   9
BRANCH   1  15
ATOM     15  C8  UNL     1      22.863   4.016  32.255  0.00  0.00    +0.126 C 
BRANCH  15  18
ATOM     16  C7  UNL     1      21.878   2.530  30.446  0.00  0.00    +0.223 C 
ATOM     17  O1  UNL     1      21.786   3.519  29.665  0.00  0.00    -0.275 OA
ATOM     18  N1  UNL     1      22.441   2.708  31.756  0.00  0.00    -0.313 N 
ATOM     19  H12 UNL     1      22.485   1.893  32.409  0.00  0.00    +0.149 HD
BRANCH  16  20
ATOM     20  C4  UNL     1      21.357   1.163  30.018  0.00  0.00    +0.062 C 
ATOM     21  C5  UNL     1      20.740   0.498  31.272  0.00  0.00    +0.025 C 
ATOM     22  C6  UNL     1      20.244   1.303  28.957  0.00  0.00    +0.025 C 
BRANCH  20  24
ATOM     23  C1  UNL     1      22.339  -0.874  28.860  0.00  0.00    +0.008 C 
ATOM     24  C2  UNL     1      22.510   0.352  29.395  0.00  0.00    -0.065 C 
ATOM     25  C3  UNL     1      23.881   0.973  29.265  0.00  0.00    +0.039 C 
ENDBRANCH  20  24
ENDBRANCH  16  20
ENDBRANCH  15  18
ENDBRANCH   1  15
TORSDOF 5
ENDMDL
MODEL 4
REMARK VINA RESULT:    -6.063      2.757      6.897
REMARK INTER + INTRA:          -8.434
REMARK INTER:                  -7.453
REMARK INTRA:                  -0.980
REMARK UNBOUND:                -0.599
REMARK  Name = /home/qwerty/github/datacon2025hack/step_04_hit_selection/docking/ligands/lig_573.pdb
REMARK  8 active torsions:
REMARK  status: ('A' for Active; 'I' for Inactive)
REMARK    1  A    between atoms: C2_2  and  C3_3
REMARK    2  A    between atoms: C2_2  and  C4_4
REMARK    3  A    between atoms: C4_4  and  C5_5
REMARK    4  A    between atoms: C4_4  and  C6_6
REMARK    5  A    between atoms: C4_4  and  C7_7
REMARK    6  A    between atoms: N1_9  and  C8_10
REMARK    7  A    between atoms: C8_10  and  C9_11
REMARK    8  A    between atoms: C14_17  and  C15_19
REMARK                            x       y       z     vdW  Elec       q    Type
REMARK                         _______ _______ _______ _____ _____    ______ ____
ROOT
ATOM      1  C9  UNL     1      21.295   3.974  32.480  0.00  0.00    +0.093 C 
ATOM      2  C10 UNL     1      22.211   4.757  33.458  0.00  0.00    +0.024 C 
ATOM      3  C11 UNL     1      21.596   6.058  34.008  0.00  0.00    +0.003 C 
ATOM      4  C12 UNL     1      20.434   6.556  33.153  0.00  0.00    +0.019 C 
ATOM      5  C13 UNL     1      19.332   5.495  33.107  0.00  0.00    +0.108 C 
ATOM      6  N2  UNL     1      19.872   4.153  32.844  0.00  0.00    -0.293 N 
ATOM      7  C14 UNL     1      18.907   3.111  32.630  0.00  0.00    +0.246 C 
ATOM      8  O2  UNL     1      18.555   2.836  31.451  0.00  0.00    -0.270 OA
ENDROOT
BRANCH   7   9
ATOM      9  C15 UNL     1      18.317   2.373  33.772  0.00  0.00    +0.049 C 
ATOM     10  C16 UNL     1      17.213   1.619  33.606  0.00  0.00    +0.195 C 
ATOM     11  O3  UNL     1      16.656   0.899  34.672  0.00  0.00    -0.499 OA
ATOM     12  C17 UNL     1      17.313   0.764  35.931  0.00  0.00    +0.228 C 
ATOM     13  C18 UNL     1      18.059   2.052  36.269  0.00  0.00    +0.046 C 
ATOM     14  C19 UNL     1      19.006   2.417  35.120  0.00  0.00    +0.047 C 
ENDBRANCH   7   9
BRANCH   1  15
ATOM     15  C8  UNL     1      21.712   2.484  32.438  0.00  0.00    +0.126 C 
BRANCH  15  18
ATOM     16  C7  UNL     1      21.906   1.068  30.338  0.00  0.00    +0.223 C 
ATOM     17  O1  UNL     1      20.885   0.405  30.676  0.00  0.00    -0.275 OA
ATOM     18  N1  UNL     1      22.357   2.150  31.169  0.00  0.00    -0.313 N 
ATOM     19  H12 UNL     1      23.221   2.675  30.900  0.00  0.00    +0.149 HD
BRANCH  16  20
ATOM     20  C4  UNL     1      22.681   0.697  29.079  0.00  0.00    +0.062 C 
ATOM     21  C5  UNL     1      24.169   1.031  29.345  0.00  0.00    +0.025 C 
ATOM     22  C6  UNL     1      22.577  -0.816  28.791  0.00  0.00    +0.025 C 
BRANCH  20  24
ATOM     23  C1  UNL     1      22.615   2.596  27.392  0.00  0.00    +0.008 C 
ATOM     24  C2  UNL     1      22.087   1.454  27.875  0.00  0.00    -0.065 C 
ATOM     25  C3  UNL     1      20.926   0.858  27.112  0.00  0.00    +0.039 C 
ENDBRANCH  20  24
ENDBRANCH  16  20
ENDBRANCH  15  18
ENDBRANCH   1  15
TORSDOF 5
ENDMDL
MODEL 5
REMARK VINA RESULT:    -5.875      5.427      9.370
REMARK INTER + INTRA:          -8.191
REMARK INTER:                  -7.577
REMARK INTRA:                  -0.614
REMARK UNBOUND:                -0.599
REMARK  Name = /home/qwerty/github/datacon2025hack/step_04_hit_selection/docking/ligands/lig_573.pdb
REMARK  8 active torsions:
REMARK  status: ('A' for Active; 'I' for Inactive)
REMARK    1  A    between atoms: C2_2  and  C3_3
REMARK    2  A    between atoms: C2_2  and  C4_4
REMARK    3  A    between atoms: C4_4  and  C5_5
REMARK    4  A    between atoms: C4_4  and  C6_6
REMARK    5  A    between atoms: C4_4  and  C7_7
REMARK    6  A    between atoms: N1_9  and  C8_10
REMARK    7  A    between atoms: C8_10  and  C9_11
REMARK    8  A    between atoms: C14_17  and  C15_19
REMARK                            x       y       z     vdW  Elec       q    Type
REMARK                         _______ _______ _______ _____ _____    ______ ____
ROOT
ATOM      1  C9  UNL     1      20.063   1.796  25.761  0.00  0.00    +0.093 C 
ATOM      2  C10 UNL     1      20.726   2.366  24.479  0.00  0.00    +0.024 C 
ATOM      3  C11 UNL     1      21.418   3.729  24.669  0.00  0.00    +0.003 C 
ATOM      4  C12 UNL     1      20.934   4.456  25.920  0.00  0.00    +0.019 C 
ATOM      5  C13 UNL     1      21.219   3.603  27.158  0.00  0.00    +0.108 C 
ATOM      6  N2  UNL     1      20.823   2.201  26.964  0.00  0.00    -0.293 N 
ATOM      7  C14 UNL     1      20.908   1.351  28.119  0.00  0.00    +0.246 C 
ATOM      8  O2  UNL     1      19.885   1.192  28.838  0.00  0.00    -0.270 OA
ENDROOT
BRANCH   7   9
ATOM      9  C15 UNL     1      22.179   0.678  28.477  0.00  0.00    +0.049 C 
ATOM     10  C16 UNL     1      22.219  -0.654  28.672  0.00  0.00    +0.195 C 
ATOM     11  O3  UNL     1      23.418  -1.307  28.991  0.00  0.00    -0.499 OA
ATOM     12  C17 UNL     1      24.683  -0.652  28.945  0.00  0.00    +0.228 C 
ATOM     13  C18 UNL     1      24.534   0.799  29.395  0.00  0.00    +0.046 C 
ATOM     14  C19 UNL     1      23.453   1.492  28.557  0.00  0.00    +0.047 C 
ENDBRANCH   7   9
BRANCH   1  15
ATOM     15  C8  UNL     1      19.915   0.259  25.645  0.00  0.00    +0.126 C 
BRANCH  15  18
ATOM     16  C7  UNL     1      17.541  -0.353  24.978  0.00  0.00    +0.223 C 
ATOM     17  O1  UNL     1      17.156  -0.208  26.173  0.00  0.00    -0.275 OA
ATOM     18  N1  UNL     1      18.916  -0.102  24.641  0.00  0.00    -0.313 N 
ATOM     19  H12 UNL     1      19.236  -0.254  23.657  0.00  0.00    +0.149 HD
BRANCH  16  20
ATOM     20  C4  UNL     1      16.567  -0.830  23.909  0.00  0.00    +0.062 C 
ATOM     21  C5  UNL     1      17.174  -2.105  23.276  0.00  0.00    +0.025 C 
ATOM     22  C6  UNL     1      15.205  -1.209  24.530  0.00  0.00    +0.025 C 
BRANCH  20  24
ATOM     23  C1  UNL     1      16.273   0.103  21.564  0.00  0.00    +0.008 C 
ATOM     24  C2  UNL     1      16.328   0.306  22.895  0.00  0.00    -0.065 C 
ATOM     25  C3  UNL     1      16.030   1.703  23.389  0.00  0.00    +0.039 C 
ENDBRANCH  20  24
ENDBRANCH  16  20
ENDBRANCH  15  18
ENDBRANCH   1  15
TORSDOF 5
ENDMDL
MODEL 6
REMARK VINA RESULT:    -5.864      6.212      8.673
REMARK INTER + INTRA:          -8.177
REMARK INTER:                  -7.305
REMARK INTRA:                  -0.871
REMARK UNBOUND:                -0.599
REMARK  Name = /home/qwerty/github/datacon2025hack/step_04_hit_selection/docking/ligands/lig_573.pdb
REMARK  8 active torsions:
REMARK  status: ('A' for Active; 'I' for Inactive)
REMARK    1  A    between atoms: C2_2  and  C3_3
REMARK    2  A    between atoms: C2_2  and  C4_4
REMARK    3  A    between atoms: C4_4  and  C5_5
REMARK    4  A    between atoms: C4_4  and  C6_6
REMARK    5  A    between atoms: C4_4  and  C7_7
REMARK    6  A    between atoms: N1_9  and  C8_10
REMARK    7  A    between atoms: C8_10  and  C9_11
REMARK    8  A    between atoms: C14_17  and  C15_19
REMARK                            x       y       z     vdW  Elec       q    Type
REMARK                         _______ _______ _______ _____ _____    ______ ____
ROOT
ATOM      1  C9  UNL     1      18.638   0.769  24.301  0.00  0.00    +0.093 C 
ATOM      2  C10 UNL     1      18.547   2.281  24.638  0.00  0.00    +0.024 C 
ATOM      3  C11 UNL     1      17.534   3.066  23.785  0.00  0.00    +0.003 C 
ATOM      4  C12 UNL     1      17.168   2.332  22.498  0.00  0.00    +0.019 C 
ATOM      5  C13 UNL     1      16.550   0.973  22.835  0.00  0.00    +0.108 C 
ATOM      6  N2  UNL     1      17.325   0.254  23.856  0.00  0.00    -0.293 N 
ATOM      7  C14 UNL     1      16.915  -1.094  24.131  0.00  0.00    +0.246 C 
ATOM      8  O2  UNL     1      17.477  -2.041  23.517  0.00  0.00    -0.270 OA
ENDROOT
BRANCH   7   9
ATOM      9  C15 UNL     1      15.840  -1.379  25.111  0.00  0.00    +0.049 C 
ATOM     10  C16 UNL     1      15.058  -2.467  24.975  0.00  0.00    +0.195 C 
ATOM     11  O3  UNL     1      14.050  -2.759  25.905  0.00  0.00    -0.499 OA
ATOM     12  C17 UNL     1      13.912  -2.049  27.133  0.00  0.00    +0.228 C 
ATOM     13  C18 UNL     1      14.271  -0.580  26.928  0.00  0.00    +0.046 C 
ATOM     14  C19 UNL     1      15.670  -0.471  26.311  0.00  0.00    +0.047 C 
ENDBRANCH   7   9
BRANCH   1  15
ATOM     15  C8  UNL     1      19.201  -0.014  25.513  0.00  0.00    +0.126 C 
BRANCH  15  18
ATOM     16  C7  UNL     1      20.303   1.213  27.445  0.00  0.00    +0.223 C 
ATOM     17  O1  UNL     1      19.276   1.035  28.160  0.00  0.00    -0.275 OA
ATOM     18  N1  UNL     1      20.339   0.682  26.110  0.00  0.00    -0.313 N 
ATOM     19  H12 UNL     1      21.179   0.860  25.512  0.00  0.00    +0.149 HD
BRANCH  16  20
ATOM     20  C4  UNL     1      21.479   2.023  27.978  0.00  0.00    +0.062 C 
ATOM     21  C5  UNL     1      22.380   2.368  26.768  0.00  0.00    +0.025 C 
ATOM     22  C6  UNL     1      20.998   3.349  28.606  0.00  0.00    +0.025 C 
BRANCH  20  24
ATOM     23  C1  UNL     1      22.452   1.701  30.302  0.00  0.00    +0.008 C 
ATOM     24  C2  UNL     1      22.200   1.212  29.072  0.00  0.00    -0.065 C 
ATOM     25  C3  UNL     1      22.557  -0.235  28.822  0.00  0.00    +0.039 C 
ENDBRANCH  20  24
ENDBRANCH  16  20
ENDBRANCH  15  18
ENDBRANCH   1  15
TORSDOF 5
ENDMDL
MODEL 7
REMARK VINA RESULT:    -5.799     14.509     16.139
REMARK INTER + INTRA:          -8.093
REMARK INTER:                  -7.067
REMARK INTRA:                  -1.026
REMARK UNBOUND:                -0.599
REMARK  Name = /home/qwerty/github/datacon2025hack/step_04_hit_selection/docking/ligands/lig_573.pdb
REMARK  8 active torsions:
REMARK  status: ('A' for Active; 'I' for Inactive)
REMARK    1  A    between atoms: C2_2  and  C3_3
REMARK    2  A    between atoms: C2_2  and  C4_4
REMARK    3  A    between atoms: C4_4  and  C5_5
REMARK    4  A    between atoms: C4_4  and  C6_6
REMARK    5  A    between atoms: C4_4  and  C7_7
REMARK    6  A    between atoms: N1_9  and  C8_10
REMARK    7  A    between atoms: C8_10  and  C9_11
REMARK    8  A    between atoms: C14_17  and  C15_19
REMARK                            x       y       z     vdW  Elec       q    Type
REMARK                         _______ _______ _______ _____ _____    ______ ____
ROOT
ATOM      1  C9  UNL     1       9.736   8.958  27.162  0.00  0.00    +0.093 C 
ATOM      2  C10 UNL     1      10.895   9.887  27.615  0.00  0.00    +0.024 C 
ATOM      3  C11 UNL     1      12.303   9.375  27.254  0.00  0.00    +0.003 C 
ATOM      4  C12 UNL     1      12.315   7.879  26.952  0.00  0.00    +0.019 C 
ATOM      5  C13 UNL     1      11.388   7.582  25.771  0.00  0.00    +0.108 C 
ATOM      6  N2  UNL     1      10.090   8.259  25.907  0.00  0.00    -0.293 N 
ATOM      7  C14 UNL     1       9.093   7.923  24.929  0.00  0.00    +0.246 C 
ATOM      8  O2  UNL     1       8.266   7.008  25.188  0.00  0.00    -0.270 OA
ENDROOT
BRANCH   7   9
ATOM      9  C15 UNL     1       9.037   8.627  23.626  0.00  0.00    +0.049 C 
ATOM     10  C16 UNL     1       8.292   8.141  22.615  0.00  0.00    +0.195 C 
ATOM     11  O3  UNL     1       8.214   8.807  21.383  0.00  0.00    -0.499 OA
ATOM     12  C17 UNL     1       8.751  10.113  21.183  0.00  0.00    +0.228 C 
ATOM     13  C18 UNL     1      10.038  10.274  21.987  0.00  0.00    +0.046 C 
ATOM     14  C19 UNL     1       9.774   9.940  23.459  0.00  0.00    +0.047 C 
ENDBRANCH   7   9
BRANCH   1  15
ATOM     15  C8  UNL     1       8.423   9.769  27.037  0.00  0.00    +0.126 C 
BRANCH  15  18
ATOM     16  C7  UNL     1       8.181  11.848  28.477  0.00  0.00    +0.223 C 
ATOM     17  O1  UNL     1       7.591  11.176  29.370  0.00  0.00    -0.275 OA
ATOM     18  N1  UNL     1       8.653  11.191  27.289  0.00  0.00    -0.313 N 
ATOM     19  H12 UNL     1       9.112  11.758  26.540  0.00  0.00    +0.149 HD
BRANCH  16  20
ATOM     20  C4  UNL     1       8.354  13.353  28.637  0.00  0.00    +0.062 C 
ATOM     21  C5  UNL     1       7.816  14.014  27.345  0.00  0.00    +0.025 C 
ATOM     22  C6  UNL     1       7.522  13.883  29.825  0.00  0.00    +0.025 C 
BRANCH  20  24
ATOM     23  C1  UNL     1      10.677  14.147  27.978  0.00  0.00    +0.008 C 
ATOM     24  C2  UNL     1       9.837  13.667  28.918  0.00  0.00    -0.065 C 
ATOM     25  C3  UNL     1      10.378  13.545  30.323  0.00  0.00    +0.039 C 
ENDBRANCH  20  24
ENDBRANCH  16  20
ENDBRANCH  15  18
ENDBRANCH   1  15
TORSDOF 5
ENDMDL
MODEL 8
REMARK VINA RESULT:    -5.768     15.009     16.582
REMARK INTER + INTRA:          -8.052
REMARK INTER:                  -7.422
REMARK INTRA:                  -0.630
REMARK UNBOUND:                -0.599
REMARK  Name = /home/qwerty/github/datacon2025hack/step_04_hit_selection/docking/ligands/lig_573.pdb
REMARK  8 active torsions:
REMARK  status: ('A' for Active; 'I' for Inactive)
REMARK    1  A    between atoms: C2_2  and  C3_3
REMARK    2  A    between atoms: C2_2  and  C4_4
REMARK    3  A    between atoms: C4_4  and  C5_5
REMARK    4  A    between atoms: C4_4  and  C6_6
REMARK    5  A    between atoms: C4_4  and  C7_7
REMARK    6  A    between atoms: N1_9  and  C8_10
REMARK    7  A    between atoms: C8_10  and  C9_11
REMARK    8  A    between atoms: C14_17  and  C15_19
REMARK                            x       y       z     vdW  Elec       q    Type
REMARK                         _______ _______ _______ _____ _____    ______ ____
ROOT
ATOM      1  C9  UNL     1       8.504   9.935  24.148  0.00  0.00    +0.093 C 
ATOM      2  C10 UNL     1       7.492  10.717  23.268  0.00  0.00    +0.024 C 
ATOM      3  C11 UNL     1       7.867  10.790  21.775  0.00  0.00    +0.003 C 
ATOM      4  C12 UNL     1       9.345  10.497  21.534  0.00  0.00    +0.019 C 
ATOM      5  C13 UNL     1       9.684   9.092  22.038  0.00  0.00    +0.108 C 
ATOM      6  N2  UNL     1       9.128   8.839  23.376  0.00  0.00    -0.293 N 
ATOM      7  C14 UNL     1       9.518   7.607  24.002  0.00  0.00    +0.246 C 
ATOM      8  O2  UNL     1      10.510   7.603  24.779  0.00  0.00    -0.270 OA
ENDROOT
BRANCH   7   9
ATOM      9  C15 UNL     1       8.780   6.350  23.735  0.00  0.00    +0.049 C 
ATOM     10  C16 UNL     1       8.585   5.446  24.715  0.00  0.00    +0.195 C 
ATOM     11  O3  UNL     1       7.872   4.262  24.482  0.00  0.00    -0.499 OA
ATOM     12  C17 UNL     1       7.154   4.026  23.273  0.00  0.00    +0.228 C 
ATOM     13  C18 UNL     1       7.910   4.632  22.093  0.00  0.00    +0.046 C 
ATOM     14  C19 UNL     1       8.183   6.116  22.363  0.00  0.00    +0.047 C 
ENDBRANCH   7   9
BRANCH   1  15
ATOM     15  C8  UNL     1       7.808   9.429  25.436  0.00  0.00    +0.126 C 
BRANCH  15  18
ATOM     16  C7  UNL     1       9.003  10.596  27.350  0.00  0.00    +0.223 C 
ATOM     17  O1  UNL     1      10.030   9.886  27.158  0.00  0.00    -0.275 OA
ATOM     18  N1  UNL     1       7.859  10.436  26.495  0.00  0.00    -0.313 N 
ATOM     19  H12 UNL     1       7.000  11.004  26.678  0.00  0.00    +0.149 HD
BRANCH  16  20
ATOM     20  C4  UNL     1       8.959  11.588  28.506  0.00  0.00    +0.062 C 
ATOM     21  C5  UNL     1       7.663  11.303  29.303  0.00  0.00    +0.025 C 
ATOM     22  C6  UNL     1      10.158  11.382  29.458  0.00  0.00    +0.025 C 
BRANCH  20  24
ATOM     23  C1  UNL     1       7.945  13.783  27.724  0.00  0.00    +0.008 C 
ATOM     24  C2  UNL     1       9.036  13.023  27.948  0.00  0.00    -0.065 C 
ATOM     25  C3  UNL     1      10.382  13.675  27.735  0.00  0.00    +0.039 C 
ENDBRANCH  20  24
ENDBRANCH  16  20
ENDBRANCH  15  18
ENDBRANCH   1  15
TORSDOF 5
ENDMDL
MODEL 9
REMARK VINA RESULT:    -5.734      4.800      7.232
REMARK INTER + INTRA:          -8.008
REMARK INTER:                  -7.072
REMARK INTRA:                  -0.936
REMARK UNBOUND:                -0.599
REMARK  Name = /home/qwerty/github/datacon2025hack/step_04_hit_selection/docking/ligands/lig_573.pdb
REMARK  8 active torsions:
REMARK  status: ('A' for Active; 'I' for Inactive)
REMARK    1  A    between atoms: C2_2  and  C3_3
REMARK    2  A    between atoms: C2_2  and  C4_4
REMARK    3  A    between atoms: C4_4  and  C5_5
REMARK    4  A    between atoms: C4_4  and  C6_6
REMARK    5  A    between atoms: C4_4  and  C7_7
REMARK    6  A    between atoms: N1_9  and  C8_10
REMARK    7  A    between atoms: C8_10  and  C9_11
REMARK    8  A    between atoms: C14_17  and  C15_19
REMARK                            x       y       z     vdW  Elec       q    Type
REMARK                         _______ _______ _______ _____ _____    ______ ____
ROOT
ATOM      1  C9  UNL     1      21.327   4.454  26.540  0.00  0.00    +0.093 C 
ATOM      2  C10 UNL     1      20.927   4.391  28.038  0.00  0.00    +0.024 C 
ATOM      3  C11 UNL     1      19.771   5.330  28.431  0.00  0.00    +0.003 C 
ATOM      4  C12 UNL     1      19.560   6.447  27.413  0.00  0.00    +0.019 C 
ATOM      5  C13 UNL     1      19.236   5.846  26.043  0.00  0.00    +0.108 C 
ATOM      6  N2  UNL     1      20.146   4.744  25.698  0.00  0.00    -0.293 N 
ATOM      7  C14 UNL     1      20.024   4.213  24.369  0.00  0.00    +0.246 C 
ATOM      8  O2  UNL     1      20.766   4.669  23.458  0.00  0.00    -0.270 OA
ENDROOT
BRANCH   7   9
ATOM      9  C15 UNL     1      19.033   3.155  24.059  0.00  0.00    +0.049 C 
ATOM     10  C16 UNL     1      18.250   3.245  22.967  0.00  0.00    +0.195 C 
ATOM     11  O3  UNL     1      17.324   2.242  22.651  0.00  0.00    -0.499 OA
ATOM     12  C17 UNL     1      17.281   0.995  23.340  0.00  0.00    +0.228 C 
ATOM     13  C18 UNL     1      17.610   1.204  24.816  0.00  0.00    +0.046 C 
ATOM     14  C19 UNL     1      18.954   1.930  24.946  0.00  0.00    +0.047 C 
ENDBRANCH   7   9
BRANCH   1  15
ATOM     15  C8  UNL     1      22.042   3.144  26.125  0.00  0.00    +0.126 C 
BRANCH  15  18
ATOM     16  C7  UNL     1      22.091   1.190  27.747  0.00  0.00    +0.223 C 
ATOM     17  O1  UNL     1      21.168   0.617  27.104  0.00  0.00    -0.275 OA
ATOM     18  N1  UNL     1      22.598   2.454  27.288  0.00  0.00    -0.313 N 
ATOM     19  H12 UNL     1      23.340   2.939  27.842  0.00  0.00    +0.149 HD
BRANCH  16  20
ATOM     20  C4  UNL     1      22.637   0.568  29.027  0.00  0.00    +0.062 C 
ATOM     21  C5  UNL     1      22.592  -0.968  28.843  0.00  0.00    +0.025 C 
ATOM     22  C6  UNL     1      24.108   0.978  29.258  0.00  0.00    +0.025 C 
BRANCH  20  24
ATOM     23  C1  UNL     1      20.726   0.417  30.695  0.00  0.00    +0.008 C 
ATOM     24  C2  UNL     1      21.809   1.068  30.228  0.00  0.00    -0.065 C 
ATOM     25  C3  UNL     1      22.270   2.280  31.005  0.00  0.00    +0.039 C 
ENDBRANCH  20  24
ENDBRANCH  16  20
ENDBRANCH  15  18
ENDBRANCH   1  15
TORSDOF 5
ENDMDL
