MODEL 1
REMARK VINA RESULT:    -5.904      0.000      0.000
REMARK INTER + INTRA:          -7.138
REMARK INTER:                  -6.939
REMARK INTRA:                  -0.198
REMARK UNBOUND:                -0.198
REMARK  Name = /home/qwerty/github/datacon2025hack/step_04_hit_selection/docking/ligands/lig_703.pdb
REMARK  4 active torsions:
REMARK  status: ('A' for Active; 'I' for Inactive)
REMARK    1  A    between atoms: C1_1  and  C2_2
REMARK    2  A    between atoms: C4_5  and  C5_7
REMARK    3  A    between atoms: C5_7  and  C6_8
REMARK    4  A    between atoms: C11_14  and  N2_15
REMARK                            x       y       z     vdW  Elec       q    Type
REMARK                         _______ _______ _______ _____ _____    ______ ____
ROOT
ATOM      1  C1  UNL     1       9.714   8.139  27.433  0.00  0.00    +0.011 C 
ATOM      2  C2  UNL     1       8.655   8.271  26.330  0.00  0.00    +0.025 C 
ATOM      3  C3  UNL     1       9.163   7.841  24.957  0.00  0.00    +0.113 C 
ATOM      4  N1  UNL     1       8.395   8.632  24.004  0.00  0.00    -0.299 N 
ATOM      5  C4  UNL     1       8.325   8.421  22.577  0.00  0.00    +0.224 C 
ATOM      6  O1  UNL     1       7.888   9.356  21.850  0.00  0.00    -0.275 OA
ATOM      7  C10 UNL     1       7.675   9.720  24.654  0.00  0.00    +0.130 C 
ATOM      8  C11 UNL     1       8.108   9.695  26.120  0.00  0.00    +0.093 C 
ENDROOT
BRANCH   8   9
ATOM      9  N2  UNL     1       9.148  10.708  26.346  0.00  0.00    -0.324 N 
ATOM     10  C12 UNL     1       9.116  11.634  27.445  0.00  0.00    +0.126 A 
ATOM     11  N3  UNL     1       8.018  11.723  28.253  0.00  0.00    -0.221 NA
ATOM     12  C13 UNL     1       7.973  12.601  29.298  0.00  0.00    +0.223 A 
ATOM     13  N4  UNL     1       9.034  13.415  29.557  0.00  0.00    -0.240 NA
ATOM     14  C14 UNL     1      10.136  13.341  28.768  0.00  0.00    +0.049 A 
ATOM     15  C15 UNL     1      10.203  12.472  27.716  0.00  0.00    +0.014 A 
ATOM     16  C16 UNL     1      11.505  12.563  27.011  0.00  0.00    +0.041 C 
ATOM     17  C17 UNL     1      12.246  13.701  27.744  0.00  0.00    +0.011 C 
ATOM     18  C18 UNL     1      11.361  14.151  28.925  0.00  0.00    +0.056 C 
ATOM     19  H18 UNL     1       9.970  10.717  25.701  0.00  0.00    +0.148 HD
ENDBRANCH   8   9
BRANCH   5  20
ATOM     20  C5  UNL     1       8.605   7.068  21.931  0.00  0.00    +0.075 C 
ATOM     21  C7  UNL     1       7.551   6.590  20.919  0.00  0.00    +0.019 C 
ATOM     22  C8  UNL     1       7.264   5.368  21.779  0.00  0.00    +0.002 C 
ATOM     23  C9  UNL     1       8.248   5.864  22.827  0.00  0.00    +0.019 C 
BRANCH  20  24
ATOM     24  C6  UNL     1      10.056   6.966  21.414  0.00  0.00    +0.229 C 
ATOM     25  F1  UNL     1      10.088   6.662  20.065  0.00  0.00    -0.248 F 
ENDBRANCH  20  24
ENDBRANCH   5  20
TORSDOF 3
ENDMDL
MODEL 2
REMARK VINA RESULT:    -5.829     13.952     14.988
REMARK INTER + INTRA:          -7.050
REMARK INTER:                  -6.708
REMARK INTRA:                  -0.342
REMARK UNBOUND:                -0.198
REMARK  Name = /home/qwerty/github/datacon2025hack/step_04_hit_selection/docking/ligands/lig_703.pdb
REMARK  4 active torsions:
REMARK  status: ('A' for Active; 'I' for Inactive)
REMARK    1  A    between atoms: C1_1  and  C2_2
REMARK    2  A    between atoms: C4_5  and  C5_7
REMARK    3  A    between atoms: C5_7  and  C6_8
REMARK    4  A    between atoms: C11_14  and  N2_15
REMARK                            x       y       z     vdW  Elec       q    Type
REMARK                         _______ _______ _______ _____ _____    ______ ____
ROOT
ATOM      1  C1  UNL     1      20.307   2.112  33.805  0.00  0.00    +0.011 C 
ATOM      2  C2  UNL     1      19.956   2.651  32.411  0.00  0.00    +0.025 C 
ATOM      3  C3  UNL     1      20.971   2.255  31.343  0.00  0.00    +0.113 C 
ATOM      4  N1  UNL     1      20.920   3.328  30.358  0.00  0.00    -0.299 N 
ATOM      5  C4  UNL     1      21.507   3.306  29.038  0.00  0.00    +0.224 C 
ATOM      6  O1  UNL     1      21.657   4.400  28.427  0.00  0.00    -0.275 OA
ATOM      7  C10 UNL     1      20.193   4.490  30.854  0.00  0.00    +0.130 C 
ATOM      8  C11 UNL     1      19.855   4.183  32.313  0.00  0.00    +0.093 C 
ENDROOT
BRANCH   8   9
ATOM      9  N2  UNL     1      20.826   4.844  33.196  0.00  0.00    -0.324 N 
ATOM     10  C12 UNL     1      20.441   5.639  34.330  0.00  0.00    +0.126 A 
ATOM     11  N3  UNL     1      19.131   5.956  34.550  0.00  0.00    -0.221 NA
ATOM     12  C13 UNL     1      18.753   6.714  35.621  0.00  0.00    +0.223 A 
ATOM     13  N4  UNL     1      19.686   7.175  36.500  0.00  0.00    -0.240 NA
ATOM     14  C14 UNL     1      20.993   6.870  36.301  0.00  0.00    +0.049 A 
ATOM     15  C15 UNL     1      21.396   6.115  35.236  0.00  0.00    +0.014 A 
ATOM     16  C16 UNL     1      22.864   5.903  35.236  0.00  0.00    +0.041 C 
ATOM     17  C17 UNL     1      23.357   6.720  36.449  0.00  0.00    +0.011 C 
ATOM     18  C18 UNL     1      22.115   7.290  37.165  0.00  0.00    +0.056 C 
ATOM     19  H18 UNL     1      21.841   4.682  33.012  0.00  0.00    +0.148 HD
ENDBRANCH   8   9
BRANCH   5  20
ATOM     20  C5  UNL     1      21.805   2.010  28.292  0.00  0.00    +0.075 C 
ATOM     21  C7  UNL     1      21.798   2.116  26.758  0.00  0.00    +0.019 C 
ATOM     22  C8  UNL     1      20.657   1.112  26.682  0.00  0.00    +0.002 C 
ATOM     23  C9  UNL     1      20.599   1.053  28.201  0.00  0.00    +0.019 C 
BRANCH  20  24
ATOM     24  C6  UNL     1      23.045   1.289  28.861  0.00  0.00    +0.229 C 
ATOM     25  F1  UNL     1      22.952  -0.081  28.690  0.00  0.00    -0.248 F 
ENDBRANCH  20  24
ENDBRANCH   5  20
TORSDOF 3
ENDMDL
MODEL 3
REMARK VINA RESULT:    -5.823     11.857     14.693
REMARK INTER + INTRA:          -7.042
REMARK INTER:                  -6.735
REMARK INTRA:                  -0.307
REMARK UNBOUND:                -0.198
REMARK  Name = /home/qwerty/github/datacon2025hack/step_04_hit_selection/docking/ligands/lig_703.pdb
REMARK  4 active torsions:
REMARK  status: ('A' for Active; 'I' for Inactive)
REMARK    1  A    between atoms: C1_1  and  C2_2
REMARK    2  A    between atoms: C4_5  and  C5_7
REMARK    3  A    between atoms: C5_7  and  C6_8
REMARK    4  A    between atoms: C11_14  and  N2_15
REMARK                            x       y       z     vdW  Elec       q    Type
REMARK                         _______ _______ _______ _____ _____    ______ ____
ROOT
ATOM      1  C1  UNL     1      15.698   0.613  26.521  0.00  0.00    +0.011 C 
ATOM      2  C2  UNL     1      17.170   0.188  26.610  0.00  0.00    +0.025 C 
ATOM      3  C3  UNL     1      18.046   1.210  27.329  0.00  0.00    +0.113 C 
ATOM      4  N1  UNL     1      19.372   1.047  26.745  0.00  0.00    -0.299 N 
ATOM      5  C4  UNL     1      20.603   1.606  27.253  0.00  0.00    +0.224 C 
ATOM      6  O1  UNL     1      21.605   1.650  26.487  0.00  0.00    -0.275 OA
ATOM      7  C10 UNL     1      19.340   0.236  25.535  0.00  0.00    +0.130 C 
ATOM      8  C11 UNL     1      17.863  -0.044  25.255  0.00  0.00    +0.093 C 
ENDROOT
BRANCH   8   9
ATOM      9  N2  UNL     1      17.368   0.887  24.232  0.00  0.00    -0.324 N 
ATOM     10  C12 UNL     1      16.985   0.469  22.910  0.00  0.00    +0.126 A 
ATOM     11  N3  UNL     1      17.218  -0.807  22.485  0.00  0.00    -0.221 NA
ATOM     12  C13 UNL     1      16.863  -1.215  21.232  0.00  0.00    +0.223 A 
ATOM     13  N4  UNL     1      16.263  -0.347  20.371  0.00  0.00    -0.240 NA
ATOM     14  C14 UNL     1      16.020   0.925  20.774  0.00  0.00    +0.049 A 
ATOM     15  C15 UNL     1      16.367   1.357  22.023  0.00  0.00    +0.014 A 
ATOM     16  C16 UNL     1      15.991   2.776  22.238  0.00  0.00    +0.041 C 
ATOM     17  C17 UNL     1      15.405   3.215  20.880  0.00  0.00    +0.011 C 
ATOM     18  C18 UNL     1      15.376   1.977  19.961  0.00  0.00    +0.056 C 
ATOM     19  H18 UNL     1      17.245   1.888  24.502  0.00  0.00    +0.148 HD
ENDBRANCH   8   9
BRANCH   5  20
ATOM     20  C5  UNL     1      20.789   1.996  28.716  0.00  0.00    +0.075 C 
ATOM     21  C7  UNL     1      22.134   1.591  29.340  0.00  0.00    +0.019 C 
ATOM     22  C8  UNL     1      21.412   0.722  30.359  0.00  0.00    +0.002 C 
ATOM     23  C9  UNL     1      20.079   1.051  29.707  0.00  0.00    +0.019 C 
BRANCH  20  24
ATOM     24  C6  UNL     1      20.399   3.467  28.974  0.00  0.00    +0.229 C 
ATOM     25  F1  UNL     1      21.470   4.315  28.758  0.00  0.00    -0.248 F 
ENDBRANCH  20  24
ENDBRANCH   5  20
TORSDOF 3
ENDMDL
MODEL 4
REMARK VINA RESULT:    -5.818     11.194     14.188
REMARK INTER + INTRA:          -7.037
REMARK INTER:                  -6.636
REMARK INTRA:                  -0.400
REMARK UNBOUND:                -0.198
REMARK  Name = /home/qwerty/github/datacon2025hack/step_04_hit_selection/docking/ligands/lig_703.pdb
REMARK  4 active torsions:
REMARK  status: ('A' for Active; 'I' for Inactive)
REMARK    1  A    between atoms: C1_1  and  C2_2
REMARK    2  A    between atoms: C4_5  and  C5_7
REMARK    3  A    between atoms: C5_7  and  C6_8
REMARK    4  A    between atoms: C11_14  and  N2_15
REMARK                            x       y       z     vdW  Elec       q    Type
REMARK                         _______ _______ _______ _____ _____    ______ ____
ROOT
ATOM      1  C1  UNL     1      15.989  -0.459  26.476  0.00  0.00    +0.011 C 
ATOM      2  C2  UNL     1      17.409  -0.414  25.893  0.00  0.00    +0.025 C 
ATOM      3  C3  UNL     1      18.266   0.697  26.491  0.00  0.00    +0.113 C 
ATOM      4  N1  UNL     1      19.211   1.053  25.440  0.00  0.00    -0.299 N 
ATOM      5  C4  UNL     1      20.389   1.875  25.591  0.00  0.00    +0.224 C 
ATOM      6  O1  UNL     1      20.926   2.354  24.554  0.00  0.00    -0.275 OA
ATOM      7  C10 UNL     1      18.835   0.483  24.152  0.00  0.00    +0.130 C 
ATOM      8  C11 UNL     1      17.480  -0.193  24.371  0.00  0.00    +0.093 C 
ENDROOT
BRANCH   8   9
ATOM      9  N2  UNL     1      16.404   0.693  23.906  0.00  0.00    -0.324 N 
ATOM     10  C12 UNL     1      15.942   0.717  22.544  0.00  0.00    +0.126 A 
ATOM     11  N3  UNL     1      16.600   0.023  21.570  0.00  0.00    -0.221 NA
ATOM     12  C13 UNL     1      16.173   0.042  20.273  0.00  0.00    +0.223 A 
ATOM     13  N4  UNL     1      15.072   0.762  19.922  0.00  0.00    -0.240 NA
ATOM     14  C14 UNL     1      14.402   1.457  20.876  0.00  0.00    +0.049 A 
ATOM     15  C15 UNL     1      14.810   1.455  22.179  0.00  0.00    +0.014 A 
ATOM     16  C16 UNL     1      13.917   2.273  23.036  0.00  0.00    +0.041 C 
ATOM     17  C17 UNL     1      12.897   2.871  22.045  0.00  0.00    +0.011 C 
ATOM     18  C18 UNL     1      13.194   2.276  20.653  0.00  0.00    +0.056 C 
ATOM     19  H18 UNL     1      15.926   1.294  24.613  0.00  0.00    +0.148 HD
ENDBRANCH   8   9
BRANCH   5  20
ATOM     20  C5  UNL     1      21.099   2.058  26.928  0.00  0.00    +0.075 C 
ATOM     21  C7  UNL     1      20.478   3.104  27.867  0.00  0.00    +0.019 C 
ATOM     22  C8  UNL     1      21.764   3.915  27.834  0.00  0.00    +0.002 C 
ATOM     23  C9  UNL     1      22.368   2.931  26.844  0.00  0.00    +0.019 C 
BRANCH  20  24
ATOM     24  C6  UNL     1      21.399   0.706  27.611  0.00  0.00    +0.229 C 
ATOM     25  F1  UNL     1      20.902   0.676  28.902  0.00  0.00    -0.248 F 
ENDBRANCH  20  24
ENDBRANCH   5  20
TORSDOF 3
ENDMDL
MODEL 5
REMARK VINA RESULT:    -5.792     12.206     14.589
REMARK INTER + INTRA:          -7.006
REMARK INTER:                  -6.634
REMARK INTRA:                  -0.373
REMARK UNBOUND:                -0.198
REMARK  Name = /home/qwerty/github/datacon2025hack/step_04_hit_selection/docking/ligands/lig_703.pdb
REMARK  4 active torsions:
REMARK  status: ('A' for Active; 'I' for Inactive)
REMARK    1  A    between atoms: C1_1  and  C2_2
REMARK    2  A    between atoms: C4_5  and  C5_7
REMARK    3  A    between atoms: C5_7  and  C6_8
REMARK    4  A    between atoms: C11_14  and  N2_15
REMARK                            x       y       z     vdW  Elec       q    Type
REMARK                         _______ _______ _______ _____ _____    ______ ____
ROOT
ATOM      1  C1  UNL     1      19.138   1.415  28.488  0.00  0.00    +0.011 C 
ATOM      2  C2  UNL     1      19.983   1.474  27.207  0.00  0.00    +0.025 C 
ATOM      3  C3  UNL     1      20.003   2.860  26.567  0.00  0.00    +0.113 C 
ATOM      4  N1  UNL     1      20.193   2.615  25.143  0.00  0.00    -0.299 N 
ATOM      5  C4  UNL     1      20.527   3.602  24.143  0.00  0.00    +0.224 C 
ATOM      6  O1  UNL     1      20.348   3.313  22.928  0.00  0.00    -0.275 OA
ATOM      7  C10 UNL     1      19.996   1.213  24.799  0.00  0.00    +0.130 C 
ATOM      8  C11 UNL     1      19.528   0.526  26.083  0.00  0.00    +0.093 C 
ENDROOT
BRANCH   8   9
ATOM      9  N2  UNL     1      18.066   0.381  26.062  0.00  0.00    -0.324 N 
ATOM     10  C12 UNL     1      17.401  -0.798  25.575  0.00  0.00    +0.126 A 
ATOM     11  N3  UNL     1      18.103  -1.789  24.951  0.00  0.00    -0.221 NA
ATOM     12  C13 UNL     1      17.483  -2.911  24.481  0.00  0.00    +0.223 A 
ATOM     13  N4  UNL     1      16.138  -3.065  24.626  0.00  0.00    -0.240 NA
ATOM     14  C14 UNL     1      15.422  -2.092  25.245  0.00  0.00    +0.049 A 
ATOM     15  C15 UNL     1      16.019  -0.960  25.722  0.00  0.00    +0.014 A 
ATOM     16  C16 UNL     1      15.040  -0.053  26.368  0.00  0.00    +0.041 C 
ATOM     17  C17 UNL     1      13.684  -0.760  26.159  0.00  0.00    +0.011 C 
ATOM     18  C18 UNL     1      13.964  -2.117  25.481  0.00  0.00    +0.056 C 
ATOM     19  H18 UNL     1      17.492   1.155  26.466  0.00  0.00    +0.148 HD
ENDBRANCH   8   9
BRANCH   5  20
ATOM     20  C5  UNL     1      21.229   4.912  24.482  0.00  0.00    +0.075 C 
ATOM     21  C7  UNL     1      20.308   6.055  24.939  0.00  0.00    +0.019 C 
ATOM     22  C8  UNL     1      20.751   6.901  23.755  0.00  0.00    +0.002 C 
ATOM     23  C9  UNL     1      21.609   5.753  23.246  0.00  0.00    +0.019 C 
BRANCH  20  24
ATOM     24  C6  UNL     1      22.451   4.690  25.399  0.00  0.00    +0.229 C 
ATOM     25  F1  UNL     1      23.065   3.480  25.132  0.00  0.00    -0.248 F 
ENDBRANCH  20  24
ENDBRANCH   5  20
TORSDOF 3
ENDMDL
MODEL 6
REMARK VINA RESULT:    -5.786     14.174     15.427
REMARK INTER + INTRA:          -6.999
REMARK INTER:                  -6.787
REMARK INTRA:                  -0.212
REMARK UNBOUND:                -0.198
REMARK  Name = /home/qwerty/github/datacon2025hack/step_04_hit_selection/docking/ligands/lig_703.pdb
REMARK  4 active torsions:
REMARK  status: ('A' for Active; 'I' for Inactive)
REMARK    1  A    between atoms: C1_1  and  C2_2
REMARK    2  A    between atoms: C4_5  and  C5_7
REMARK    3  A    between atoms: C5_7  and  C6_8
REMARK    4  A    between atoms: C11_14  and  N2_15
REMARK                            x       y       z     vdW  Elec       q    Type
REMARK                         _______ _______ _______ _____ _____    ______ ____
ROOT
ATOM      1  C1  UNL     1      21.410   7.535  31.295  0.00  0.00    +0.011 C 
ATOM      2  C2  UNL     1      22.136   6.186  31.190  0.00  0.00    +0.025 C 
ATOM      3  C3  UNL     1      21.335   5.134  30.429  0.00  0.00    +0.113 C 
ATOM      4  N1  UNL     1      21.760   3.857  30.991  0.00  0.00    -0.299 N 
ATOM      5  C4  UNL     1      21.482   2.549  30.446  0.00  0.00    +0.224 C 
ATOM      6  O1  UNL     1      21.632   1.542  31.191  0.00  0.00    -0.275 OA
ATOM      7  C10 UNL     1      22.520   4.029  32.222  0.00  0.00    +0.130 C 
ATOM      8  C11 UNL     1      22.479   5.525  32.537  0.00  0.00    +0.093 C 
ENDROOT
BRANCH   8   9
ATOM      9  N2  UNL     1      21.444   5.790  33.545  0.00  0.00    -0.324 N 
ATOM     10  C12 UNL     1      21.744   6.209  34.887  0.00  0.00    +0.126 A 
ATOM     11  N3  UNL     1      23.031   6.225  35.343  0.00  0.00    -0.221 NA
ATOM     12  C13 UNL     1      23.330   6.617  36.616  0.00  0.00    +0.223 A 
ATOM     13  N4  UNL     1      22.338   7.003  37.467  0.00  0.00    -0.240 NA
ATOM     14  C14 UNL     1      21.052   6.996  37.033  0.00  0.00    +0.049 A 
ATOM     15  C15 UNL     1      20.729   6.607  35.764  0.00  0.00    +0.014 A 
ATOM     16  C16 UNL     1      19.269   6.695  35.517  0.00  0.00    +0.041 C 
ATOM     17  C17 UNL     1      18.688   7.139  36.877  0.00  0.00    +0.011 C 
ATOM     18  C18 UNL     1      19.874   7.389  37.832  0.00  0.00    +0.056 C 
ATOM     19  H18 UNL     1      20.444   5.716  33.250  0.00  0.00    +0.148 HD
ENDBRANCH   8   9
BRANCH   5  20
ATOM     20  C5  UNL     1      21.171   2.321  28.971  0.00  0.00    +0.075 C 
ATOM     21  C7  UNL     1      21.991   1.214  28.287  0.00  0.00    +0.019 C 
ATOM     22  C8  UNL     1      22.575   2.230  27.317  0.00  0.00    +0.002 C 
ATOM     23  C9  UNL     1      21.831   3.349  28.029  0.00  0.00    +0.019 C 
BRANCH  20  24
ATOM     24  C6  UNL     1      19.652   2.223  28.710  0.00  0.00    +0.229 C 
ATOM     25  F1  UNL     1      19.131   1.047  29.220  0.00  0.00    -0.248 F 
ENDBRANCH  20  24
ENDBRANCH   5  20
TORSDOF 3
ENDMDL
MODEL 7
REMARK VINA RESULT:    -5.746     11.958     14.903
REMARK INTER + INTRA:          -6.952
REMARK INTER:                  -6.745
REMARK INTRA:                  -0.207
REMARK UNBOUND:                -0.198
REMARK  Name = /home/qwerty/github/datacon2025hack/step_04_hit_selection/docking/ligands/lig_703.pdb
REMARK  4 active torsions:
REMARK  status: ('A' for Active; 'I' for Inactive)
REMARK    1  A    between atoms: C1_1  and  C2_2
REMARK    2  A    between atoms: C4_5  and  C5_7
REMARK    3  A    between atoms: C5_7  and  C6_8
REMARK    4  A    between atoms: C11_14  and  N2_15
REMARK                            x       y       z     vdW  Elec       q    Type
REMARK                         _______ _______ _______ _____ _____    ______ ____
ROOT
ATOM      1  C1  UNL     1      20.673   2.539  24.022  0.00  0.00    +0.011 C 
ATOM      2  C2  UNL     1      20.127   2.847  25.423  0.00  0.00    +0.025 C 
ATOM      3  C3  UNL     1      20.675   1.914  26.499  0.00  0.00    +0.113 C 
ATOM      4  N1  UNL     1      19.629   1.848  27.511  0.00  0.00    -0.299 N 
ATOM      5  C4  UNL     1      19.759   1.297  28.840  0.00  0.00    +0.224 C 
ATOM      6  O1  UNL     1      18.708   1.020  29.482  0.00  0.00    -0.275 OA
ATOM      7  C10 UNL     1      18.371   2.407  27.033  0.00  0.00    +0.130 C 
ATOM      8  C11 UNL     1      18.596   2.752  25.560  0.00  0.00    +0.093 C 
ENDROOT
BRANCH   8   9
ATOM      9  N2  UNL     1      18.047   1.685  24.713  0.00  0.00    -0.324 N 
ATOM     10  C12 UNL     1      17.332   1.941  23.492  0.00  0.00    +0.126 A 
ATOM     11  N3  UNL     1      16.986   3.214  23.139  0.00  0.00    -0.221 NA
ATOM     12  C13 UNL     1      16.305   3.471  21.984  0.00  0.00    +0.223 A 
ATOM     13  N4  UNL     1      15.951   2.452  21.153  0.00  0.00    -0.240 NA
ATOM     14  C14 UNL     1      16.288   1.179  21.484  0.00  0.00    +0.049 A 
ATOM     15  C15 UNL     1      16.968   0.897  22.635  0.00  0.00    +0.014 A 
ATOM     16  C16 UNL     1      17.233  -0.556  22.774  0.00  0.00    +0.041 C 
ATOM     17  C17 UNL     1      16.537  -1.180  21.547  0.00  0.00    +0.011 C 
ATOM     18  C18 UNL     1      15.981  -0.026  20.687  0.00  0.00    +0.056 C 
ATOM     19  H18 UNL     1      18.230   0.695  24.993  0.00  0.00    +0.148 HD
ENDBRANCH   8   9
BRANCH   5  20
ATOM     20  C5  UNL     1      21.100   1.185  29.557  0.00  0.00    +0.075 C 
ATOM     21  C7  UNL     1      21.019   0.907  31.067  0.00  0.00    +0.019 C 
ATOM     22  C8  UNL     1      21.731   2.220  31.358  0.00  0.00    +0.002 C 
ATOM     23  C9  UNL     1      21.752   2.547  29.874  0.00  0.00    +0.019 C 
BRANCH  20  24
ATOM     24  C6  UNL     1      22.081   0.260  28.805  0.00  0.00    +0.229 C 
ATOM     25  F1  UNL     1      22.100  -1.007  29.359  0.00  0.00    -0.248 F 
ENDBRANCH  20  24
ENDBRANCH   5  20
TORSDOF 3
ENDMDL
MODEL 8
REMARK VINA RESULT:    -5.712      6.665     11.069
REMARK INTER + INTRA:          -6.913
REMARK INTER:                  -6.582
REMARK INTRA:                  -0.330
REMARK UNBOUND:                -0.198
REMARK  Name = /home/qwerty/github/datacon2025hack/step_04_hit_selection/docking/ligands/lig_703.pdb
REMARK  4 active torsions:
REMARK  status: ('A' for Active; 'I' for Inactive)
REMARK    1  A    between atoms: C1_1  and  C2_2
REMARK    2  A    between atoms: C4_5  and  C5_7
REMARK    3  A    between atoms: C5_7  and  C6_8
REMARK    4  A    between atoms: C11_14  and  N2_15
REMARK                            x       y       z     vdW  Elec       q    Type
REMARK                         _______ _______ _______ _____ _____    ______ ____
ROOT
ATOM      1  C1  UNL     1      13.572  11.658  30.289  0.00  0.00    +0.011 C 
ATOM      2  C2  UNL     1      13.349  12.852  31.227  0.00  0.00    +0.025 C 
ATOM      3  C3  UNL     1      13.634  12.526  32.690  0.00  0.00    +0.113 C 
ATOM      4  N1  UNL     1      12.764  13.415  33.451  0.00  0.00    -0.299 N 
ATOM      5  C4  UNL     1      12.835  13.670  34.871  0.00  0.00    +0.224 C 
ATOM      6  O1  UNL     1      11.840  14.201  35.439  0.00  0.00    -0.275 OA
ATOM      7  C10 UNL     1      11.758  14.047  32.609  0.00  0.00    +0.130 C 
ATOM      8  C11 UNL     1      11.920  13.425  31.221  0.00  0.00    +0.093 C 
ENDROOT
BRANCH   8   9
ATOM      9  N2  UNL     1      10.917  12.368  31.032  0.00  0.00    -0.324 N 
ATOM     10  C12 UNL     1       9.987  12.355  29.936  0.00  0.00    +0.126 A 
ATOM     11  N3  UNL     1       9.882  13.426  29.095  0.00  0.00    -0.221 NA
ATOM     12  C13 UNL     1       9.000  13.428  28.053  0.00  0.00    +0.223 A 
ATOM     13  N4  UNL     1       8.196  12.351  27.831  0.00  0.00    -0.240 NA
ATOM     14  C14 UNL     1       8.286  11.276  28.654  0.00  0.00    +0.049 A 
ATOM     15  C15 UNL     1       9.160  11.250  29.703  0.00  0.00    +0.014 A 
ATOM     16  C16 UNL     1       9.087   9.970  30.449  0.00  0.00    +0.041 C 
ATOM     17  C17 UNL     1       7.955   9.194  29.744  0.00  0.00    +0.011 C 
ATOM     18  C18 UNL     1       7.490  10.037  28.539  0.00  0.00    +0.056 C 
ATOM     19  H18 UNL     1      10.921  11.567  31.702  0.00  0.00    +0.148 HD
ENDBRANCH   8   9
BRANCH   5  20
ATOM     20  C5  UNL     1      14.113  13.473  35.680  0.00  0.00    +0.075 C 
ATOM     21  C7  UNL     1      14.391  14.547  36.745  0.00  0.00    +0.019 C 
ATOM     22  C8  UNL     1      15.688  14.922  36.045  0.00  0.00    +0.002 C 
ATOM     23  C9  UNL     1      15.392  13.919  34.941  0.00  0.00    +0.019 C 
BRANCH  20  24
ATOM     24  C6  UNL     1      14.247  12.027  36.203  0.00  0.00    +0.229 C 
ATOM     25  F1  UNL     1      14.706  12.006  37.508  0.00  0.00    -0.248 F 
ENDBRANCH  20  24
ENDBRANCH   5  20
TORSDOF 3
ENDMDL
MODEL 9
REMARK VINA RESULT:    -5.684     11.822     13.457
REMARK INTER + INTRA:          -6.879
REMARK INTER:                  -6.533
REMARK INTRA:                  -0.346
REMARK UNBOUND:                -0.198
REMARK  Name = /home/qwerty/github/datacon2025hack/step_04_hit_selection/docking/ligands/lig_703.pdb
REMARK  4 active torsions:
REMARK  status: ('A' for Active; 'I' for Inactive)
REMARK    1  A    between atoms: C1_1  and  C2_2
REMARK    2  A    between atoms: C4_5  and  C5_7
REMARK    3  A    between atoms: C5_7  and  C6_8
REMARK    4  A    between atoms: C11_14  and  N2_15
REMARK                            x       y       z     vdW  Elec       q    Type
REMARK                         _______ _______ _______ _____ _____    ______ ____
ROOT
ATOM      1  C1  UNL     1      18.429   4.194  26.376  0.00  0.00    +0.011 C 
ATOM      2  C2  UNL     1      18.761   3.210  25.245  0.00  0.00    +0.025 C 
ATOM      3  C3  UNL     1      17.524   2.554  24.639  0.00  0.00    +0.113 C 
ATOM      4  N1  UNL     1      17.981   1.255  24.162  0.00  0.00    -0.299 N 
ATOM      5  C4  UNL     1      17.253   0.359  23.294  0.00  0.00    +0.224 C 
ATOM      6  O1  UNL     1      17.624  -0.845  23.223  0.00  0.00    -0.275 OA
ATOM      7  C10 UNL     1      19.303   0.919  24.675  0.00  0.00    +0.130 C 
ATOM      8  C11 UNL     1      19.672   2.037  25.650  0.00  0.00    +0.093 C 
ENDROOT
BRANCH   8   9
ATOM      9  N2  UNL     1      19.405   1.601  27.028  0.00  0.00    -0.324 N 
ATOM     10  C12 UNL     1      20.440   1.423  28.010  0.00  0.00    +0.126 A 
ATOM     11  N3  UNL     1      21.758   1.498  27.658  0.00  0.00    -0.221 NA
ATOM     12  C13 UNL     1      22.750   1.327  28.580  0.00  0.00    +0.223 A 
ATOM     13  N4  UNL     1      22.442   1.074  29.882  0.00  0.00    -0.240 NA
ATOM     14  C14 UNL     1      21.139   0.998  30.253  0.00  0.00    +0.049 A 
ATOM     15  C15 UNL     1      20.129   1.164  29.349  0.00  0.00    +0.014 A 
ATOM     16  C16 UNL     1      18.795   1.050  29.988  0.00  0.00    +0.041 C 
ATOM     17  C17 UNL     1      19.115   0.704  31.457  0.00  0.00    +0.011 C 
ATOM     18  C18 UNL     1      20.649   0.737  31.622  0.00  0.00    +0.056 C 
ATOM     19  H18 UNL     1      18.409   1.462  27.311  0.00  0.00    +0.148 HD
ENDBRANCH   8   9
BRANCH   5  20
ATOM     20  C5  UNL     1      16.161   0.839  22.345  0.00  0.00    +0.075 C 
ATOM     21  C7  UNL     1      16.127   0.145  20.973  0.00  0.00    +0.019 C 
ATOM     22  C8  UNL     1      16.382   1.475  20.280  0.00  0.00    +0.002 C 
ATOM     23  C9  UNL     1      16.495   2.165  21.631  0.00  0.00    +0.019 C 
BRANCH  20  24
ATOM     24  C6  UNL     1      14.784   0.914  23.040  0.00  0.00    +0.229 C 
ATOM     25  F1  UNL     1      14.268  -0.350  23.266  0.00  0.00    -0.248 F 
ENDBRANCH  20  24
ENDBRANCH   5  20
TORSDOF 3
ENDMDL
