REMARK  Name = /home/qwerty/github/datacon2025hack/step_04_hit_selection/docking/ligands/lig_479.pdb
REMARK  5 active torsions:
REMARK  status: ('A' for Active; 'I' for Inactive)
REMARK    1  A    between atoms: C1_1  and  C2_2
REMARK    2  A    between atoms: C5_5  and  N1_6
REMARK    3  A    between atoms: C9_12  and  C10_13
REMARK    4  A    between atoms: C10_13  and  O2_14
REMARK    5  A    between atoms: C11_15  and  O3_16
REMARK                            x       y       z     vdW  Elec       q    Type
REMARK                         _______ _______ _______ _____ _____    ______ ____
ROOT
ATOM      1  N1  UNL     1       1.307  -0.590  -0.049  0.00  0.00    -0.269 N 
ATOM      2  C6  UNL     1       0.286  -0.022   0.789  0.00  0.00    +0.307 C 
ATOM      3  O1  UNL     1       0.611   0.661   1.798  0.00  0.00    -0.252 OA
ATOM      4  N2  UNL     1      -1.107  -0.270   0.515  0.00  0.00    -0.283 N 
ATOM      5  C7  UNL     1      -2.107  -0.051   1.570  0.00  0.00    +0.110 C 
ATOM      6  C8  UNL     1      -3.350  -0.911   1.322  0.00  0.00    +0.027 C 
ATOM      7  C9  UNL     1      -3.988  -0.648  -0.068  0.00  0.00    +0.046 C 
ATOM      8  C11 UNL     1      -2.948  -0.187  -1.132  0.00  0.00    +0.137 C 
ATOM      9  C12 UNL     1      -1.538  -0.708  -0.822  0.00  0.00    +0.141 C 
ATOM     10  H6  UNL     1       1.072  -1.452  -0.591  0.00  0.00    +0.156 HD
ENDROOT
BRANCH   1  15
ATOM     11  C1  UNL     1       6.772   1.203  -0.243  0.00  0.00    +0.044 C 
ATOM     12  C2  UNL     1       5.343   0.748  -0.220  0.00  0.00    -0.050 A 
ATOM     13  C3  UNL     1       5.027  -0.602  -0.428  0.00  0.00    +0.005 A 
ATOM     14  C4  UNL     1       3.698  -1.032  -0.372  0.00  0.00    +0.023 A 
ATOM     15  C5  UNL     1       2.668  -0.126  -0.079  0.00  0.00    +0.035 A 
ATOM     16  C13 UNL     1       2.987   1.229   0.126  0.00  0.00    +0.023 A 
ATOM     17  C14 UNL     1       4.316   1.659   0.068  0.00  0.00    +0.005 A 
ENDBRANCH   1  15
BRANCH   8  18
ATOM     18  O3  UNL     1      -3.327  -0.636  -2.407  0.00  0.00    -0.390 OA
ATOM     19  H16 UNL     1      -4.017  -0.007  -2.744  0.00  0.00    +0.210 HD
ENDBRANCH   8  18
BRANCH   7  20
ATOM     20  C10 UNL     1      -5.142   0.371   0.032  0.00  0.00    +0.162 C 
BRANCH  20  21
ATOM     21  O2  UNL     1      -6.184  -0.128   0.829  0.00  0.00    -0.395 OA
ATOM     22  H14 UNL     1      -6.661  -0.806   0.283  0.00  0.00    +0.209 HD
ENDBRANCH  20  21
ENDBRANCH   7  20
TORSDOF 4
