MODEL 1
REMARK VINA RESULT:    -6.608      0.000      0.000
REMARK INTER + INTRA:          -8.695
REMARK INTER:                  -7.960
REMARK INTRA:                  -0.735
REMARK UNBOUND:                -0.735
REMARK  Name = /home/qwerty/github/datacon2025hack/step_04_hit_selection/docking/ligands/lig_203.pdb
REMARK  5 active torsions:
REMARK  status: ('A' for Active; 'I' for Inactive)
REMARK    1  A    between atoms: C1_1  and  C2_2
REMARK    2  A    between atoms: C2_2  and  N1_3
REMARK    3  A    between atoms: C2_2  and  C3_4
REMARK    4  A    between atoms: N2_11  and  C10_12
REMARK    5  A    between atoms: C13_15  and  N3_16
REMARK                            x       y       z     vdW  Elec       q    Type
REMARK                         _______ _______ _______ _____ _____    ______ ____
ROOT
ATOM      1  C3  UNL     1       8.234  10.584  28.706  0.00  0.00    -0.030 A 
ATOM      2  C4  UNL     1       8.877  10.401  29.958  0.00  0.00    +0.007 A 
ATOM      3  C5  UNL     1       9.843  11.315  30.415  0.00  0.00    +0.027 A 
ATOM      4  C6  UNL     1      10.140  12.417  29.609  0.00  0.00    +0.054 A 
ATOM      5  C7  UNL     1       9.537  12.587  28.389  0.00  0.00    +0.000 A 
ATOM      6  C8  UNL     1      10.075  13.715  27.809  0.00  0.00    +0.028 A 
ATOM      7  C9  UNL     1      11.007  14.189  28.723  0.00  0.00    +0.092 A 
ATOM      8  N2  UNL     1      11.040  13.401  29.826  0.00  0.00    -0.316 N 
ATOM      9  C20 UNL     1       8.578  11.700  27.907  0.00  0.00    +0.015 A 
ENDROOT
BRANCH   8  10
ATOM     10  C10 UNL     1      11.874  13.608  30.978  0.00  0.00    +0.047 A 
ATOM     11  C11 UNL     1      11.336  14.164  32.148  0.00  0.00    +0.028 A 
ATOM     12  C12 UNL     1      12.138  14.353  33.277  0.00  0.00    +0.025 A 
ATOM     13  C13 UNL     1      13.491  13.975  33.261  0.00  0.00    +0.030 A 
ATOM     14  C18 UNL     1      14.024  13.401  32.093  0.00  0.00    +0.025 A 
ATOM     15  C19 UNL     1      13.221  13.215  30.965  0.00  0.00    +0.028 A 
BRANCH  13  16
ATOM     16  N3  UNL     1      14.320  14.174  34.427  0.00  0.00    -0.327 N 
ATOM     17  C14 UNL     1      13.781  14.877  35.601  0.00  0.00    +0.120 C 
ATOM     18  C15 UNL     1      14.877  15.655  36.365  0.00  0.00    +0.100 C 
ATOM     19  N4  UNL     1      16.243  15.147  36.138  0.00  0.00    -0.313 NA
ATOM     20  C16 UNL     1      16.261  13.708  35.879  0.00  0.00    +0.100 C 
ATOM     21  C17 UNL     1      15.591  13.442  34.533  0.00  0.00    +0.120 C 
ATOM     22  H17 UNL     1      16.811  15.332  36.999  0.00  0.00    +0.122 HD
ENDBRANCH  13  16
ENDBRANCH   8  10
BRANCH   1  24
ATOM     23  C1  UNL     1       7.856   8.301  27.717  0.00  0.00    +0.029 C 
ATOM     24  C2  UNL     1       7.196   9.587  28.237  0.00  0.00    +0.078 C 
BRANCH  24  25
ATOM     25  N1  UNL     1       6.246   9.297  29.315  0.00  0.00    -0.324 NA
ATOM     26  H5  UNL     1       6.696   9.472  30.243  0.00  0.00    +0.119 HD
ATOM     27  H6  UNL     1       6.004   8.280  29.281  0.00  0.00    +0.119 HD
ENDBRANCH  24  25
ENDBRANCH   1  24
TORSDOF 4
ENDMDL
MODEL 2
REMARK VINA RESULT:    -6.480     14.364     16.025
REMARK INTER + INTRA:          -8.540
REMARK INTER:                  -7.830
REMARK INTRA:                  -0.710
REMARK UNBOUND:                -0.735
REMARK  Name = /home/qwerty/github/datacon2025hack/step_04_hit_selection/docking/ligands/lig_203.pdb
REMARK  5 active torsions:
REMARK  status: ('A' for Active; 'I' for Inactive)
REMARK    1  A    between atoms: C1_1  and  C2_2
REMARK    2  A    between atoms: C2_2  and  N1_3
REMARK    3  A    between atoms: C2_2  and  C3_4
REMARK    4  A    between atoms: N2_11  and  C10_12
REMARK    5  A    between atoms: C13_15  and  N3_16
REMARK                            x       y       z     vdW  Elec       q    Type
REMARK                         _______ _______ _______ _____ _____    ______ ____
ROOT
ATOM      1  C3  UNL     1      19.086   0.997  31.439  0.00  0.00    -0.030 A 
ATOM      2  C4  UNL     1      18.741   1.994  30.489  0.00  0.00    +0.007 A 
ATOM      3  C5  UNL     1      19.520   2.195  29.337  0.00  0.00    +0.027 A 
ATOM      4  C6  UNL     1      20.635   1.375  29.145  0.00  0.00    +0.054 A 
ATOM      5  C7  UNL     1      20.985   0.425  30.069  0.00  0.00    +0.000 A 
ATOM      6  C8  UNL     1      22.149  -0.172  29.638  0.00  0.00    +0.028 A 
ATOM      7  C9  UNL     1      22.465   0.462  28.442  0.00  0.00    +0.092 A 
ATOM      8  N2  UNL     1      21.535   1.400  28.138  0.00  0.00    -0.316 N 
ATOM      9  C20 UNL     1      20.236   0.202  31.222  0.00  0.00    +0.015 A 
ENDROOT
BRANCH   8  10
ATOM     10  C10 UNL     1      21.537   2.230  26.964  0.00  0.00    +0.047 A 
ATOM     11  C11 UNL     1      22.505   3.233  26.813  0.00  0.00    +0.028 A 
ATOM     12  C12 UNL     1      22.524   4.034  25.667  0.00  0.00    +0.025 A 
ATOM     13  C13 UNL     1      21.580   3.836  24.644  0.00  0.00    +0.030 A 
ATOM     14  C18 UNL     1      20.622   2.817  24.791  0.00  0.00    +0.025 A 
ATOM     15  C19 UNL     1      20.604   2.020  25.938  0.00  0.00    +0.028 A 
BRANCH  13  16
ATOM     16  N3  UNL     1      21.597   4.665  23.462  0.00  0.00    -0.327 N 
ATOM     17  C14 UNL     1      20.609   4.445  22.395  0.00  0.00    +0.120 C 
ATOM     18  C15 UNL     1      21.173   4.800  21.000  0.00  0.00    +0.100 C 
ATOM     19  N4  UNL     1      22.304   5.747  21.032  0.00  0.00    -0.313 NA
ATOM     20  C16 UNL     1      22.218   6.671  22.163  0.00  0.00    +0.100 C 
ATOM     21  C17 UNL     1      22.419   5.884  23.456  0.00  0.00    +0.120 C 
ATOM     22  H17 UNL     1      22.288   6.309  20.148  0.00  0.00    +0.122 HD
ENDBRANCH  13  16
ENDBRANCH   8  10
BRANCH   1  24
ATOM     23  C1  UNL     1      17.204   1.933  32.823  0.00  0.00    +0.029 C 
ATOM     24  C2  UNL     1      18.229   0.799  32.672  0.00  0.00    +0.078 C 
BRANCH  24  25
ATOM     25  N1  UNL     1      17.572  -0.510  32.629  0.00  0.00    -0.324 NA
ATOM     26  H5  UNL     1      17.014  -0.656  33.502  0.00  0.00    +0.119 HD
ATOM     27  H6  UNL     1      18.309  -1.252  32.612  0.00  0.00    +0.119 HD
ENDBRANCH  24  25
ENDBRANCH   1  24
TORSDOF 4
ENDMDL
MODEL 3
REMARK VINA RESULT:    -6.397     11.908     13.611
REMARK INTER + INTRA:          -8.440
REMARK INTER:                  -7.732
REMARK INTRA:                  -0.708
REMARK UNBOUND:                -0.735
REMARK  Name = /home/qwerty/github/datacon2025hack/step_04_hit_selection/docking/ligands/lig_203.pdb
REMARK  5 active torsions:
REMARK  status: ('A' for Active; 'I' for Inactive)
REMARK    1  A    between atoms: C1_1  and  C2_2
REMARK    2  A    between atoms: C2_2  and  N1_3
REMARK    3  A    between atoms: C2_2  and  C3_4
REMARK    4  A    between atoms: N2_11  and  C10_12
REMARK    5  A    between atoms: C13_15  and  N3_16
REMARK                            x       y       z     vdW  Elec       q    Type
REMARK                         _______ _______ _______ _____ _____    ______ ____
ROOT
ATOM      1  C3  UNL     1      21.742   3.619  26.981  0.00  0.00    -0.030 A 
ATOM      2  C4  UNL     1      21.546   4.774  27.782  0.00  0.00    +0.007 A 
ATOM      3  C5  UNL     1      21.487   4.680  29.184  0.00  0.00    +0.027 A 
ATOM      4  C6  UNL     1      21.645   3.420  29.766  0.00  0.00    +0.054 A 
ATOM      5  C7  UNL     1      21.815   2.298  28.996  0.00  0.00    +0.000 A 
ATOM      6  C8  UNL     1      21.876   1.214  29.843  0.00  0.00    +0.028 A 
ATOM      7  C9  UNL     1      21.734   1.737  31.122  0.00  0.00    +0.092 A 
ATOM      8  N2  UNL     1      21.602   3.086  31.074  0.00  0.00    -0.316 N 
ATOM      9  C20 UNL     1      21.874   2.356  27.606  0.00  0.00    +0.015 A 
ENDROOT
BRANCH   8  10
ATOM     10  C10 UNL     1      21.454   3.953  32.212  0.00  0.00    +0.047 A 
ATOM     11  C11 UNL     1      20.259   3.955  32.946  0.00  0.00    +0.028 A 
ATOM     12  C12 UNL     1      20.114   4.783  34.062  0.00  0.00    +0.025 A 
ATOM     13  C13 UNL     1      21.169   5.615  34.473  0.00  0.00    +0.030 A 
ATOM     14  C18 UNL     1      22.373   5.597  33.746  0.00  0.00    +0.025 A 
ATOM     15  C19 UNL     1      22.514   4.770  32.629  0.00  0.00    +0.028 A 
BRANCH  13  16
ATOM     16  N3  UNL     1      21.018   6.473  35.625  0.00  0.00    -0.327 N 
ATOM     17  C14 UNL     1      22.202   6.894  36.389  0.00  0.00    +0.120 C 
ATOM     18  C15 UNL     1      21.882   7.103  37.887  0.00  0.00    +0.100 C 
ATOM     19  N4  UNL     1      20.459   7.372  38.165  0.00  0.00    -0.313 NA
ATOM     20  C16 UNL     1      19.803   8.073  37.061  0.00  0.00    +0.100 C 
ATOM     21  C17 UNL     1      19.725   7.132  35.861  0.00  0.00    +0.120 C 
ATOM     22  H17 UNL     1      20.399   7.977  39.018  0.00  0.00    +0.122 HD
ENDBRANCH  13  16
ENDBRANCH   8  10
BRANCH   1  24
ATOM     23  C1  UNL     1      21.683   5.214  25.035  0.00  0.00    +0.029 C 
ATOM     24  C2  UNL     1      21.803   3.747  25.473  0.00  0.00    +0.078 C 
BRANCH  24  25
ATOM     25  N1  UNL     1      23.034   3.138  24.961  0.00  0.00    -0.324 NA
ATOM     26  H5  UNL     1      22.817   2.211  24.526  0.00  0.00    +0.119 HD
ATOM     27  H6  UNL     1      23.674   2.953  25.767  0.00  0.00    +0.119 HD
ENDBRANCH  24  25
ENDBRANCH   1  24
TORSDOF 4
ENDMDL
MODEL 4
REMARK VINA RESULT:    -6.302      6.701     11.444
REMARK INTER + INTRA:          -8.326
REMARK INTER:                  -7.621
REMARK INTRA:                  -0.705
REMARK UNBOUND:                -0.735
REMARK  Name = /home/qwerty/github/datacon2025hack/step_04_hit_selection/docking/ligands/lig_203.pdb
REMARK  5 active torsions:
REMARK  status: ('A' for Active; 'I' for Inactive)
REMARK    1  A    between atoms: C1_1  and  C2_2
REMARK    2  A    between atoms: C2_2  and  N1_3
REMARK    3  A    between atoms: C2_2  and  C3_4
REMARK    4  A    between atoms: N2_11  and  C10_12
REMARK    5  A    between atoms: C13_15  and  N3_16
REMARK                            x       y       z     vdW  Elec       q    Type
REMARK                         _______ _______ _______ _____ _____    ______ ____
ROOT
ATOM      1  C3  UNL     1      23.067   8.680  33.573  0.00  0.00    -0.030 A 
ATOM      2  C4  UNL     1      22.132   9.673  33.179  0.00  0.00    +0.007 A 
ATOM      3  C5  UNL     1      21.055  10.023  34.012  0.00  0.00    +0.027 A 
ATOM      4  C6  UNL     1      20.939   9.377  35.246  0.00  0.00    +0.054 A 
ATOM      5  C7  UNL     1      21.828   8.403  35.623  0.00  0.00    +0.000 A 
ATOM      6  C8  UNL     1      21.421   7.915  36.845  0.00  0.00    +0.028 A 
ATOM      7  C9  UNL     1      20.273   8.631  37.163  0.00  0.00    +0.092 A 
ATOM      8  N2  UNL     1      19.985   9.530  36.190  0.00  0.00    -0.316 N 
ATOM      9  C20 UNL     1      22.903   8.031  34.821  0.00  0.00    +0.015 A 
ENDROOT
BRANCH   8  10
ATOM     10  C10 UNL     1      18.880  10.449  36.200  0.00  0.00    +0.047 A 
ATOM     11  C11 UNL     1      17.567   9.973  36.071  0.00  0.00    +0.028 A 
ATOM     12  C12 UNL     1      16.486  10.859  36.097  0.00  0.00    +0.025 A 
ATOM     13  C13 UNL     1      16.699  12.238  36.265  0.00  0.00    +0.030 A 
ATOM     14  C18 UNL     1      18.016  12.710  36.412  0.00  0.00    +0.025 A 
ATOM     15  C19 UNL     1      19.094  11.822  36.384  0.00  0.00    +0.028 A 
BRANCH  13  16
ATOM     16  N3  UNL     1      15.582  13.153  36.287  0.00  0.00    -0.327 N 
ATOM     17  C14 UNL     1      14.293  12.727  36.853  0.00  0.00    +0.120 C 
ATOM     18  C15 UNL     1      13.098  13.419  36.159  0.00  0.00    +0.100 C 
ATOM     19  N4  UNL     1      13.442  14.692  35.499  0.00  0.00    -0.313 NA
ATOM     20  C16 UNL     1      14.537  15.387  36.176  0.00  0.00    +0.100 C 
ATOM     21  C17 UNL     1      15.817  14.575  35.997  0.00  0.00    +0.120 C 
ATOM     22  H17 UNL     1      12.598  15.313  35.520  0.00  0.00    +0.122 HD
ENDBRANCH  13  16
ENDBRANCH   8  10
BRANCH   1  24
ATOM     23  C1  UNL     1      24.739   9.557  31.911  0.00  0.00    +0.029 C 
ATOM     24  C2  UNL     1      24.219   8.321  32.659  0.00  0.00    +0.078 C 
BRANCH  24  25
ATOM     25  N1  UNL     1      25.289   7.672  33.421  0.00  0.00    -0.324 NA
ATOM     26  H5  UNL     1      25.079   6.653  33.532  0.00  0.00    +0.119 HD
ATOM     27  H6  UNL     1      25.310   8.084  34.383  0.00  0.00    +0.119 HD
ENDBRANCH  24  25
ENDBRANCH   1  24
TORSDOF 4
ENDMDL
MODEL 5
REMARK VINA RESULT:    -6.301      4.344     10.816
REMARK INTER + INTRA:          -8.325
REMARK INTER:                  -7.580
REMARK INTRA:                  -0.745
REMARK UNBOUND:                -0.735
REMARK  Name = /home/qwerty/github/datacon2025hack/step_04_hit_selection/docking/ligands/lig_203.pdb
REMARK  5 active torsions:
REMARK  status: ('A' for Active; 'I' for Inactive)
REMARK    1  A    between atoms: C1_1  and  C2_2
REMARK    2  A    between atoms: C2_2  and  N1_3
REMARK    3  A    between atoms: C2_2  and  C3_4
REMARK    4  A    between atoms: N2_11  and  C10_12
REMARK    5  A    between atoms: C13_15  and  N3_16
REMARK                            x       y       z     vdW  Elec       q    Type
REMARK                         _______ _______ _______ _____ _____    ______ ____
ROOT
ATOM      1  C3  UNL     1      11.004  13.428  28.604  0.00  0.00    -0.030 A 
ATOM      2  C4  UNL     1      11.358  12.865  27.350  0.00  0.00    +0.007 A 
ATOM      3  C5  UNL     1      10.595  11.831  26.780  0.00  0.00    +0.027 A 
ATOM      4  C6  UNL     1       9.469  11.384  27.476  0.00  0.00    +0.054 A 
ATOM      5  C7  UNL     1       9.133  11.910  28.697  0.00  0.00    +0.000 A 
ATOM      6  C8  UNL     1       8.026  11.232  29.156  0.00  0.00    +0.028 A 
ATOM      7  C9  UNL     1       7.733  10.297  28.170  0.00  0.00    +0.092 A 
ATOM      8  N2  UNL     1       8.609  10.398  27.140  0.00  0.00    -0.316 N 
ATOM      9  C20 UNL     1       9.868  12.933  29.290  0.00  0.00    +0.015 A 
ENDROOT
BRANCH   8  10
ATOM     10  C10 UNL     1       8.590   9.599  25.945  0.00  0.00    +0.047 A 
ATOM     11  C11 UNL     1       7.916  10.056  24.803  0.00  0.00    +0.028 A 
ATOM     12  C12 UNL     1       7.908   9.293  23.632  0.00  0.00    +0.025 A 
ATOM     13  C13 UNL     1       8.585   8.063  23.578  0.00  0.00    +0.030 A 
ATOM     14  C18 UNL     1       9.276   7.616  24.719  0.00  0.00    +0.025 A 
ATOM     15  C19 UNL     1       9.281   8.380  25.889  0.00  0.00    +0.028 A 
BRANCH  13  16
ATOM     16  N3  UNL     1       8.573   7.273  22.369  0.00  0.00    -0.327 N 
ATOM     17  C14 UNL     1       7.468   7.415  21.409  0.00  0.00    +0.120 C 
ATOM     18  C15 UNL     1       7.178   6.095  20.659  0.00  0.00    +0.100 C 
ATOM     19  N4  UNL     1       8.319   5.161  20.624  0.00  0.00    -0.313 NA
ATOM     20  C16 UNL     1       9.604   5.859  20.628  0.00  0.00    +0.100 C 
ATOM     21  C17 UNL     1       9.788   6.541  21.982  0.00  0.00    +0.120 C 
ATOM     22  H17 UNL     1       8.255   4.597  19.743  0.00  0.00    +0.122 HD
ENDBRANCH  13  16
ENDBRANCH   8  10
BRANCH   1  24
ATOM     23  C1  UNL     1      13.174  14.007  29.739  0.00  0.00    +0.029 C 
ATOM     24  C2  UNL     1      11.840  14.542  29.196  0.00  0.00    +0.078 C 
BRANCH  24  25
ATOM     25  N1  UNL     1      12.056  15.599  28.204  0.00  0.00    -0.324 NA
ATOM     26  H5  UNL     1      11.314  15.552  27.468  0.00  0.00    +0.119 HD
ATOM     27  H6  UNL     1      12.970  15.424  27.726  0.00  0.00    +0.119 HD
ENDBRANCH  24  25
ENDBRANCH   1  24
TORSDOF 4
ENDMDL
MODEL 6
REMARK VINA RESULT:    -6.251     13.924     17.043
REMARK INTER + INTRA:          -8.265
REMARK INTER:                  -7.554
REMARK INTRA:                  -0.711
REMARK UNBOUND:                -0.735
REMARK  Name = /home/qwerty/github/datacon2025hack/step_04_hit_selection/docking/ligands/lig_203.pdb
REMARK  5 active torsions:
REMARK  status: ('A' for Active; 'I' for Inactive)
REMARK    1  A    between atoms: C1_1  and  C2_2
REMARK    2  A    between atoms: C2_2  and  N1_3
REMARK    3  A    between atoms: C2_2  and  C3_4
REMARK    4  A    between atoms: N2_11  and  C10_12
REMARK    5  A    between atoms: C13_15  and  N3_16
REMARK                            x       y       z     vdW  Elec       q    Type
REMARK                         _______ _______ _______ _____ _____    ______ ____
ROOT
ATOM      1  C3  UNL     1      20.624   1.429  31.047  0.00  0.00    -0.030 A 
ATOM      2  C4  UNL     1      19.452   1.025  30.355  0.00  0.00    +0.007 A 
ATOM      3  C5  UNL     1      19.388   1.074  28.952  0.00  0.00    +0.027 A 
ATOM      4  C6  UNL     1      20.517   1.516  28.256  0.00  0.00    +0.054 A 
ATOM      5  C7  UNL     1      21.644   1.927  28.921  0.00  0.00    +0.000 A 
ATOM      6  C8  UNL     1      22.550   2.361  27.979  0.00  0.00    +0.028 A 
ATOM      7  C9  UNL     1      21.917   2.194  26.754  0.00  0.00    +0.092 A 
ATOM      8  N2  UNL     1      20.678   1.669  26.924  0.00  0.00    -0.316 N 
ATOM      9  C20 UNL     1      21.739   1.893  30.309  0.00  0.00    +0.015 A 
ENDROOT
BRANCH   8  10
ATOM     10  C10 UNL     1      19.753   1.348  25.871  0.00  0.00    +0.047 A 
ATOM     11  C11 UNL     1      19.524   0.011  25.518  0.00  0.00    +0.028 A 
ATOM     12  C12 UNL     1      18.614  -0.309  24.507  0.00  0.00    +0.025 A 
ATOM     13  C13 UNL     1      17.906   0.704  23.838  0.00  0.00    +0.030 A 
ATOM     14  C18 UNL     1      18.124   2.043  24.207  0.00  0.00    +0.025 A 
ATOM     15  C19 UNL     1      19.036   2.361  25.217  0.00  0.00    +0.028 A 
BRANCH  13  16
ATOM     16  N3  UNL     1      16.968   0.373  22.791  0.00  0.00    -0.327 N 
ATOM     17  C14 UNL     1      16.882  -1.008  22.290  0.00  0.00    +0.120 C 
ATOM     18  C15 UNL     1      16.485  -1.060  20.797  0.00  0.00    +0.100 C 
ATOM     19  N4  UNL     1      15.774   0.142  20.322  0.00  0.00    -0.313 NA
ATOM     20  C16 UNL     1      14.981   0.768  21.380  0.00  0.00    +0.100 C 
ATOM     21  C17 UNL     1      15.930   1.348  22.426  0.00  0.00    +0.120 C 
ATOM     22  H17 UNL     1      15.124  -0.143  19.551  0.00  0.00    +0.122 HD
ENDBRANCH  13  16
ENDBRANCH   8  10
BRANCH   1  24
ATOM     23  C1  UNL     1      19.774   2.444  33.187  0.00  0.00    +0.029 C 
ATOM     24  C2  UNL     1      20.669   1.365  32.559  0.00  0.00    +0.078 C 
BRANCH  24  25
ATOM     25  N1  UNL     1      20.294   0.027  33.023  0.00  0.00    -0.324 NA
ATOM     26  H5  UNL     1      19.259  -0.101  32.940  0.00  0.00    +0.119 HD
ATOM     27  H6  UNL     1      20.529  -0.051  34.040  0.00  0.00    +0.119 HD
ENDBRANCH  24  25
ENDBRANCH   1  24
TORSDOF 4
ENDMDL
MODEL 7
REMARK VINA RESULT:    -6.197     10.461     14.042
REMARK INTER + INTRA:          -8.200
REMARK INTER:                  -7.515
REMARK INTRA:                  -0.685
REMARK UNBOUND:                -0.735
REMARK  Name = /home/qwerty/github/datacon2025hack/step_04_hit_selection/docking/ligands/lig_203.pdb
REMARK  5 active torsions:
REMARK  status: ('A' for Active; 'I' for Inactive)
REMARK    1  A    between atoms: C1_1  and  C2_2
REMARK    2  A    between atoms: C2_2  and  N1_3
REMARK    3  A    between atoms: C2_2  and  C3_4
REMARK    4  A    between atoms: N2_11  and  C10_12
REMARK    5  A    between atoms: C13_15  and  N3_16
REMARK                            x       y       z     vdW  Elec       q    Type
REMARK                         _______ _______ _______ _____ _____    ______ ____
ROOT
ATOM      1  C3  UNL     1       8.376   8.830  22.439  0.00  0.00    -0.030 A 
ATOM      2  C4  UNL     1       9.666   8.299  22.703  0.00  0.00    +0.007 A 
ATOM      3  C5  UNL     1      10.008   6.996  22.301  0.00  0.00    +0.027 A 
ATOM      4  C6  UNL     1       9.047   6.243  21.620  0.00  0.00    +0.054 A 
ATOM      5  C7  UNL     1       7.793   6.744  21.381  0.00  0.00    +0.000 A 
ATOM      6  C8  UNL     1       7.061   5.758  20.756  0.00  0.00    +0.028 A 
ATOM      7  C9  UNL     1       7.923   4.674  20.645  0.00  0.00    +0.092 A 
ATOM      8  N2  UNL     1       9.139   4.975  21.165  0.00  0.00    -0.316 N 
ATOM      9  C20 UNL     1       7.421   8.028  21.767  0.00  0.00    +0.015 A 
ENDROOT
BRANCH   8  10
ATOM     10  C10 UNL     1      10.275   4.095  21.199  0.00  0.00    +0.047 A 
ATOM     11  C11 UNL     1      10.260   2.957  22.018  0.00  0.00    +0.028 A 
ATOM     12  C12 UNL     1      11.355   2.089  22.045  0.00  0.00    +0.025 A 
ATOM     13  C13 UNL     1      12.481   2.336  21.241  0.00  0.00    +0.030 A 
ATOM     14  C18 UNL     1      12.485   3.469  20.407  0.00  0.00    +0.025 A 
ATOM     15  C19 UNL     1      11.390   4.337  20.384  0.00  0.00    +0.028 A 
BRANCH  13  16
ATOM     16  N3  UNL     1      13.613   1.440  21.271  0.00  0.00    -0.327 N 
ATOM     17  C14 UNL     1      13.636   0.316  22.220  0.00  0.00    +0.120 C 
ATOM     18  C15 UNL     1      15.074  -0.032  22.671  0.00  0.00    +0.100 C 
ATOM     19  N4  UNL     1      16.121   0.405  21.729  0.00  0.00    -0.313 NA
ATOM     20  C16 UNL     1      15.653   0.404  20.343  0.00  0.00    +0.100 C 
ATOM     21  C17 UNL     1      14.598   1.497  20.182  0.00  0.00    +0.120 C 
ATOM     22  H17 UNL     1      16.928  -0.260  21.802  0.00  0.00    +0.122 HD
ENDBRANCH  13  16
ENDBRANCH   8  10
BRANCH   1  24
ATOM     23  C1  UNL     1       7.877  11.174  21.673  0.00  0.00    +0.029 C 
ATOM     24  C2  UNL     1       8.032  10.237  22.880  0.00  0.00    +0.078 C 
BRANCH  24  25
ATOM     25  N1  UNL     1       6.822  10.229  23.706  0.00  0.00    -0.324 NA
ATOM     26  H5  UNL     1       6.581   9.247  23.975  0.00  0.00    +0.119 HD
ATOM     27  H6  UNL     1       6.026  10.591  23.133  0.00  0.00    +0.119 HD
ENDBRANCH  24  25
ENDBRANCH   1  24
TORSDOF 4
ENDMDL
MODEL 8
REMARK VINA RESULT:    -5.887      6.562      9.706
REMARK INTER + INTRA:          -7.826
REMARK INTER:                  -7.102
REMARK INTRA:                  -0.725
REMARK UNBOUND:                -0.735
REMARK  Name = /home/qwerty/github/datacon2025hack/step_04_hit_selection/docking/ligands/lig_203.pdb
REMARK  5 active torsions:
REMARK  status: ('A' for Active; 'I' for Inactive)
REMARK    1  A    between atoms: C1_1  and  C2_2
REMARK    2  A    between atoms: C2_2  and  N1_3
REMARK    3  A    between atoms: C2_2  and  C3_4
REMARK    4  A    between atoms: N2_11  and  C10_12
REMARK    5  A    between atoms: C13_15  and  N3_16
REMARK                            x       y       z     vdW  Elec       q    Type
REMARK                         _______ _______ _______ _____ _____    ______ ____
ROOT
ATOM      1  C3  UNL     1      12.935  11.296  36.682  0.00  0.00    -0.030 A 
ATOM      2  C4  UNL     1      13.636  10.073  36.514  0.00  0.00    +0.007 A 
ATOM      3  C5  UNL     1      15.042  10.044  36.482  0.00  0.00    +0.027 A 
ATOM      4  C6  UNL     1      15.729  11.251  36.636  0.00  0.00    +0.054 A 
ATOM      5  C7  UNL     1      15.057  12.437  36.778  0.00  0.00    +0.000 A 
ATOM      6  C8  UNL     1      15.994  13.445  36.844  0.00  0.00    +0.028 A 
ATOM      7  C9  UNL     1      17.225  12.810  36.732  0.00  0.00    +0.092 A 
ATOM      8  N2  UNL     1      17.062  11.469  36.614  0.00  0.00    -0.316 N 
ATOM      9  C20 UNL     1      13.666  12.502  36.812  0.00  0.00    +0.015 A 
ENDROOT
BRANCH   8  10
ATOM     10  C10 UNL     1      18.122  10.504  36.498  0.00  0.00    +0.047 A 
ATOM     11  C11 UNL     1      18.463   9.697  37.593  0.00  0.00    +0.028 A 
ATOM     12  C12 UNL     1      19.481   8.746  37.482  0.00  0.00    +0.025 A 
ATOM     13  C13 UNL     1      20.169   8.576  36.268  0.00  0.00    +0.030 A 
ATOM     14  C18 UNL     1      19.812   9.375  35.167  0.00  0.00    +0.025 A 
ATOM     15  C19 UNL     1      18.795  10.326  35.281  0.00  0.00    +0.028 A 
BRANCH  13  16
ATOM     16  N3  UNL     1      21.223   7.596  36.155  0.00  0.00    -0.327 N 
ATOM     17  C14 UNL     1      21.834   7.030  37.368  0.00  0.00    +0.120 C 
ATOM     18  C15 UNL     1      23.319   6.660  37.150  0.00  0.00    +0.100 C 
ATOM     19  N4  UNL     1      23.680   6.430  35.739  0.00  0.00    -0.313 NA
ATOM     20  C16 UNL     1      22.560   5.898  34.962  0.00  0.00    +0.100 C 
ATOM     21  C17 UNL     1      21.487   6.977  34.848  0.00  0.00    +0.120 C 
ATOM     22  H17 UNL     1      24.460   5.731  35.708  0.00  0.00    +0.122 HD
ENDBRANCH  13  16
ENDBRANCH   8  10
BRANCH   1  24
ATOM     23  C1  UNL     1      10.849  10.008  36.116  0.00  0.00    +0.029 C 
ATOM     24  C2  UNL     1      11.422  11.302  36.715  0.00  0.00    +0.078 C 
BRANCH  24  25
ATOM     25  N1  UNL     1      10.944  11.510  38.084  0.00  0.00    -0.324 NA
ATOM     26  H5  UNL     1      10.483  12.446  38.162  0.00  0.00    +0.119 HD
ATOM     27  H6  UNL     1      11.770  11.524  38.726  0.00  0.00    +0.119 HD
ENDBRANCH  24  25
ENDBRANCH   1  24
TORSDOF 4
ENDMDL
MODEL 9
REMARK VINA RESULT:    -5.787     10.758     14.505
REMARK INTER + INTRA:          -7.706
REMARK INTER:                  -6.976
REMARK INTRA:                  -0.729
REMARK UNBOUND:                -0.735
REMARK  Name = /home/qwerty/github/datacon2025hack/step_04_hit_selection/docking/ligands/lig_203.pdb
REMARK  5 active torsions:
REMARK  status: ('A' for Active; 'I' for Inactive)
REMARK    1  A    between atoms: C1_1  and  C2_2
REMARK    2  A    between atoms: C2_2  and  N1_3
REMARK    3  A    between atoms: C2_2  and  C3_4
REMARK    4  A    between atoms: N2_11  and  C10_12
REMARK    5  A    between atoms: C13_15  and  N3_16
REMARK                            x       y       z     vdW  Elec       q    Type
REMARK                         _______ _______ _______ _____ _____    ______ ____
ROOT
ATOM      1  C3  UNL     1      19.278   8.832  36.377  0.00  0.00    -0.030 A 
ATOM      2  C4  UNL     1      18.789   8.071  35.283  0.00  0.00    +0.007 A 
ATOM      3  C5  UNL     1      19.606   7.128  34.635  0.00  0.00    +0.027 A 
ATOM      4  C6  UNL     1      20.909   6.951  35.108  0.00  0.00    +0.054 A 
ATOM      5  C7  UNL     1      21.393   7.698  36.151  0.00  0.00    +0.000 A 
ATOM      6  C8  UNL     1      22.710   7.345  36.344  0.00  0.00    +0.028 A 
ATOM      7  C9  UNL     1      22.976   6.377  35.383  0.00  0.00    +0.092 A 
ATOM      8  N2  UNL     1      21.872   6.131  34.635  0.00  0.00    -0.316 N 
ATOM      9  C20 UNL     1      20.611   8.641  36.813  0.00  0.00    +0.015 A 
ENDROOT
BRANCH   8  10
ATOM     10  C10 UNL     1      21.783   5.175  33.564  0.00  0.00    +0.047 A 
ATOM     11  C11 UNL     1      21.875   5.600  32.231  0.00  0.00    +0.028 A 
ATOM     12  C12 UNL     1      21.805   4.674  31.186  0.00  0.00    +0.025 A 
ATOM     13  C13 UNL     1      21.655   3.303  31.457  0.00  0.00    +0.030 A 
ATOM     14  C18 UNL     1      21.581   2.879  32.796  0.00  0.00    +0.025 A 
ATOM     15  C19 UNL     1      21.649   3.806  33.839  0.00  0.00    +0.028 A 
BRANCH  13  16
ATOM     16  N3  UNL     1      21.580   2.348  30.377  0.00  0.00    -0.327 N 
ATOM     17  C14 UNL     1      21.136   0.971  30.642  0.00  0.00    +0.120 C 
ATOM     18  C15 UNL     1      21.802  -0.047  29.689  0.00  0.00    +0.100 C 
ATOM     19  N4  UNL     1      22.287   0.540  28.426  0.00  0.00    -0.313 NA
ATOM     20  C16 UNL     1      21.477   1.682  28.002  0.00  0.00    +0.100 C 
ATOM     21  C17 UNL     1      21.686   2.826  28.991  0.00  0.00    +0.120 C 
ATOM     22  H17 UNL     1      22.234  -0.193  27.680  0.00  0.00    +0.122 HD
ENDBRANCH  13  16
ENDBRANCH   8  10
BRANCH   1  24
ATOM     23  C1  UNL     1      17.275   9.140  37.868  0.00  0.00    +0.029 C 
ATOM     24  C2  UNL     1      18.377   9.840  37.059  0.00  0.00    +0.078 C 
BRANCH  24  25
ATOM     25  N1  UNL     1      19.168  10.738  37.905  0.00  0.00    -0.324 NA
ATOM     26  H5  UNL     1      18.535  11.400  38.410  0.00  0.00    +0.119 HD
ATOM     27  H6  UNL     1      19.785  11.317  37.289  0.00  0.00    +0.119 HD
ENDBRANCH  24  25
ENDBRANCH   1  24
TORSDOF 4
ENDMDL
