REMARK  Name = /home/qwerty/github/datacon2025hack/step_04_hit_selection/docking/ligands/lig_154.pdb
REMARK  6 active torsions:
REMARK  status: ('A' for Active; 'I' for Inactive)
REMARK    1  A    between atoms: C1_1  and  C2_2
REMARK    2  A    between atoms: C4_4  and  C5_5
REMARK    3  A    between atoms: C8_10  and  N2_11
REMARK    4  A    between atoms: C9_12  and  C10_14
REMARK    5  A    between atoms: C10_14  and  C11_15
REMARK    6  A    between atoms: C16_20  and  C17_21
REMARK                            x       y       z     vdW  Elec       q    Type
REMARK                         _______ _______ _______ _____ _____    ______ ____
ROOT
ATOM      1  C5  UNL     1       3.050  -0.994   1.213  0.00  0.00    +0.285 C 
ATOM      2  O1  UNL     1       2.841  -1.927   2.035  0.00  0.00    -0.267 OA
ATOM      3  N1  UNL     1       1.965  -0.508   0.399  0.00  0.00    -0.290 N 
ATOM      4  C6  UNL     1       1.782   0.903   0.090  0.00  0.00    +0.110 C 
ATOM      5  C7  UNL     1       0.290   1.081  -0.154  0.00  0.00    +0.043 C 
ATOM      6  C8  UNL     1      -0.219  -0.310  -0.529  0.00  0.00    +0.095 C 
ATOM      7  C16 UNL     1       0.748  -1.280   0.171  0.00  0.00    +0.094 C 
ATOM      8  C17 UNL     1       1.036  -2.513  -0.691  0.00  0.00    +0.030 C 
ENDROOT
BRANCH   1  12
ATOM      9  C1  UNL     1       7.277   1.307  -0.242  0.00  0.00    +0.069 C 
ATOM     10  C2  UNL     1       6.247   0.527   0.502  0.00  0.00    +0.081 A 
ATOM     11  C3  UNL     1       4.962   0.268   0.072  0.00  0.00    +0.080 A 
ATOM     12  C4  UNL     1       4.406  -0.429   1.127  0.00  0.00    +0.222 A 
ATOM     13  O3  UNL     1       5.308  -0.548   2.075  0.00  0.00    -0.350 OA
ATOM     14  N3  UNL     1       6.427   0.025   1.738  0.00  0.00    -0.083 NA
ENDBRANCH   1  12
BRANCH   6  15
ATOM     15  N2  UNL     1      -1.611  -0.506  -0.105  0.00  0.00    -0.310 N 
ATOM     16  C9  UNL     1      -2.702   0.188  -0.735  0.00  0.00    +0.220 C 
ATOM     17  O2  UNL     1      -2.462   0.970  -1.697  0.00  0.00    -0.275 OA
ATOM     18  H10 UNL     1      -1.826  -1.193   0.652  0.00  0.00    +0.149 HD
BRANCH  16  19
ATOM     19  C10 UNL     1      -4.134  -0.040  -0.255  0.00  0.00    +0.051 C 
ATOM     20  C11 UNL     1      -4.520  -1.512  -0.503  0.00  0.00    +0.021 C 
ATOM     21  C12 UNL     1      -5.157   0.907  -0.950  0.00  0.00    +0.043 C 
ATOM     22  C13 UNL     1      -5.444   1.949   0.068  0.00  0.00    -0.030 C 
ATOM     23  C14 UNL     1      -4.963   1.632   1.256  0.00  0.00    -0.030 C 
ATOM     24  C15 UNL     1      -4.250   0.327   1.248  0.00  0.00    +0.043 C 
ENDBRANCH  16  19
ENDBRANCH   6  15
TORSDOF 3
