REMARK  Name = /home/qwerty/github/datacon2025hack/step_04_hit_selection/docking/ligands/lig_480.pdb
REMARK  5 active torsions:
REMARK  status: ('A' for Active; 'I' for Inactive)
REMARK    1  A    between atoms: C1_2  and  C12_18
REMARK    2  A    between atoms: N1_3  and  C2_4
REMARK    3  A    between atoms: C2_4  and  C3_5
REMARK    4  A    between atoms: C7_9  and  C8_10
REMARK    5  A    between atoms: C14_20  and  C15_21
REMARK                            x       y       z     vdW  Elec       q    Type
REMARK                         _______ _______ _______ _____ _____    ______ ____
ROOT
ATOM      1  O1  UNL     1       1.136   1.015  -2.280  0.00  0.00    -0.267 OA
ATOM      2  C1  UNL     1       0.927   0.325  -1.247  0.00  0.00    +0.283 C 
ATOM      3  N1  UNL     1      -0.397  -0.135  -0.904  0.00  0.00    -0.299 N 
ATOM      4  H1  UNL     1      -0.476  -0.706  -0.032  0.00  0.00    +0.150 HD
ENDROOT
BRANCH   2   5
ATOM      5  C12 UNL     1       2.066  -0.015  -0.380  0.00  0.00    +0.222 A 
ATOM      6  C13 UNL     1       3.382   0.349  -0.575  0.00  0.00    +0.087 A 
ATOM      7  C14 UNL     1       4.036  -0.213   0.505  0.00  0.00    +0.132 A 
ATOM      8  N7  UNL     1       3.147  -0.865   1.281  0.00  0.00    -0.076 NA
ATOM      9  O2  UNL     1       1.980  -0.724   0.721  0.00  0.00    -0.349 OA
BRANCH   7  10
ATOM     10  C15 UNL     1       5.480  -0.125   0.784  0.00  0.00    +0.092 A 
ATOM     11  C16 UNL     1       6.035  -0.739   1.919  0.00  0.00    +0.030 A 
ATOM     12  C17 UNL     1       7.408  -0.635   2.152  0.00  0.00    +0.004 A 
ATOM     13  C18 UNL     1       8.214   0.074   1.260  0.00  0.00    +0.020 A 
ATOM     14  C19 UNL     1       7.630   0.672   0.142  0.00  0.00    +0.111 A 
ATOM     15  N6  UNL     1       6.292   0.561  -0.069  0.00  0.00    -0.253 NA
ENDBRANCH   7  10
ENDBRANCH   2   5
BRANCH   3  16
ATOM     16  C2  UNL     1      -1.666   0.096  -1.622  0.00  0.00    +0.060 C 
ATOM     17  C10 UNL     1      -1.847   1.434  -2.330  0.00  0.00    +0.033 C 
ATOM     18  C11 UNL     1      -1.619   0.158  -3.144  0.00  0.00    +0.033 C 
BRANCH  16  19
ATOM     19  C3  UNL     1      -2.901  -0.512  -1.009  0.00  0.00    -0.023 A 
ATOM     20  C4  UNL     1      -3.281  -1.820  -1.340  0.00  0.00    +0.006 A 
ATOM     21  C5  UNL     1      -4.402  -2.398  -0.742  0.00  0.00    +0.001 A 
ATOM     22  C6  UNL     1      -5.144  -1.682   0.201  0.00  0.00    +0.012 A 
ATOM     23  C7  UNL     1      -4.764  -0.378   0.561  0.00  0.00    +0.023 A 
ATOM     24  C9  UNL     1      -3.634   0.199  -0.045  0.00  0.00    +0.017 A 
BRANCH  23  25
ATOM     25  C8  UNL     1      -5.540   0.376   1.567  0.00  0.00    +0.204 A 
ATOM     26  N2  UNL     1      -5.250   1.630   1.974  0.00  0.00    -0.108 NA
ATOM     27  N3  UNL     1      -6.179   1.923   2.868  0.00  0.00    -0.049 NA
ATOM     28  N4  UNL     1      -6.996   0.892   2.997  0.00  0.00    -0.176 N 
ATOM     29  N5  UNL     1      -6.632  -0.097   2.200  0.00  0.00    -0.133 NA
ATOM     30  H5  UNL     1      -7.817   0.864   3.640  0.00  0.00    +0.214 HD
ENDBRANCH  23  25
ENDBRANCH  16  19
ENDBRANCH   3  16
TORSDOF 5
