MODEL 1
REMARK VINA RESULT:    -6.763      0.000      0.000
REMARK INTER + INTRA:          -9.013
REMARK INTER:                  -8.344
REMARK INTRA:                  -0.668
REMARK UNBOUND:                -0.668
REMARK  Name = /home/qwerty/github/datacon2025hack/step_04_hit_selection/docking/ligands/lig_655.pdb
REMARK  7 active torsions:
REMARK  status: ('A' for Active; 'I' for Inactive)
REMARK    1  A    between atoms: C1_1  and  C2_2
REMARK    2  A    between atoms: C2_2  and  C3_3
REMARK    3  A    between atoms: C2_2  and  C4_4
REMARK    4  A    between atoms: C2_2  and  O1_5
REMARK    5  A    between atoms: O1_5  and  C5_6
REMARK    6  A    between atoms: N1_8  and  C6_9
REMARK    7  A    between atoms: N2_18  and  C14_19
REMARK                            x       y       z     vdW  Elec       q    Type
REMARK                         _______ _______ _______ _____ _____    ______ ____
ROOT
ATOM      1  C6  UNL     1      15.919  12.773  35.125  0.00  0.00    +0.040 A 
ATOM      2  C7  UNL     1      17.072  13.574  35.119  0.00  0.00    +0.024 A 
ATOM      3  C8  UNL     1      18.319  13.015  35.409  0.00  0.00    +0.010 A 
ATOM      4  C9  UNL     1      18.442  11.657  35.747  0.00  0.00    +0.012 A 
ATOM      5  C10 UNL     1      17.272  10.861  35.791  0.00  0.00    +0.127 A 
ATOM      6  C11 UNL     1      16.030  11.422  35.474  0.00  0.00    +0.069 A 
ATOM      7  O3  UNL     1      17.316   9.513  36.151  0.00  0.00    -0.490 OA
ATOM      8  C12 UNL     1      17.708   9.087  37.454  0.00  0.00    +0.248 C 
ATOM      9  C13 UNL     1      19.073   9.653  37.846  0.00  0.00    +0.146 C 
ATOM     10  N2  UNL     1      19.914   9.829  36.656  0.00  0.00    -0.322 N 
ATOM     11  C21 UNL     1      19.843  11.092  35.902  0.00  0.00    +0.144 C 
ENDROOT
BRANCH  10  12
ATOM     12  C14 UNL     1      20.962   8.876  36.365  0.00  0.00    +0.034 A 
ATOM     13  C15 UNL     1      21.257   7.824  37.277  0.00  0.00    +0.027 A 
ATOM     14  C16 UNL     1      22.275   6.894  36.998  0.00  0.00    +0.051 A 
ATOM     15  C17 UNL     1      22.977   7.037  35.808  0.00  0.00    +0.166 A 
ATOM     16  C18 UNL     1      22.706   8.033  34.931  0.00  0.00    +0.168 A 
ATOM     17  C19 UNL     1      21.708   8.974  35.166  0.00  0.00    +0.072 A 
ATOM     18  O4  UNL     1      23.554   7.933  33.844  0.00  0.00    -0.453 OA
ATOM     19  C20 UNL     1      24.410   6.801  34.053  0.00  0.00    +0.466 C 
ATOM     20  O5  UNL     1      24.008   6.258  35.319  0.00  0.00    -0.453 OA
ENDBRANCH  10  12
BRANCH   1  23
ATOM     21  C5  UNL     1      13.776  13.947  35.816  0.00  0.00    +0.405 C 
ATOM     22  O2  UNL     1      14.226  14.235  36.958  0.00  0.00    -0.226 OA
ATOM     23  N1  UNL     1      14.622  13.324  34.840  0.00  0.00    -0.251 N 
ATOM     24  H10 UNL     1      14.302  13.349  33.846  0.00  0.00    +0.158 HD
BRANCH  21  25
ATOM     25  O1  UNL     1      12.457  14.267  35.460  0.00  0.00    -0.444 OA
BRANCH  25  27
ATOM     26  C1  UNL     1      11.431  12.353  36.591  0.00  0.00    +0.055 C 
ATOM     27  C2  UNL     1      11.340  13.365  35.432  0.00  0.00    +0.107 C 
ATOM     28  C3  UNL     1      10.070  14.210  35.609  0.00  0.00    +0.055 C 
ATOM     29  C4  UNL     1      11.267  12.634  34.078  0.00  0.00    +0.055 C 
ENDBRANCH  25  27
ENDBRANCH  21  25
ENDBRANCH   1  23
TORSDOF 4
ENDMDL
MODEL 2
REMARK VINA RESULT:    -6.642     15.701     19.127
REMARK INTER + INTRA:          -8.863
REMARK INTER:                  -8.514
REMARK INTRA:                  -0.349
REMARK UNBOUND:                -0.668
REMARK  Name = /home/qwerty/github/datacon2025hack/step_04_hit_selection/docking/ligands/lig_655.pdb
REMARK  7 active torsions:
REMARK  status: ('A' for Active; 'I' for Inactive)
REMARK    1  A    between atoms: C1_1  and  C2_2
REMARK    2  A    between atoms: C2_2  and  C3_3
REMARK    3  A    between atoms: C2_2  and  C4_4
REMARK    4  A    between atoms: C2_2  and  O1_5
REMARK    5  A    between atoms: O1_5  and  C5_6
REMARK    6  A    between atoms: N1_8  and  C6_9
REMARK    7  A    between atoms: N2_18  and  C14_19
REMARK                            x       y       z     vdW  Elec       q    Type
REMARK                         _______ _______ _______ _____ _____    ______ ____
ROOT
ATOM      1  C6  UNL     1      13.427   0.938  22.031  0.00  0.00    +0.040 A 
ATOM      2  C7  UNL     1      13.810   1.340  20.742  0.00  0.00    +0.024 A 
ATOM      3  C8  UNL     1      13.255   2.486  20.167  0.00  0.00    +0.010 A 
ATOM      4  C9  UNL     1      12.279   3.234  20.845  0.00  0.00    +0.012 A 
ATOM      5  C10 UNL     1      11.865   2.804  22.128  0.00  0.00    +0.127 A 
ATOM      6  C11 UNL     1      12.445   1.671  22.709  0.00  0.00    +0.069 A 
ATOM      7  O3  UNL     1      10.876   3.481  22.845  0.00  0.00    -0.490 OA
ATOM      8  C12 UNL     1       9.528   3.562  22.389  0.00  0.00    +0.248 C 
ATOM      9  C13 UNL     1       9.446   4.118  20.966  0.00  0.00    +0.146 C 
ATOM     10  N2  UNL     1      10.547   5.056  20.720  0.00  0.00    -0.322 N 
ATOM     11  C21 UNL     1      11.835   4.545  20.219  0.00  0.00    +0.144 C 
ENDROOT
BRANCH  10  12
ATOM     12  C14 UNL     1      10.300   6.481  20.744  0.00  0.00    +0.034 A 
ATOM     13  C15 UNL     1      11.267   7.391  20.234  0.00  0.00    +0.027 A 
ATOM     14  C16 UNL     1      11.032   8.778  20.254  0.00  0.00    +0.051 A 
ATOM     15  C17 UNL     1       9.828   9.225  20.784  0.00  0.00    +0.166 A 
ATOM     16  C18 UNL     1       8.898   8.369  21.272  0.00  0.00    +0.168 A 
ATOM     17  C19 UNL     1       9.089   6.991  21.271  0.00  0.00    +0.072 A 
ATOM     18  O4  UNL     1       7.809   9.085  21.733  0.00  0.00    -0.453 OA
ATOM     19  C20 UNL     1       8.074  10.479  21.519  0.00  0.00    +0.466 C 
ATOM     20  O5  UNL     1       9.374  10.523  20.912  0.00  0.00    -0.453 OA
ENDBRANCH  10  12
BRANCH   1  23
ATOM     21  C5  UNL     1      15.376  -0.476  22.835  0.00  0.00    +0.405 C 
ATOM     22  O2  UNL     1      16.208   0.454  22.659  0.00  0.00    -0.226 OA
ATOM     23  N1  UNL     1      13.975  -0.242  22.644  0.00  0.00    -0.251 N 
ATOM     24  H10 UNL     1      13.314  -0.940  23.053  0.00  0.00    +0.158 HD
BRANCH  21  25
ATOM     25  O1  UNL     1      15.796  -1.745  23.264  0.00  0.00    -0.444 OA
BRANCH  25  27
ATOM     26  C1  UNL     1      16.146  -0.887  25.531  0.00  0.00    +0.055 C 
ATOM     27  C2  UNL     1      16.124  -2.123  24.610  0.00  0.00    +0.107 C 
ATOM     28  C3  UNL     1      15.026  -3.082  25.093  0.00  0.00    +0.055 C 
ATOM     29  C4  UNL     1      17.479  -2.856  24.652  0.00  0.00    +0.055 C 
ENDBRANCH  25  27
ENDBRANCH  21  25
ENDBRANCH   1  23
TORSDOF 4
ENDMDL
MODEL 3
REMARK VINA RESULT:    -6.529     15.577     16.829
REMARK INTER + INTRA:          -8.724
REMARK INTER:                  -8.137
REMARK INTRA:                  -0.588
REMARK UNBOUND:                -0.668
REMARK  Name = /home/qwerty/github/datacon2025hack/step_04_hit_selection/docking/ligands/lig_655.pdb
REMARK  7 active torsions:
REMARK  status: ('A' for Active; 'I' for Inactive)
REMARK    1  A    between atoms: C1_1  and  C2_2
REMARK    2  A    between atoms: C2_2  and  C3_3
REMARK    3  A    between atoms: C2_2  and  C4_4
REMARK    4  A    between atoms: C2_2  and  O1_5
REMARK    5  A    between atoms: O1_5  and  C5_6
REMARK    6  A    between atoms: N1_8  and  C6_9
REMARK    7  A    between atoms: N2_18  and  C14_19
REMARK                            x       y       z     vdW  Elec       q    Type
REMARK                         _______ _______ _______ _____ _____    ______ ____
ROOT
ATOM      1  C6  UNL     1      10.183   5.227  22.318  0.00  0.00    +0.040 A 
ATOM      2  C7  UNL     1       9.478   4.021  22.181  0.00  0.00    +0.024 A 
ATOM      3  C8  UNL     1      10.165   2.819  21.998  0.00  0.00    +0.010 A 
ATOM      4  C9  UNL     1      11.567   2.795  21.909  0.00  0.00    +0.012 A 
ATOM      5  C10 UNL     1      12.274   4.017  22.008  0.00  0.00    +0.127 A 
ATOM      6  C11 UNL     1      11.580   5.213  22.218  0.00  0.00    +0.069 A 
ATOM      7  O3  UNL     1      13.665   4.070  21.896  0.00  0.00    -0.490 OA
ATOM      8  C12 UNL     1      14.344   3.724  20.692  0.00  0.00    +0.248 C 
ATOM      9  C13 UNL     1      13.955   2.327  20.206  0.00  0.00    +0.146 C 
ATOM     10  N2  UNL     1      13.627   1.463  21.345  0.00  0.00    -0.322 N 
ATOM     11  C21 UNL     1      12.247   1.437  21.861  0.00  0.00    +0.144 C 
ENDROOT
BRANCH  10  12
ATOM     12  C14 UNL     1      14.583   0.480  21.804  0.00  0.00    +0.034 A 
ATOM     13  C15 UNL     1      15.778   0.236  21.072  0.00  0.00    +0.027 A 
ATOM     14  C16 UNL     1      16.713  -0.718  21.514  0.00  0.00    +0.051 A 
ATOM     15  C17 UNL     1      16.430  -1.409  22.685  0.00  0.00    +0.166 A 
ATOM     16  C18 UNL     1      15.296  -1.186  23.393  0.00  0.00    +0.168 A 
ATOM     17  C19 UNL     1      14.346  -0.252  22.993  0.00  0.00    +0.072 A 
ATOM     18  O4  UNL     1      15.278  -2.010  24.504  0.00  0.00    -0.453 OA
ATOM     19  C20 UNL     1      16.476  -2.798  24.490  0.00  0.00    +0.466 C 
ATOM     20  O5  UNL     1      17.182  -2.384  23.312  0.00  0.00    -0.453 OA
ENDBRANCH  10  12
BRANCH   1  23
ATOM     21  C5  UNL     1       8.935   7.252  21.431  0.00  0.00    +0.405 C 
ATOM     22  O2  UNL     1       8.823   6.758  20.276  0.00  0.00    -0.226 OA
ATOM     23  N1  UNL     1       9.501   6.480  22.498  0.00  0.00    -0.251 N 
ATOM     24  H10 UNL     1       9.331   6.815  23.472  0.00  0.00    +0.158 HD
BRANCH  21  25
ATOM     25  O1  UNL     1       8.470   8.547  21.708  0.00  0.00    -0.444 OA
BRANCH  25  27
ATOM     26  C1  UNL     1      10.159   9.719  20.377  0.00  0.00    +0.055 C 
ATOM     27  C2  UNL     1       9.227   9.763  21.604  0.00  0.00    +0.107 C 
ATOM     28  C3  UNL     1       8.220  10.909  21.421  0.00  0.00    +0.055 C 
ATOM     29  C4  UNL     1      10.035  10.011  22.891  0.00  0.00    +0.055 C 
ENDBRANCH  25  27
ENDBRANCH  21  25
ENDBRANCH   1  23
TORSDOF 4
ENDMDL
MODEL 4
REMARK VINA RESULT:    -6.492     12.394     15.171
REMARK INTER + INTRA:          -8.679
REMARK INTER:                  -8.126
REMARK INTRA:                  -0.552
REMARK UNBOUND:                -0.668
REMARK  Name = /home/qwerty/github/datacon2025hack/step_04_hit_selection/docking/ligands/lig_655.pdb
REMARK  7 active torsions:
REMARK  status: ('A' for Active; 'I' for Inactive)
REMARK    1  A    between atoms: C1_1  and  C2_2
REMARK    2  A    between atoms: C2_2  and  C3_3
REMARK    3  A    between atoms: C2_2  and  C4_4
REMARK    4  A    between atoms: C2_2  and  O1_5
REMARK    5  A    between atoms: O1_5  and  C5_6
REMARK    6  A    between atoms: N1_8  and  C6_9
REMARK    7  A    between atoms: N2_18  and  C14_19
REMARK                            x       y       z     vdW  Elec       q    Type
REMARK                         _______ _______ _______ _____ _____    ______ ____
ROOT
ATOM      1  C6  UNL     1       7.832   9.184  26.590  0.00  0.00    +0.040 A 
ATOM      2  C7  UNL     1       7.656   7.878  27.074  0.00  0.00    +0.024 A 
ATOM      3  C8  UNL     1       7.997   6.780  26.281  0.00  0.00    +0.010 A 
ATOM      4  C9  UNL     1       8.484   6.956  24.975  0.00  0.00    +0.012 A 
ATOM      5  C10 UNL     1       8.622   8.272  24.475  0.00  0.00    +0.127 A 
ATOM      6  C11 UNL     1       8.304   9.367  25.285  0.00  0.00    +0.069 A 
ATOM      7  O3  UNL     1       9.070   8.519  23.175  0.00  0.00    -0.490 OA
ATOM      8  C12 UNL     1       8.329   8.113  22.027  0.00  0.00    +0.248 C 
ATOM      9  C13 UNL     1       8.003   6.619  22.064  0.00  0.00    +0.146 C 
ATOM     10  N2  UNL     1       9.058   5.884  22.771  0.00  0.00    -0.322 N 
ATOM     11  C21 UNL     1       8.972   5.723  24.233  0.00  0.00    +0.144 C 
ENDROOT
BRANCH  10  12
ATOM     12  C14 UNL     1      10.040   5.132  22.022  0.00  0.00    +0.034 A 
ATOM     13  C15 UNL     1       9.907   3.724  21.868  0.00  0.00    +0.027 A 
ATOM     14  C16 UNL     1      10.859   2.986  21.139  0.00  0.00    +0.051 A 
ATOM     15  C17 UNL     1      11.925   3.677  20.578  0.00  0.00    +0.166 A 
ATOM     16  C18 UNL     1      12.063   5.018  20.717  0.00  0.00    +0.168 A 
ATOM     17  C19 UNL     1      11.146   5.786  21.428  0.00  0.00    +0.072 A 
ATOM     18  O4  UNL     1      13.207   5.434  20.062  0.00  0.00    -0.453 OA
ATOM     19  C20 UNL     1      13.825   4.280  19.475  0.00  0.00    +0.466 C 
ATOM     20  O5  UNL     1      12.975   3.180  19.830  0.00  0.00    -0.453 OA
ENDBRANCH  10  12
BRANCH   1  23
ATOM     21  C5  UNL     1       8.324  10.909  28.387  0.00  0.00    +0.405 C 
ATOM     22  O2  UNL     1       9.530  10.555  28.488  0.00  0.00    -0.226 OA
ATOM     23  N1  UNL     1       7.481  10.332  27.381  0.00  0.00    -0.251 N 
ATOM     24  H10 UNL     1       6.592  10.834  27.159  0.00  0.00    +0.158 HD
BRANCH  21  25
ATOM     25  O1  UNL     1       7.793  11.902  29.224  0.00  0.00    -0.444 OA
BRANCH  25  27
ATOM     26  C1  UNL     1       7.043  14.111  29.968  0.00  0.00    +0.055 C 
ATOM     27  C2  UNL     1       8.089  13.306  29.171  0.00  0.00    +0.107 C 
ATOM     28  C3  UNL     1       9.467  13.505  29.820  0.00  0.00    +0.055 C 
ATOM     29  C4  UNL     1       8.152  13.794  27.711  0.00  0.00    +0.055 C 
ENDBRANCH  25  27
ENDBRANCH  21  25
ENDBRANCH   1  23
TORSDOF 4
ENDMDL
MODEL 5
REMARK VINA RESULT:    -6.398      5.173     10.765
REMARK INTER + INTRA:          -8.563
REMARK INTER:                  -7.985
REMARK INTRA:                  -0.578
REMARK UNBOUND:                -0.668
REMARK  Name = /home/qwerty/github/datacon2025hack/step_04_hit_selection/docking/ligands/lig_655.pdb
REMARK  7 active torsions:
REMARK  status: ('A' for Active; 'I' for Inactive)
REMARK    1  A    between atoms: C1_1  and  C2_2
REMARK    2  A    between atoms: C2_2  and  C3_3
REMARK    3  A    between atoms: C2_2  and  C4_4
REMARK    4  A    between atoms: C2_2  and  O1_5
REMARK    5  A    between atoms: O1_5  and  C5_6
REMARK    6  A    between atoms: N1_8  and  C6_9
REMARK    7  A    between atoms: N2_18  and  C14_19
REMARK                            x       y       z     vdW  Elec       q    Type
REMARK                         _______ _______ _______ _____ _____    ______ ____
ROOT
ATOM      1  C6  UNL     1      21.008   2.810  33.012  0.00  0.00    +0.040 A 
ATOM      2  C7  UNL     1      19.845   2.626  33.775  0.00  0.00    +0.024 A 
ATOM      3  C8  UNL     1      19.386   3.642  34.617  0.00  0.00    +0.010 A 
ATOM      4  C9  UNL     1      20.094   4.847  34.747  0.00  0.00    +0.012 A 
ATOM      5  C10 UNL     1      21.289   5.015  34.007  0.00  0.00    +0.127 A 
ATOM      6  C11 UNL     1      21.728   4.003  33.146  0.00  0.00    +0.069 A 
ATOM      7  O3  UNL     1      22.061   6.174  34.113  0.00  0.00    -0.490 OA
ATOM      8  C12 UNL     1      22.708   6.547  35.326  0.00  0.00    +0.248 C 
ATOM      9  C13 UNL     1      21.724   6.611  36.495  0.00  0.00    +0.146 C 
ATOM     10  N2  UNL     1      20.391   6.999  36.020  0.00  0.00    -0.322 N 
ATOM     11  C21 UNL     1      19.455   5.957  35.563  0.00  0.00    +0.144 C 
ENDROOT
BRANCH  10  12
ATOM     12  C14 UNL     1      19.921   8.352  36.215  0.00  0.00    +0.034 A 
ATOM     13  C15 UNL     1      19.249   8.718  37.414  0.00  0.00    +0.027 A 
ATOM     14  C16 UNL     1      18.789  10.033  37.610  0.00  0.00    +0.051 A 
ATOM     15  C17 UNL     1      19.016  10.958  36.597  0.00  0.00    +0.166 A 
ATOM     16  C18 UNL     1      19.656  10.623  35.451  0.00  0.00    +0.168 A 
ATOM     17  C19 UNL     1      20.127   9.335  35.217  0.00  0.00    +0.072 A 
ATOM     18  O4  UNL     1      19.739  11.731  34.630  0.00  0.00    -0.453 OA
ATOM     19  C20 UNL     1      19.111  12.831  35.305  0.00  0.00    +0.466 C 
ATOM     20  O5  UNL     1      18.663  12.293  36.557  0.00  0.00    -0.453 OA
ENDBRANCH  10  12
BRANCH   1  23
ATOM     21  C5  UNL     1      20.972   1.481  30.849  0.00  0.00    +0.405 C 
ATOM     22  O2  UNL     1      20.148   2.265  30.305  0.00  0.00    -0.226 OA
ATOM     23  N1  UNL     1      21.509   1.778  32.145  0.00  0.00    -0.251 N 
ATOM     24  H10 UNL     1      22.369   1.262  32.435  0.00  0.00    +0.158 HD
BRANCH  21  25
ATOM     25  O1  UNL     1      21.416   0.328  30.183  0.00  0.00    -0.444 OA
BRANCH  25  27
ATOM     26  C1  UNL     1      23.523   1.173  29.266  0.00  0.00    +0.055 C 
ATOM     27  C2  UNL     1      22.283   0.287  29.039  0.00  0.00    +0.107 C 
ATOM     28  C3  UNL     1      22.739  -1.170  28.868  0.00  0.00    +0.055 C 
ATOM     29  C4  UNL     1      21.528   0.724  27.769  0.00  0.00    +0.055 C 
ENDBRANCH  25  27
ENDBRANCH  21  25
ENDBRANCH   1  23
TORSDOF 4
ENDMDL
MODEL 6
REMARK VINA RESULT:    -6.359     13.702     17.337
REMARK INTER + INTRA:          -8.514
REMARK INTER:                  -7.969
REMARK INTRA:                  -0.545
REMARK UNBOUND:                -0.668
REMARK  Name = /home/qwerty/github/datacon2025hack/step_04_hit_selection/docking/ligands/lig_655.pdb
REMARK  7 active torsions:
REMARK  status: ('A' for Active; 'I' for Inactive)
REMARK    1  A    between atoms: C1_1  and  C2_2
REMARK    2  A    between atoms: C2_2  and  C3_3
REMARK    3  A    between atoms: C2_2  and  C4_4
REMARK    4  A    between atoms: C2_2  and  O1_5
REMARK    5  A    between atoms: O1_5  and  C5_6
REMARK    6  A    between atoms: N1_8  and  C6_9
REMARK    7  A    between atoms: N2_18  and  C14_19
REMARK                            x       y       z     vdW  Elec       q    Type
REMARK                         _______ _______ _______ _____ _____    ______ ____
ROOT
ATOM      1  C6  UNL     1      20.099   1.502  25.219  0.00  0.00    +0.040 A 
ATOM      2  C7  UNL     1      20.051   2.651  24.416  0.00  0.00    +0.024 A 
ATOM      3  C8  UNL     1      18.947   2.892  23.594  0.00  0.00    +0.010 A 
ATOM      4  C9  UNL     1      17.885   1.975  23.525  0.00  0.00    +0.012 A 
ATOM      5  C10 UNL     1      17.954   0.797  24.305  0.00  0.00    +0.127 A 
ATOM      6  C11 UNL     1      19.050   0.577  25.147  0.00  0.00    +0.069 A 
ATOM      7  O3  UNL     1      16.949  -0.172  24.261  0.00  0.00    -0.490 OA
ATOM      8  C12 UNL     1      16.666  -0.918  23.081  0.00  0.00    +0.248 C 
ATOM      9  C13 UNL     1      16.396  -0.004  21.885  0.00  0.00    +0.146 C 
ATOM     10  N2  UNL     1      15.789   1.255  22.332  0.00  0.00    -0.322 N 
ATOM     11  C21 UNL     1      16.658   2.378  22.726  0.00  0.00    +0.144 C 
ENDROOT
BRANCH  10  12
ATOM     12  C14 UNL     1      14.368   1.470  22.167  0.00  0.00    +0.034 A 
ATOM     13  C15 UNL     1      13.887   2.469  21.276  0.00  0.00    +0.027 A 
ATOM     14  C16 UNL     1      12.506   2.682  21.110  0.00  0.00    +0.051 A 
ATOM     15  C17 UNL     1      11.634   1.885  21.842  0.00  0.00    +0.166 A 
ATOM     16  C18 UNL     1      12.079   0.929  22.693  0.00  0.00    +0.168 A 
ATOM     17  C19 UNL     1      13.435   0.685  22.886  0.00  0.00    +0.072 A 
ATOM     18  O4  UNL     1      10.999   0.298  23.281  0.00  0.00    -0.453 OA
ATOM     19  C20 UNL     1       9.802   0.897  22.766  0.00  0.00    +0.466 C 
ATOM     20  O5  UNL     1      10.253   1.905  21.851  0.00  0.00    -0.453 OA
ENDBRANCH  10  12
BRANCH   1  23
ATOM     21  C5  UNL     1      21.488   1.893  27.308  0.00  0.00    +0.405 C 
ATOM     22  O2  UNL     1      20.611   2.632  27.832  0.00  0.00    -0.226 OA
ATOM     23  N1  UNL     1      21.226   1.224  26.068  0.00  0.00    -0.251 N 
ATOM     24  H10 UNL     1      21.854   0.430  25.812  0.00  0.00    +0.158 HD
BRANCH  21  25
ATOM     25  O1  UNL     1      22.719   1.675  27.946  0.00  0.00    -0.444 OA
BRANCH  25  27
ATOM     26  C1  UNL     1      22.194  -0.426  29.090  0.00  0.00    +0.055 C 
ATOM     27  C2  UNL     1      22.931   0.927  29.153  0.00  0.00    +0.107 C 
ATOM     28  C3  UNL     1      24.440   0.665  29.266  0.00  0.00    +0.055 C 
ATOM     29  C4  UNL     1      22.473   1.736  30.381  0.00  0.00    +0.055 C 
ENDBRANCH  25  27
ENDBRANCH  21  25
ENDBRANCH   1  23
TORSDOF 4
ENDMDL
MODEL 7
REMARK VINA RESULT:    -6.224      3.866      6.536
REMARK INTER + INTRA:          -8.348
REMARK INTER:                  -7.717
REMARK INTRA:                  -0.631
REMARK UNBOUND:                -0.668
REMARK  Name = /home/qwerty/github/datacon2025hack/step_04_hit_selection/docking/ligands/lig_655.pdb
REMARK  7 active torsions:
REMARK  status: ('A' for Active; 'I' for Inactive)
REMARK    1  A    between atoms: C1_1  and  C2_2
REMARK    2  A    between atoms: C2_2  and  C3_3
REMARK    3  A    between atoms: C2_2  and  C4_4
REMARK    4  A    between atoms: C2_2  and  O1_5
REMARK    5  A    between atoms: O1_5  and  C5_6
REMARK    6  A    between atoms: N1_8  and  C6_9
REMARK    7  A    between atoms: N2_18  and  C14_19
REMARK                            x       y       z     vdW  Elec       q    Type
REMARK                         _______ _______ _______ _____ _____    ______ ____
ROOT
ATOM      1  C6  UNL     1      11.833  13.734  31.566  0.00  0.00    +0.040 A 
ATOM      2  C7  UNL     1      13.035  13.980  30.885  0.00  0.00    +0.024 A 
ATOM      3  C8  UNL     1      14.261  13.807  31.532  0.00  0.00    +0.010 A 
ATOM      4  C9  UNL     1      14.316  13.423  32.882  0.00  0.00    +0.012 A 
ATOM      5  C10 UNL     1      13.102  13.215  33.579  0.00  0.00    +0.127 A 
ATOM      6  C11 UNL     1      11.879  13.364  32.915  0.00  0.00    +0.069 A 
ATOM      7  O3  UNL     1      13.083  12.863  34.930  0.00  0.00    -0.490 OA
ATOM      8  C12 UNL     1      13.569  13.734  35.948  0.00  0.00    +0.248 C 
ATOM      9  C13 UNL     1      15.004  14.184  35.670  0.00  0.00    +0.146 C 
ATOM     10  N2  UNL     1      15.734  13.139  34.943  0.00  0.00    -0.322 N 
ATOM     11  C21 UNL     1      15.681  13.111  33.471  0.00  0.00    +0.144 C 
ENDROOT
BRANCH  10  12
ATOM     12  C14 UNL     1      16.676  12.296  35.644  0.00  0.00    +0.034 A 
ATOM     13  C15 UNL     1      18.021  12.719  35.837  0.00  0.00    +0.027 A 
ATOM     14  C16 UNL     1      18.942  11.903  36.520  0.00  0.00    +0.051 A 
ATOM     15  C17 UNL     1      18.494  10.678  36.997  0.00  0.00    +0.166 A 
ATOM     16  C18 UNL     1      17.216  10.263  36.821  0.00  0.00    +0.168 A 
ATOM     17  C19 UNL     1      16.273  11.038  36.153  0.00  0.00    +0.072 A 
ATOM     18  O4  UNL     1      17.054   9.015  37.394  0.00  0.00    -0.453 OA
ATOM     19  C20 UNL     1      18.310   8.624  37.965  0.00  0.00    +0.466 C 
ATOM     20  O5  UNL     1      19.202   9.713  37.689  0.00  0.00    -0.453 OA
ENDBRANCH  10  12
BRANCH   1  23
ATOM     21  C5  UNL     1       9.868  12.890  30.197  0.00  0.00    +0.405 C 
ATOM     22  O2  UNL     1      10.259  11.693  30.255  0.00  0.00    -0.226 OA
ATOM     23  N1  UNL     1      10.557  13.914  30.928  0.00  0.00    -0.251 N 
ATOM     24  H10 UNL     1      10.055  14.819  31.069  0.00  0.00    +0.158 HD
BRANCH  21  25
ATOM     25  O1  UNL     1       8.729  13.241  29.456  0.00  0.00    -0.444 OA
BRANCH  25  27
ATOM     26  C1  UNL     1       7.546  14.321  27.605  0.00  0.00    +0.055 C 
ATOM     27  C2  UNL     1       8.634  13.314  28.026  0.00  0.00    +0.107 C 
ATOM     28  C3  UNL     1       9.993  13.807  27.505  0.00  0.00    +0.055 C 
ATOM     29  C4  UNL     1       8.347  11.924  27.428  0.00  0.00    +0.055 C 
ENDBRANCH  25  27
ENDBRANCH  21  25
ENDBRANCH   1  23
TORSDOF 4
ENDMDL
MODEL 8
REMARK VINA RESULT:    -6.212      9.872     13.329
REMARK INTER + INTRA:          -8.333
REMARK INTER:                  -7.779
REMARK INTRA:                  -0.554
REMARK UNBOUND:                -0.668
REMARK  Name = /home/qwerty/github/datacon2025hack/step_04_hit_selection/docking/ligands/lig_655.pdb
REMARK  7 active torsions:
REMARK  status: ('A' for Active; 'I' for Inactive)
REMARK    1  A    between atoms: C1_1  and  C2_2
REMARK    2  A    between atoms: C2_2  and  C3_3
REMARK    3  A    between atoms: C2_2  and  C4_4
REMARK    4  A    between atoms: C2_2  and  O1_5
REMARK    5  A    between atoms: O1_5  and  C5_6
REMARK    6  A    between atoms: N1_8  and  C6_9
REMARK    7  A    between atoms: N2_18  and  C14_19
REMARK                            x       y       z     vdW  Elec       q    Type
REMARK                         _______ _______ _______ _____ _____    ______ ____
ROOT
ATOM      1  C6  UNL     1      21.582   3.386  25.697  0.00  0.00    +0.040 A 
ATOM      2  C7  UNL     1      20.372   2.718  25.452  0.00  0.00    +0.024 A 
ATOM      3  C8  UNL     1      19.715   2.049  26.487  0.00  0.00    +0.010 A 
ATOM      4  C9  UNL     1      20.266   1.997  27.778  0.00  0.00    +0.012 A 
ATOM      5  C10 UNL     1      21.506   2.637  28.013  0.00  0.00    +0.127 A 
ATOM      6  C11 UNL     1      22.145   3.329  26.977  0.00  0.00    +0.069 A 
ATOM      7  O3  UNL     1      22.127   2.598  29.263  0.00  0.00    -0.490 OA
ATOM      8  C12 UNL     1      22.596   1.383  29.841  0.00  0.00    +0.248 C 
ATOM      9  C13 UNL     1      21.492   0.326  29.906  0.00  0.00    +0.146 C 
ATOM     10  N2  UNL     1      20.182   0.966  30.073  0.00  0.00    -0.322 N 
ATOM     11  C21 UNL     1      19.423   1.380  28.881  0.00  0.00    +0.144 C 
ENDROOT
BRANCH  10  12
ATOM     12  C14 UNL     1      19.545   0.976  31.371  0.00  0.00    +0.034 A 
ATOM     13  C15 UNL     1      18.654  -0.067  31.747  0.00  0.00    +0.027 A 
ATOM     14  C16 UNL     1      18.031  -0.063  33.009  0.00  0.00    +0.051 A 
ATOM     15  C17 UNL     1      18.316   0.990  33.870  0.00  0.00    +0.166 A 
ATOM     16  C18 UNL     1      19.164   1.989  33.525  0.00  0.00    +0.168 A 
ATOM     17  C19 UNL     1      19.801   2.023  32.288  0.00  0.00    +0.072 A 
ATOM     18  O4  UNL     1      19.258   2.893  34.566  0.00  0.00    -0.453 OA
ATOM     19  C20 UNL     1      18.416   2.430  35.631  0.00  0.00    +0.466 C 
ATOM     20  O5  UNL     1      17.833   1.213  35.145  0.00  0.00    -0.453 OA
ENDBRANCH  10  12
BRANCH   1  23
ATOM     21  C5  UNL     1      21.944   5.384  24.171  0.00  0.00    +0.405 C 
ATOM     22  O2  UNL     1      21.119   6.098  24.803  0.00  0.00    -0.226 OA
ATOM     23  N1  UNL     1      22.284   4.075  24.648  0.00  0.00    -0.251 N 
ATOM     24  H10 UNL     1      23.150   3.637  24.260  0.00  0.00    +0.158 HD
BRANCH  21  25
ATOM     25  O1  UNL     1      22.577   5.867  23.016  0.00  0.00    -0.444 OA
BRANCH  25  27
ATOM     26  C1  UNL     1      23.004   6.345  20.653  0.00  0.00    +0.055 C 
ATOM     27  C2  UNL     1      21.947   6.160  21.760  0.00  0.00    +0.107 C 
ATOM     28  C3  UNL     1      21.062   4.956  21.404  0.00  0.00    +0.055 C 
ATOM     29  C4  UNL     1      21.059   7.413  21.876  0.00  0.00    +0.055 C 
ENDBRANCH  25  27
ENDBRANCH  21  25
ENDBRANCH   1  23
TORSDOF 4
ENDMDL
