REMARK  Name = /home/qwerty/github/datacon2025hack/step_04_hit_selection/docking/ligands/lig_163.pdb
REMARK  5 active torsions:
REMARK  status: ('A' for Active; 'I' for Inactive)
REMARK    1  A    between atoms: C1_1  and  C2_2
REMARK    2  A    between atoms: C2_2  and  N1_3
REMARK    3  A    between atoms: C2_2  and  C11_18
REMARK    4  A    between atoms: C6_9  and  C7_10
REMARK    5  A    between atoms: N5_21  and  C13_22
REMARK                            x       y       z     vdW  Elec       q    Type
REMARK                         _______ _______ _______ _____ _____    ______ ____
ROOT
ATOM      1  N1  UNL     1      -1.511   1.074   1.682  0.00  0.00    -0.292 N 
ATOM      2  C3  UNL     1      -0.317   0.830   0.925  0.00  0.00    +0.305 C 
ATOM      3  O1  UNL     1      -0.115  -0.308   0.421  0.00  0.00    -0.252 OA
ATOM      4  N2  UNL     1       0.621   1.897   0.719  0.00  0.00    -0.251 N 
ATOM      5  C4  UNL     1       1.922   1.744   0.133  0.00  0.00    +0.169 A 
ATOM      6  C5  UNL     1       2.630   0.567  -0.033  0.00  0.00    +0.097 A 
ATOM      7  C6  UNL     1       3.819   0.994  -0.589  0.00  0.00    +0.176 A 
ATOM      8  O2  UNL     1       3.788   2.300  -0.718  0.00  0.00    -0.352 OA
ATOM      9  N3  UNL     1       2.661   2.789  -0.288  0.00  0.00    -0.062 NA
ATOM     10  H5  UNL     1      -1.651   2.025   2.093  0.00  0.00    +0.151 HD
ATOM     11  H6  UNL     1       0.325   2.864   0.981  0.00  0.00    +0.158 HD
ENDROOT
BRANCH   7  12
ATOM     12  C7  UNL     1       4.955   0.149  -0.975  0.00  0.00    +0.059 A 
ATOM     13  C8  UNL     1       6.147   0.605  -1.529  0.00  0.00    +0.021 A 
ATOM     14  C9  UNL     1       7.057  -0.423  -1.801  0.00  0.00    +0.028 A 
ATOM     15  C10 UNL     1       6.578  -1.679  -1.459  0.00  0.00    +0.079 A 
ATOM     16 CL1  UNL     1       7.441  -3.190  -1.657  0.00  0.00    -0.076 Cl
ATOM     17  S1  UNL     1       5.031  -1.527  -0.822  0.00  0.00    -0.074 S 
ENDBRANCH   7  12
BRANCH   1  19
ATOM     18  C1  UNL     1      -3.517   0.465   2.978  0.00  0.00    +0.033 C 
ATOM     19  C2  UNL     1      -2.526   0.037   1.893  0.00  0.00    +0.105 C 
BRANCH  19  20
ATOM     20  C11 UNL     1      -3.257  -0.241   0.609  0.00  0.00    +0.010 A 
ATOM     21  C12 UNL     1      -3.788   0.682  -0.276  0.00  0.00    +0.139 A 
ATOM     22  N4  UNL     1      -4.429   0.027  -1.265  0.00  0.00    -0.180 NA
ATOM     23  N5  UNL     1      -4.308  -1.270  -1.029  0.00  0.00    -0.274 N 
ATOM     24  C13 UNL     1      -4.933  -2.305  -1.841  0.00  0.00    +0.172 C 
ATOM     25  C14 UNL     1      -3.620  -1.473   0.110  0.00  0.00    +0.113 A 
ENDBRANCH  19  20
ENDBRANCH   1  19
TORSDOF 3
