REMARK  Name = /home/qwerty/github/datacon2025hack/step_04_hit_selection/docking/ligands/lig_97.pdb
REMARK  7 active torsions:
REMARK  status: ('A' for Active; 'I' for Inactive)
REMARK    1  A    between atoms: C1_1  and  C2_2
REMARK    2  A    between atoms: C2_2  and  C3_3
REMARK    3  A    between atoms: C3_3  and  N1_4
REMARK    4  A    between atoms: C3_3  and  C18_22
REMARK    5  A    between atoms: C4_5  and  C5_7
REMARK    6  A    between atoms: C9_11  and  C10_12
REMARK    7  A    between atoms: C22_27  and  C23_28
REMARK                            x       y       z     vdW  Elec       q    Type
REMARK                         _______ _______ _______ _____ _____    ______ ____
ROOT
ATOM      1  C5  UNL     1      -0.632  -0.088  -0.563  0.00  0.00    +0.037 A 
ATOM      2  C6  UNL     1      -0.532   0.529  -1.822  0.00  0.00    +0.013 A 
ATOM      3  C7  UNL     1      -1.680   0.946  -2.497  0.00  0.00    +0.001 A 
ATOM      4  C8  UNL     1      -2.941   0.749  -1.931  0.00  0.00    +0.008 A 
ATOM      5  C9  UNL     1      -3.069   0.123  -0.680  0.00  0.00    -0.017 A 
ATOM      6  C17 UNL     1      -1.907  -0.296  -0.004  0.00  0.00    +0.021 A 
ENDROOT
BRANCH   5   7
ATOM      7  C10 UNL     1      -4.409  -0.094  -0.079  0.00  0.00    -0.017 A 
ATOM      8  C11 UNL     1      -4.709  -1.313   0.592  0.00  0.00    +0.010 A 
ATOM      9  C12 UNL     1      -5.977  -1.529   1.166  0.00  0.00    +0.028 A 
ATOM     10  C13 UNL     1      -6.918  -0.512   1.051  0.00  0.00    +0.066 A 
ATOM     11  N2  UNL     1      -8.177  -0.482   1.512  0.00  0.00    -0.277 N 
ATOM     12  N3  UNL     1      -8.717   0.686   1.180  0.00  0.00    -0.181 NA
ATOM     13  C14 UNL     1      -7.793   1.408   0.501  0.00  0.00    +0.142 A 
ATOM     14  C15 UNL     1      -6.642   0.658   0.410  0.00  0.00    +0.020 A 
ATOM     15  C16 UNL     1      -5.403   0.912  -0.171  0.00  0.00    +0.020 A 
ATOM     16  H13 UNL     1      -8.669  -1.235   2.043  0.00  0.00    +0.189 HD
ENDBRANCH   5   7
BRANCH   1  18
ATOM     17  N1  UNL     1       1.858   0.069  -0.081  0.00  0.00    -0.303 N 
ATOM     18  C4  UNL     1       0.579  -0.541   0.162  0.00  0.00    +0.245 C 
ATOM     19  O1  UNL     1       0.481  -1.465   1.014  0.00  0.00    -0.270 OA
ATOM     20  H7  UNL     1       1.877   0.994  -0.566  0.00  0.00    +0.150 HD
BRANCH  17  21
ATOM     21  C3  UNL     1       3.113  -0.536   0.391  0.00  0.00    +0.122 C 
BRANCH  21  22
ATOM     22  C18 UNL     1       4.273   0.448   0.311  0.00  0.00    +0.064 A 
ATOM     23  N4  UNL     1       4.348   1.289  -0.760  0.00  0.00    -0.258 NA
ATOM     24  C19 UNL     1       5.363   2.174  -0.929  0.00  0.00    +0.111 A 
ATOM     25  C20 UNL     1       6.388   2.244   0.010  0.00  0.00    +0.020 A 
ATOM     26  C21 UNL     1       6.362   1.393   1.112  0.00  0.00    +0.006 A 
ATOM     27  C22 UNL     1       5.315   0.472   1.276  0.00  0.00    -0.027 A 
ATOM     28  C23 UNL     1       5.318  -0.434   2.480  0.00  0.00    +0.045 C 
ENDBRANCH  21  22
BRANCH  21  30
ATOM     29  C1  UNL     1       3.510  -1.630  -1.907  0.00  0.00    +0.006 C 
ATOM     30  C2  UNL     1       3.428  -1.830  -0.392  0.00  0.00    +0.025 C 
ENDBRANCH  21  30
ENDBRANCH  17  21
ENDBRANCH   1  18
TORSDOF 5
