MODEL 1
REMARK VINA RESULT:    -7.022      0.000      0.000
REMARK INTER + INTRA:          -8.296
REMARK INTER:                  -7.843
REMARK INTRA:                  -0.452
REMARK UNBOUND:                -0.452
REMARK  Name = /home/qwerty/github/datacon2025hack/step_04_hit_selection/docking/ligands/lig_601.pdb
REMARK  3 active torsions:
REMARK  status: ('A' for Active; 'I' for Inactive)
REMARK    1  A    between atoms: C1_1  and  C2_2
REMARK    2  A    between atoms: C5_5  and  N1_6
REMARK    3  A    between atoms: C8_10  and  C9_12
REMARK                            x       y       z     vdW  Elec       q    Type
REMARK                         _______ _______ _______ _____ _____    ______ ____
ROOT
ATOM      1  N1  UNL     1      20.752   3.373  32.575  0.00  0.00    -0.327 N 
ATOM      2  C6  UNL     1      20.225   2.949  33.885  0.00  0.00    +0.124 C 
ATOM      3  C7  UNL     1      19.199   3.957  34.398  0.00  0.00    +0.127 C 
ATOM      4  N2  UNL     1      19.759   5.304  34.294  0.00  0.00    -0.291 N 
ATOM      5  C8  UNL     1      19.845   6.150  35.455  0.00  0.00    +0.302 C 
ATOM      6  O1  UNL     1      18.829   6.292  36.188  0.00  0.00    -0.265 OA
ATOM      7  C17 UNL     1      20.211   5.743  32.973  0.00  0.00    +0.127 C 
ATOM      8  C18 UNL     1      21.243   4.752  32.433  0.00  0.00    +0.124 C 
ENDROOT
BRANCH   5   9
ATOM      9  C9  UNL     1      21.110   6.821  35.825  0.00  0.00    +0.302 C 
ATOM     10  O2  UNL     1      21.584   6.673  36.983  0.00  0.00    -0.265 OA
ATOM     11  N3  UNL     1      21.804   7.657  34.884  0.00  0.00    -0.292 N 
ATOM     12  C10 UNL     1      21.124   8.875  34.385  0.00  0.00    +0.108 C 
ATOM     13  C11 UNL     1      21.716   9.362  33.043  0.00  0.00    +0.024 C 
ATOM     14  C12 UNL     1      23.238   9.392  33.167  0.00  0.00    +0.010 C 
ATOM     15  C13 UNL     1      24.047   9.774  31.953  0.00  0.00    +0.020 C 
ATOM     16  C14 UNL     1      25.388   9.068  32.213  0.00  0.00    +0.081 C 
ATOM     17  N4  UNL     1      25.192   8.084  33.293  0.00  0.00    -0.311 NA
ATOM     18  C15 UNL     1      23.744   8.002  33.448  0.00  0.00    +0.074 C 
ATOM     19  C16 UNL     1      23.276   7.571  34.835  0.00  0.00    +0.127 C 
ATOM     20  H19 UNL     1      25.551   7.152  32.982  0.00  0.00    +0.122 HD
ENDBRANCH   5   9
BRANCH   1  25
ATOM     21  C1  UNL     1      22.452  -0.711  28.891  0.00  0.00    +0.044 C 
ATOM     22  C2  UNL     1      21.994   0.375  29.819  0.00  0.00    -0.050 A 
ATOM     23  C3  UNL     1      22.812   1.486  30.069  0.00  0.00    +0.005 A 
ATOM     24  C4  UNL     1      22.402   2.479  30.964  0.00  0.00    +0.023 A 
ATOM     25  C5  UNL     1      21.172   2.366  31.636  0.00  0.00    +0.030 A 
ATOM     26  C19 UNL     1      20.365   1.244  31.398  0.00  0.00    +0.023 A 
ATOM     27  C20 UNL     1      20.774   0.254  30.499  0.00  0.00    +0.005 A 
ENDBRANCH   1  25
TORSDOF 2
ENDMDL
MODEL 2
REMARK VINA RESULT:    -6.577      4.717      8.487
REMARK INTER + INTRA:          -7.799
REMARK INTER:                  -7.178
REMARK INTRA:                  -0.621
REMARK UNBOUND:                -0.452
REMARK  Name = /home/qwerty/github/datacon2025hack/step_04_hit_selection/docking/ligands/lig_601.pdb
REMARK  3 active torsions:
REMARK  status: ('A' for Active; 'I' for Inactive)
REMARK    1  A    between atoms: C1_1  and  C2_2
REMARK    2  A    between atoms: C5_5  and  N1_6
REMARK    3  A    between atoms: C8_10  and  C9_12
REMARK                            x       y       z     vdW  Elec       q    Type
REMARK                         _______ _______ _______ _____ _____    ______ ____
ROOT
ATOM      1  N1  UNL     1      17.235  10.481  36.494  0.00  0.00    -0.327 N 
ATOM      2  C6  UNL     1      17.314   9.618  35.302  0.00  0.00    +0.124 C 
ATOM      3  C7  UNL     1      17.413   8.150  35.713  0.00  0.00    +0.127 C 
ATOM      4  N2  UNL     1      18.458   8.007  36.726  0.00  0.00    -0.291 N 
ATOM      5  C8  UNL     1      19.553   7.096  36.521  0.00  0.00    +0.302 C 
ATOM      6  O1  UNL     1      19.309   5.914  36.158  0.00  0.00    -0.265 OA
ATOM      7  C17 UNL     1      18.330   8.814  37.941  0.00  0.00    +0.127 C 
ATOM      8  C18 UNL     1      18.231  10.292  37.560  0.00  0.00    +0.124 C 
ENDROOT
BRANCH   5   9
ATOM      9  C9  UNL     1      20.956   7.533  36.690  0.00  0.00    +0.302 C 
ATOM     10  O2  UNL     1      21.520   7.414  37.812  0.00  0.00    -0.265 OA
ATOM     11  N3  UNL     1      21.687   8.108  35.595  0.00  0.00    -0.292 N 
ATOM     12  C10 UNL     1      21.201   9.378  35.010  0.00  0.00    +0.108 C 
ATOM     13  C11 UNL     1      21.720   9.593  33.570  0.00  0.00    +0.024 C 
ATOM     14  C12 UNL     1      23.225   9.326  33.554  0.00  0.00    +0.010 C 
ATOM     15  C13 UNL     1      23.951   9.407  32.234  0.00  0.00    +0.020 C 
ATOM     16  C14 UNL     1      25.153   8.475  32.460  0.00  0.00    +0.081 C 
ATOM     17  N4  UNL     1      24.895   7.670  33.669  0.00  0.00    -0.311 NA
ATOM     18  C15 UNL     1      23.485   7.900  33.960  0.00  0.00    +0.074 C 
ATOM     19  C16 UNL     1      23.101   7.720  35.426  0.00  0.00    +0.127 C 
ATOM     20  H19 UNL     1      25.033   6.657  33.445  0.00  0.00    +0.122 HD
ENDBRANCH   5   9
BRANCH   1  25
ATOM     21  C1  UNL     1      14.278  15.403  36.084  0.00  0.00    +0.044 C 
ATOM     22  C2  UNL     1      15.069  14.136  36.224  0.00  0.00    -0.050 A 
ATOM     23  C3  UNL     1      16.339  14.024  35.640  0.00  0.00    +0.005 A 
ATOM     24  C4  UNL     1      17.058  12.829  35.738  0.00  0.00    +0.023 A 
ATOM     25  C5  UNL     1      16.511  11.722  36.407  0.00  0.00    +0.030 A 
ATOM     26  C19 UNL     1      15.231  11.831  36.973  0.00  0.00    +0.023 A 
ATOM     27  C20 UNL     1      14.514  13.028  36.880  0.00  0.00    +0.005 A 
ENDBRANCH   1  25
TORSDOF 2
ENDMDL
MODEL 3
REMARK VINA RESULT:    -6.497      6.445      9.775
REMARK INTER + INTRA:          -7.709
REMARK INTER:                  -7.177
REMARK INTRA:                  -0.532
REMARK UNBOUND:                -0.452
REMARK  Name = /home/qwerty/github/datacon2025hack/step_04_hit_selection/docking/ligands/lig_601.pdb
REMARK  3 active torsions:
REMARK  status: ('A' for Active; 'I' for Inactive)
REMARK    1  A    between atoms: C1_1  and  C2_2
REMARK    2  A    between atoms: C5_5  and  N1_6
REMARK    3  A    between atoms: C8_10  and  C9_12
REMARK                            x       y       z     vdW  Elec       q    Type
REMARK                         _______ _______ _______ _____ _____    ______ ____
ROOT
ATOM      1  N1  UNL     1      19.507  10.334  35.889  0.00  0.00    -0.327 N 
ATOM      2  C6  UNL     1      19.778  11.462  34.979  0.00  0.00    +0.124 C 
ATOM      3  C7  UNL     1      19.057  12.720  35.462  0.00  0.00    +0.127 C 
ATOM      4  N2  UNL     1      17.659  12.392  35.741  0.00  0.00    -0.291 N 
ATOM      5  C8  UNL     1      16.596  13.113  35.093  0.00  0.00    +0.302 C 
ATOM      6  O1  UNL     1      16.624  14.374  35.087  0.00  0.00    -0.265 OA
ATOM      7  C17 UNL     1      17.401  11.319  36.704  0.00  0.00    +0.127 C 
ATOM      8  C18 UNL     1      18.110  10.044  36.245  0.00  0.00    +0.124 C 
ENDROOT
BRANCH   5   9
ATOM      9  C9  UNL     1      15.497  12.404  34.402  0.00  0.00    +0.302 C 
ATOM     10  O2  UNL     1      15.603  12.125  33.177  0.00  0.00    -0.265 OA
ATOM     11  N3  UNL     1      14.297  12.042  35.103  0.00  0.00    -0.292 N 
ATOM     12  C10 UNL     1      13.453  13.121  35.667  0.00  0.00    +0.108 C 
ATOM     13  C11 UNL     1      12.539  12.611  36.804  0.00  0.00    +0.024 C 
ATOM     14  C12 UNL     1      11.847  11.334  36.332  0.00  0.00    +0.010 C 
ATOM     15  C13 UNL     1      10.948  10.608  37.302  0.00  0.00    +0.020 C 
ATOM     16  C14 UNL     1      11.005   9.160  36.787  0.00  0.00    +0.081 C 
ATOM     17  N4  UNL     1      12.134   9.048  35.845  0.00  0.00    -0.311 NA
ATOM     18  C15 UNL     1      12.884  10.284  36.031  0.00  0.00    +0.074 C 
ATOM     19  C16 UNL     1      13.701  10.722  34.819  0.00  0.00    +0.127 C 
ATOM     20  H19 UNL     1      12.739   8.241  36.124  0.00  0.00    +0.122 HD
ENDBRANCH   5   9
BRANCH   1  25
ATOM     21  C1  UNL     1      23.558   6.306  36.601  0.00  0.00    +0.044 C 
ATOM     22  C2  UNL     1      22.481   7.330  36.390  0.00  0.00    -0.050 A 
ATOM     23  C3  UNL     1      22.536   8.199  35.291  0.00  0.00    +0.005 A 
ATOM     24  C4  UNL     1      21.554   9.179  35.117  0.00  0.00    +0.023 A 
ATOM     25  C5  UNL     1      20.510   9.314  36.049  0.00  0.00    +0.030 A 
ATOM     26  C19 UNL     1      20.470   8.455  37.157  0.00  0.00    +0.023 A 
ATOM     27  C20 UNL     1      21.450   7.472  37.329  0.00  0.00    +0.005 A 
ENDBRANCH   1  25
TORSDOF 2
ENDMDL
MODEL 4
REMARK VINA RESULT:    -6.482     13.605     14.838
REMARK INTER + INTRA:          -7.693
REMARK INTER:                  -7.046
REMARK INTRA:                  -0.647
REMARK UNBOUND:                -0.452
REMARK  Name = /home/qwerty/github/datacon2025hack/step_04_hit_selection/docking/ligands/lig_601.pdb
REMARK  3 active torsions:
REMARK  status: ('A' for Active; 'I' for Inactive)
REMARK    1  A    between atoms: C1_1  and  C2_2
REMARK    2  A    between atoms: C5_5  and  N1_6
REMARK    3  A    between atoms: C8_10  and  C9_12
REMARK                            x       y       z     vdW  Elec       q    Type
REMARK                         _______ _______ _______ _____ _____    ______ ____
ROOT
ATOM      1  N1  UNL     1       9.596   9.669  24.851  0.00  0.00    -0.327 N 
ATOM      2  C6  UNL     1      10.630   9.221  25.800  0.00  0.00    +0.124 C 
ATOM      3  C7  UNL     1       9.989   8.502  26.986  0.00  0.00    +0.127 C 
ATOM      4  N2  UNL     1       8.896   9.321  27.508  0.00  0.00    -0.291 N 
ATOM      5  C8  UNL     1       8.880   9.722  28.890  0.00  0.00    +0.302 C 
ATOM      6  O1  UNL     1       9.071   8.853  29.784  0.00  0.00    -0.265 OA
ATOM      7  C17 UNL     1       7.834   9.698  26.574  0.00  0.00    +0.127 C 
ATOM      8  C18 UNL     1       8.447  10.423  25.374  0.00  0.00    +0.124 C 
ENDROOT
BRANCH   5   9
ATOM      9  C9  UNL     1       8.685  11.136  29.278  0.00  0.00    +0.302 C 
ATOM     10  O2  UNL     1       7.554  11.527  29.675  0.00  0.00    -0.265 OA
ATOM     11  N3  UNL     1       9.764  12.080  29.192  0.00  0.00    -0.292 N 
ATOM     12  C10 UNL     1      10.351  12.365  27.863  0.00  0.00    +0.108 C 
ATOM     13  C11 UNL     1      11.780  12.943  27.970  0.00  0.00    +0.024 C 
ATOM     14  C12 UNL     1      11.772  14.067  29.004  0.00  0.00    +0.010 C 
ATOM     15  C13 UNL     1      13.078  14.745  29.334  0.00  0.00    +0.020 C 
ATOM     16  C14 UNL     1      12.836  15.252  30.766  0.00  0.00    +0.081 C 
ATOM     17  N4  UNL     1      11.636  14.580  31.298  0.00  0.00    -0.311 NA
ATOM     18  C15 UNL     1      11.368  13.511  30.344  0.00  0.00    +0.074 C 
ATOM     19  C16 UNL     1       9.910  13.065  30.281  0.00  0.00    +0.127 C 
ATOM     20  H19 UNL     1      11.863  14.154  32.228  0.00  0.00    +0.122 HD
ENDBRANCH   5   9
BRANCH   1  25
ATOM     21  C1  UNL     1      10.912  10.093  19.263  0.00  0.00    +0.044 C 
ATOM     22  C2  UNL     1      10.576   9.941  20.717  0.00  0.00    -0.050 A 
ATOM     23  C3  UNL     1       9.275   9.598  21.112  0.00  0.00    +0.005 A 
ATOM     24  C4  UNL     1       8.953   9.495  22.469  0.00  0.00    +0.023 A 
ATOM     25  C5  UNL     1       9.924   9.751  23.452  0.00  0.00    +0.030 A 
ATOM     26  C19 UNL     1      11.220  10.113  23.053  0.00  0.00    +0.023 A 
ATOM     27  C20 UNL     1      11.543  10.211  21.696  0.00  0.00    +0.005 A 
ENDBRANCH   1  25
TORSDOF 2
ENDMDL
MODEL 5
REMARK VINA RESULT:    -6.470      9.958     12.356
REMARK INTER + INTRA:          -7.679
REMARK INTER:                  -7.178
REMARK INTRA:                  -0.501
REMARK UNBOUND:                -0.452
REMARK  Name = /home/qwerty/github/datacon2025hack/step_04_hit_selection/docking/ligands/lig_601.pdb
REMARK  3 active torsions:
REMARK  status: ('A' for Active; 'I' for Inactive)
REMARK    1  A    between atoms: C1_1  and  C2_2
REMARK    2  A    between atoms: C5_5  and  N1_6
REMARK    3  A    between atoms: C8_10  and  C9_12
REMARK                            x       y       z     vdW  Elec       q    Type
REMARK                         _______ _______ _______ _____ _____    ______ ____
ROOT
ATOM      1  N1  UNL     1      11.436  12.999  31.591  0.00  0.00    -0.327 N 
ATOM      2  C6  UNL     1      11.057  14.230  32.307  0.00  0.00    +0.124 C 
ATOM      3  C7  UNL     1      12.297  14.918  32.876  0.00  0.00    +0.127 C 
ATOM      4  N2  UNL     1      13.102  13.932  33.596  0.00  0.00    -0.291 N 
ATOM      5  C8  UNL     1      13.450  14.142  34.976  0.00  0.00    +0.302 C 
ATOM      6  O1  UNL     1      13.933  15.253  35.326  0.00  0.00    -0.265 OA
ATOM      7  C17 UNL     1      13.536  12.748  32.853  0.00  0.00    +0.127 C 
ATOM      8  C18 UNL     1      12.314  12.036  32.272  0.00  0.00    +0.124 C 
ENDROOT
BRANCH   5   9
ATOM      9  C9  UNL     1      13.214  13.096  35.996  0.00  0.00    +0.302 C 
ATOM     10  O2  UNL     1      12.069  12.964  36.506  0.00  0.00    -0.265 OA
ATOM     11  N3  UNL     1      14.279  12.234  36.428  0.00  0.00    -0.292 N 
ATOM     12  C10 UNL     1      15.451  12.840  37.099  0.00  0.00    +0.108 C 
ATOM     13  C11 UNL     1      16.699  11.931  37.024  0.00  0.00    +0.024 C 
ATOM     14  C12 UNL     1      16.292  10.516  37.433  0.00  0.00    +0.010 C 
ATOM     15  C13 UNL     1      17.334   9.427  37.373  0.00  0.00    +0.020 C 
ATOM     16  C14 UNL     1      16.481   8.163  37.172  0.00  0.00    +0.081 C 
ATOM     17  N4  UNL     1      15.121   8.579  36.784  0.00  0.00    -0.311 NA
ATOM     18  C15 UNL     1      15.252   9.998  36.476  0.00  0.00    +0.074 C 
ATOM     19  C16 UNL     1      13.969  10.807  36.646  0.00  0.00    +0.127 C 
ATOM     20  H19 UNL     1      14.839   8.069  35.915  0.00  0.00    +0.122 HD
ENDBRANCH   5   9
BRANCH   1  25
ATOM     21  C1  UNL     1       8.292  11.223  27.106  0.00  0.00    +0.044 C 
ATOM     22  C2  UNL     1       9.076  11.698  28.294  0.00  0.00    -0.050 A 
ATOM     23  C3  UNL     1       9.482  13.037  28.386  0.00  0.00    +0.005 A 
ATOM     24  C4  UNL     1      10.247  13.471  29.474  0.00  0.00    +0.023 A 
ATOM     25  C5  UNL     1      10.630  12.567  30.478  0.00  0.00    +0.030 A 
ATOM     26  C19 UNL     1      10.239  11.223  30.373  0.00  0.00    +0.023 A 
ATOM     27  C20 UNL     1       9.470  10.792  29.288  0.00  0.00    +0.005 A 
ENDBRANCH   1  25
TORSDOF 2
ENDMDL
MODEL 6
REMARK VINA RESULT:    -6.458     14.036     16.546
REMARK INTER + INTRA:          -7.666
REMARK INTER:                  -6.998
REMARK INTRA:                  -0.668
REMARK UNBOUND:                -0.452
REMARK  Name = /home/qwerty/github/datacon2025hack/step_04_hit_selection/docking/ligands/lig_601.pdb
REMARK  3 active torsions:
REMARK  status: ('A' for Active; 'I' for Inactive)
REMARK    1  A    between atoms: C1_1  and  C2_2
REMARK    2  A    between atoms: C5_5  and  N1_6
REMARK    3  A    between atoms: C8_10  and  C9_12
REMARK                            x       y       z     vdW  Elec       q    Type
REMARK                         _______ _______ _______ _____ _____    ______ ____
ROOT
ATOM      1  N1  UNL     1       9.387   9.808  27.750  0.00  0.00    -0.327 N 
ATOM      2  C6  UNL     1       8.014   9.688  27.229  0.00  0.00    +0.124 C 
ATOM      3  C7  UNL     1       7.243   8.618  28.000  0.00  0.00    +0.127 C 
ATOM      4  N2  UNL     1       8.053   7.402  28.067  0.00  0.00    -0.291 N 
ATOM      5  C8  UNL     1       7.535   6.152  27.578  0.00  0.00    +0.302 C 
ATOM      6  O1  UNL     1       6.385   5.780  27.939  0.00  0.00    -0.265 OA
ATOM      7  C17 UNL     1       9.388   7.516  28.656  0.00  0.00    +0.127 C 
ATOM      8  C18 UNL     1      10.185   8.582  27.903  0.00  0.00    +0.124 C 
ENDROOT
BRANCH   5   9
ATOM      9  C9  UNL     1       8.307   5.318  26.632  0.00  0.00    +0.302 C 
ATOM     10  O2  UNL     1       8.979   4.341  27.059  0.00  0.00    -0.265 OA
ATOM     11  N3  UNL     1       8.317   5.615  25.226  0.00  0.00    -0.292 N 
ATOM     12  C10 UNL     1       8.878   6.912  24.781  0.00  0.00    +0.108 C 
ATOM     13  C11 UNL     1       8.360   7.322  23.385  0.00  0.00    +0.024 C 
ATOM     14  C12 UNL     1       8.496   6.123  22.447  0.00  0.00    +0.010 C 
ATOM     15  C13 UNL     1       7.987   6.261  21.033  0.00  0.00    +0.020 C 
ATOM     16  C14 UNL     1       7.662   4.806  20.655  0.00  0.00    +0.081 C 
ATOM     17  N4  UNL     1       7.644   4.000  21.890  0.00  0.00    -0.311 NA
ATOM     18  C15 UNL     1       7.657   4.985  22.965  0.00  0.00    +0.074 C 
ATOM     19  C16 UNL     1       8.251   4.485  24.279  0.00  0.00    +0.127 C 
ATOM     20  H19 UNL     1       6.749   3.460  21.938  0.00  0.00    +0.122 HD
ENDBRANCH   5   9
BRANCH   1  25
ATOM     21  C1  UNL     1      11.976  14.938  27.403  0.00  0.00    +0.044 C 
ATOM     22  C2  UNL     1      11.319  13.595  27.531  0.00  0.00    -0.050 A 
ATOM     23  C3  UNL     1      11.996  12.434  27.132  0.00  0.00    +0.005 A 
ATOM     24  C4  UNL     1      11.369  11.187  27.214  0.00  0.00    +0.023 A 
ATOM     25  C5  UNL     1      10.048  11.085  27.683  0.00  0.00    +0.030 A 
ATOM     26  C19 UNL     1       9.367  12.251  28.063  0.00  0.00    +0.023 A 
ATOM     27  C20 UNL     1       9.996  13.497  27.985  0.00  0.00    +0.005 A 
ENDBRANCH   1  25
TORSDOF 2
ENDMDL
MODEL 7
REMARK VINA RESULT:    -6.403     15.085     17.103
REMARK INTER + INTRA:          -7.604
REMARK INTER:                  -7.094
REMARK INTRA:                  -0.510
REMARK UNBOUND:                -0.452
REMARK  Name = /home/qwerty/github/datacon2025hack/step_04_hit_selection/docking/ligands/lig_601.pdb
REMARK  3 active torsions:
REMARK  status: ('A' for Active; 'I' for Inactive)
REMARK    1  A    between atoms: C1_1  and  C2_2
REMARK    2  A    between atoms: C5_5  and  N1_6
REMARK    3  A    between atoms: C8_10  and  C9_12
REMARK                            x       y       z     vdW  Elec       q    Type
REMARK                         _______ _______ _______ _____ _____    ______ ____
ROOT
ATOM      1  N1  UNL     1       8.563   9.012  26.688  0.00  0.00    -0.327 N 
ATOM      2  C6  UNL     1       7.714   7.827  26.904  0.00  0.00    +0.124 C 
ATOM      3  C7  UNL     1       8.494   6.550  26.595  0.00  0.00    +0.127 C 
ATOM      4  N2  UNL     1       9.145   6.692  25.293  0.00  0.00    -0.291 N 
ATOM      5  C8  UNL     1       8.905   5.732  24.249  0.00  0.00    +0.302 C 
ATOM      6  O1  UNL     1       8.998   4.502  24.511  0.00  0.00    -0.265 OA
ATOM      7  C17 UNL     1      10.046   7.832  25.114  0.00  0.00    +0.127 C 
ATOM      8  C18 UNL     1       9.291   9.127  25.415  0.00  0.00    +0.124 C 
ENDROOT
BRANCH   5   9
ATOM      9  C9  UNL     1       8.512   6.160  22.888  0.00  0.00    +0.302 C 
ATOM     10  O2  UNL     1       7.426   5.754  22.392  0.00  0.00    -0.265 OA
ATOM     11  N3  UNL     1       9.360   7.021  22.112  0.00  0.00    -0.292 N 
ATOM     12  C10 UNL     1      10.708   6.536  21.737  0.00  0.00    +0.108 C 
ATOM     13  C11 UNL     1      11.671   7.696  21.397  0.00  0.00    +0.024 C 
ATOM     14  C12 UNL     1      10.960   8.649  20.438  0.00  0.00    +0.010 C 
ATOM     15  C13 UNL     1      11.682   9.904  20.013  0.00  0.00    +0.020 C 
ATOM     16  C14 UNL     1      10.521  10.856  19.678  0.00  0.00    +0.081 C 
ATOM     17  N4  UNL     1       9.279  10.284  20.232  0.00  0.00    -0.311 NA
ATOM     18  C15 UNL     1       9.735   9.211  21.107  0.00  0.00    +0.074 C 
ATOM     19  C16 UNL     1       8.722   8.089  21.319  0.00  0.00    +0.127 C 
ATOM     20  H19 UNL     1       8.793  11.009  20.810  0.00  0.00    +0.122 HD
ENDBRANCH   5   9
BRANCH   1  25
ATOM     21  C1  UNL     1       7.543  13.700  29.870  0.00  0.00    +0.044 C 
ATOM     22  C2  UNL     1       7.849  12.481  29.050  0.00  0.00    -0.050 A 
ATOM     23  C3  UNL     1       8.263  12.609  27.717  0.00  0.00    +0.005 A 
ATOM     24  C4  UNL     1       8.510  11.472  26.942  0.00  0.00    +0.023 A 
ATOM     25  C5  UNL     1       8.332  10.188  27.485  0.00  0.00    +0.030 A 
ATOM     26  C19 UNL     1       7.899  10.064  28.814  0.00  0.00    +0.023 A 
ATOM     27  C20 UNL     1       7.656  11.202  29.590  0.00  0.00    +0.005 A 
ENDBRANCH   1  25
TORSDOF 2
ENDMDL
MODEL 8
REMARK VINA RESULT:    -6.333     13.385     15.159
REMARK INTER + INTRA:          -7.526
REMARK INTER:                  -7.164
REMARK INTRA:                  -0.362
REMARK UNBOUND:                -0.452
REMARK  Name = /home/qwerty/github/datacon2025hack/step_04_hit_selection/docking/ligands/lig_601.pdb
REMARK  3 active torsions:
REMARK  status: ('A' for Active; 'I' for Inactive)
REMARK    1  A    between atoms: C1_1  and  C2_2
REMARK    2  A    between atoms: C5_5  and  N1_6
REMARK    3  A    between atoms: C8_10  and  C9_12
REMARK                            x       y       z     vdW  Elec       q    Type
REMARK                         _______ _______ _______ _____ _____    ______ ____
ROOT
ATOM      1  N1  UNL     1       9.044   0.301  28.302  0.00  0.00    -0.327 N 
ATOM      2  C6  UNL     1      10.275   1.111  28.286  0.00  0.00    +0.124 C 
ATOM      3  C7  UNL     1      10.084   2.353  27.417  0.00  0.00    +0.127 C 
ATOM      4  N2  UNL     1       9.518   1.952  26.129  0.00  0.00    -0.291 N 
ATOM      5  C8  UNL     1      10.187   2.290  24.901  0.00  0.00    +0.302 C 
ATOM      6  O1  UNL     1      10.569   3.477  24.716  0.00  0.00    -0.265 OA
ATOM      7  C17 UNL     1       8.255   1.212  26.153  0.00  0.00    +0.127 C 
ATOM      8  C18 UNL     1       8.416  -0.040  27.017  0.00  0.00    +0.124 C 
ENDROOT
BRANCH   5   9
ATOM      9  C9  UNL     1      10.469   1.264  23.873  0.00  0.00    +0.302 C 
ATOM     10  O2  UNL     1       9.515   0.676  23.295  0.00  0.00    -0.265 OA
ATOM     11  N3  UNL     1      11.820   0.914  23.532  0.00  0.00    -0.292 N 
ATOM     12  C10 UNL     1      12.683   0.322  24.579  0.00  0.00    +0.108 C 
ATOM     13  C11 UNL     1      14.185   0.491  24.260  0.00  0.00    +0.024 C 
ATOM     14  C12 UNL     1      14.423   0.065  22.812  0.00  0.00    +0.010 C 
ATOM     15  C13 UNL     1      15.813   0.207  22.244  0.00  0.00    +0.020 C 
ATOM     16  C14 UNL     1      15.542   0.356  20.738  0.00  0.00    +0.081 C 
ATOM     17  N4  UNL     1      14.108   0.645  20.552  0.00  0.00    -0.311 NA
ATOM     18  C15 UNL     1      13.625   0.952  21.893  0.00  0.00    +0.074 C 
ATOM     19  C16 UNL     1      12.138   0.686  22.109  0.00  0.00    +0.127 C 
ATOM     20  H19 UNL     1      14.002   1.497  19.952  0.00  0.00    +0.122 HD
ENDBRANCH   5   9
BRANCH   1  25
ATOM     21  C1  UNL     1       7.836  -2.739  33.039  0.00  0.00    +0.044 C 
ATOM     22  C2  UNL     1       8.138  -1.979  31.781  0.00  0.00    -0.050 A 
ATOM     23  C3  UNL     1       9.382  -2.122  31.148  0.00  0.00    +0.005 A 
ATOM     24  C4  UNL     1       9.677  -1.384  29.998  0.00  0.00    +0.023 A 
ATOM     25  C5  UNL     1       8.739  -0.479  29.473  0.00  0.00    +0.030 A 
ATOM     26  C19 UNL     1       7.504  -0.324  30.121  0.00  0.00    +0.023 A 
ATOM     27  C20 UNL     1       7.207  -1.066  31.267  0.00  0.00    +0.005 A 
ENDBRANCH   1  25
TORSDOF 2
ENDMDL
MODEL 9
REMARK VINA RESULT:    -6.203     13.321     15.020
REMARK INTER + INTRA:          -7.380
REMARK INTER:                  -7.427
REMARK INTRA:                   0.046
REMARK UNBOUND:                -0.452
REMARK  Name = /home/qwerty/github/datacon2025hack/step_04_hit_selection/docking/ligands/lig_601.pdb
REMARK  3 active torsions:
REMARK  status: ('A' for Active; 'I' for Inactive)
REMARK    1  A    between atoms: C1_1  and  C2_2
REMARK    2  A    between atoms: C5_5  and  N1_6
REMARK    3  A    between atoms: C8_10  and  C9_12
REMARK                            x       y       z     vdW  Elec       q    Type
REMARK                         _______ _______ _______ _____ _____    ______ ____
ROOT
ATOM      1  N1  UNL     1      13.883   0.660  22.591  0.00  0.00    -0.327 N 
ATOM      2  C6  UNL     1      12.681   0.959  23.390  0.00  0.00    +0.124 C 
ATOM      3  C7  UNL     1      11.514   1.331  22.477  0.00  0.00    +0.127 C 
ATOM      4  N2  UNL     1      11.961   2.340  21.517  0.00  0.00    -0.291 N 
ATOM      5  C8  UNL     1      11.278   3.602  21.414  0.00  0.00    +0.302 C 
ATOM      6  O1  UNL     1      10.021   3.614  21.315  0.00  0.00    -0.265 OA
ATOM      7  C17 UNL     1      13.110   2.003  20.676  0.00  0.00    +0.127 C 
ATOM      8  C18 UNL     1      14.297   1.627  21.564  0.00  0.00    +0.124 C 
ENDROOT
BRANCH   5   9
ATOM      9  C9  UNL     1      12.018   4.882  21.463  0.00  0.00    +0.302 C 
ATOM     10  O2  UNL     1      13.277   4.877  21.521  0.00  0.00    -0.265 OA
ATOM     11  N3  UNL     1      11.320   6.138  21.463  0.00  0.00    -0.292 N 
ATOM     12  C10 UNL     1      10.411   6.443  22.592  0.00  0.00    +0.108 C 
ATOM     13  C11 UNL     1       9.363   7.516  22.222  0.00  0.00    +0.024 C 
ATOM     14  C12 UNL     1      10.082   8.683  21.547  0.00  0.00    +0.010 C 
ATOM     15  C13 UNL     1       9.252   9.832  21.030  0.00  0.00    +0.020 C 
ATOM     16  C14 UNL     1      10.133  10.396  19.903  0.00  0.00    +0.081 C 
ATOM     17  N4  UNL     1      11.179   9.405  19.592  0.00  0.00    -0.311 NA
ATOM     18  C15 UNL     1      10.750   8.197  20.287  0.00  0.00    +0.074 C 
ATOM     19  C16 UNL     1      11.880   7.241  20.658  0.00  0.00    +0.127 C 
ATOM     20  H19 UNL     1      11.184   9.218  18.562  0.00  0.00    +0.122 HD
ENDBRANCH   5   9
BRANCH   1  25
ATOM     21  C1  UNL     1      17.726  -3.085  24.678  0.00  0.00    +0.044 C 
ATOM     22  C2  UNL     1      16.705  -2.140  24.114  0.00  0.00    -0.050 A 
ATOM     23  C3  UNL     1      16.885  -1.578  22.842  0.00  0.00    +0.005 A 
ATOM     24  C4  UNL     1      15.953  -0.668  22.334  0.00  0.00    +0.023 A 
ATOM     25  C5  UNL     1      14.835  -0.293  23.098  0.00  0.00    +0.030 A 
ATOM     26  C19 UNL     1      14.669  -0.843  24.378  0.00  0.00    +0.023 A 
ATOM     27  C20 UNL     1      15.598  -1.757  24.884  0.00  0.00    +0.005 A 
ENDBRANCH   1  25
TORSDOF 2
ENDMDL
