REMARK  Name = /home/qwerty/github/datacon2025hack/step_04_hit_selection/docking/ligands/lig_586.pdb
REMARK  8 active torsions:
REMARK  status: ('A' for Active; 'I' for Inactive)
REMARK    1  A    between atoms: C1_1  and  C2_2
REMARK    2  A    between atoms: C4_4  and  C5_5
REMARK    3  A    between atoms: C7_7  and  C8_8
REMARK    4  A    between atoms: C8_8  and  N1_9
REMARK    5  A    between atoms: C12_14  and  C13_15
REMARK    6  A    between atoms: C13_15  and  O2_16
REMARK    7  A    between atoms: O2_16  and  C14_17
REMARK    8  A    between atoms: C14_17  and  C15_18
REMARK                            x       y       z     vdW  Elec       q    Type
REMARK                         _______ _______ _______ _____ _____    ______ ____
ROOT
ATOM      1  N1  UNL     1       1.763  -0.517   0.007  0.00  0.00    -0.293 NA
ATOM      2  C9  UNL     1       1.748  -0.193   1.438  0.00  0.00    +0.087 C 
ATOM      3  C10 UNL     1       0.292  -0.080   1.835  0.00  0.00    +0.048 C 
ATOM      4  C11 UNL     1      -0.410  -1.092   0.952  0.00  0.00    +0.137 C 
ATOM      5  O1  UNL     1      -1.695  -0.611   0.588  0.00  0.00    -0.369 OA
ATOM      6  C12 UNL     1      -2.276  -1.475  -0.373  0.00  0.00    +0.144 C 
ATOM      7  C20 UNL     1      -1.524  -1.374  -1.725  0.00  0.00    +0.035 C 
ATOM      8  C21 UNL     1      -0.119  -0.782  -1.551  0.00  0.00    +0.024 C 
ATOM      9  C22 UNL     1       0.534  -1.286  -0.257  0.00  0.00    +0.086 C 
ENDROOT
BRANCH   1  10
ATOM     10  C8  UNL     1       2.978  -1.254  -0.391  0.00  0.00    +0.120 C 
BRANCH  10  17
ATOM     11  C1  UNL     1       7.231   0.289   1.837  0.00  0.00    +0.044 C 
ATOM     12  C2  UNL     1       6.234   0.397   0.721  0.00  0.00    -0.050 A 
ATOM     13  C3  UNL     1       6.359   1.415  -0.236  0.00  0.00    +0.006 A 
ATOM     14  C4  UNL     1       5.413   1.543  -1.265  0.00  0.00    -0.050 A 
ATOM     15  C5  UNL     1       5.530   2.658  -2.262  0.00  0.00    +0.044 C 
ATOM     16  C6  UNL     1       4.317   0.670  -1.309  0.00  0.00    +0.008 A 
ATOM     17  C7  UNL     1       4.178  -0.346  -0.351  0.00  0.00    -0.033 A 
ATOM     18  C23 UNL     1       5.133  -0.470   0.669  0.00  0.00    +0.008 A 
ENDBRANCH  10  17
ENDBRANCH   1  10
BRANCH   6  19
ATOM     19  C13 UNL     1      -3.759  -1.119  -0.540  0.00  0.00    +0.191 C 
BRANCH  19  20
ATOM     20  O2  UNL     1      -4.459  -1.376   0.666  0.00  0.00    -0.371 OA
BRANCH  20  21
ATOM     21  C14 UNL     1      -4.775  -0.178   1.348  0.00  0.00    +0.215 C 
BRANCH  21  22
ATOM     22  C15 UNL     1      -6.034   0.428   0.797  0.00  0.00    +0.067 A 
ATOM     23  C16 UNL     1      -7.256  -0.251   0.899  0.00  0.00    +0.025 A 
ATOM     24  C17 UNL     1      -8.409   0.333   0.370  0.00  0.00    +0.003 A 
ATOM     25  C18 UNL     1      -8.333   1.580  -0.253  0.00  0.00    +0.020 A 
ATOM     26  C19 UNL     1      -7.098   2.227  -0.339  0.00  0.00    +0.111 A 
ATOM     27  N2  UNL     1      -5.986   1.643   0.182  0.00  0.00    -0.258 NA
ENDBRANCH  21  22
ENDBRANCH  20  21
ENDBRANCH  19  20
ENDBRANCH   6  19
TORSDOF 6
