MODEL 1
REMARK VINA RESULT:    -6.392      0.000      0.000
REMARK INTER + INTRA:          -8.581
REMARK INTER:                  -7.700
REMARK INTRA:                  -0.881
REMARK UNBOUND:                -0.881
REMARK  Name = /home/qwerty/github/datacon2025hack/step_04_hit_selection/docking/ligands/lig_435.pdb
REMARK  5 active torsions:
REMARK  status: ('A' for Active; 'I' for Inactive)
REMARK    1  A    between atoms: C1_1  and  O1_2
REMARK    2  A    between atoms: O1_2  and  C2_3
REMARK    3  A    between atoms: C6_7  and  C7_8
REMARK    4  A    between atoms: N1_10  and  C8_11
REMARK    5  A    between atoms: C17_22  and  O5_23
REMARK                            x       y       z     vdW  Elec       q    Type
REMARK                         _______ _______ _______ _____ _____    ______ ____
ROOT
ATOM      1  C7  UNL     1      13.541   1.757  21.852  0.00  0.00    +0.252 C 
ATOM      2  O2  UNL     1      13.507   2.464  22.897  0.00  0.00    -0.270 OA
ATOM      3  N1  UNL     1      12.517   1.905  20.855  0.00  0.00    -0.276 N 
ATOM      4  H7  UNL     1      12.295   1.076  20.260  0.00  0.00    +0.155 HD
ENDROOT
BRANCH   3   5
ATOM      5  C8  UNL     1      11.700   3.084  20.721  0.00  0.00    +0.120 A 
ATOM      6  C9  UNL     1      10.443   3.171  21.335  0.00  0.00    +0.042 A 
ATOM      7  C10 UNL     1       9.688   4.340  21.205  0.00  0.00    +0.019 A 
ATOM      8  C11 UNL     1       8.422   4.466  21.796  0.00  0.00    +0.011 A 
ATOM      9  C12 UNL     1       7.697   5.654  21.645  0.00  0.00    +0.001 A 
ATOM     10  C13 UNL     1       8.233   6.714  20.906  0.00  0.00    +0.004 A 
ATOM     11  C14 UNL     1       9.495   6.595  20.317  0.00  0.00    +0.047 A 
ATOM     12  C15 UNL     1      10.227   5.411  20.463  0.00  0.00    +0.139 A 
ATOM     13  O3  UNL     1      11.429   5.302  19.907  0.00  0.00    -0.421 OA
ATOM     14  C16 UNL     1      12.173   4.203  20.011  0.00  0.00    +0.359 A 
ATOM     15  O4  UNL     1      13.304   4.174  19.457  0.00  0.00    -0.243 OA
ENDBRANCH   3   5
BRANCH   1  20
ATOM     16  C2  UNL     1      16.345  -0.386  20.404  0.00  0.00    +0.162 A 
ATOM     17  C3  UNL     1      16.579  -1.254  21.488  0.00  0.00    +0.049 A 
ATOM     18  C4  UNL     1      15.846  -1.123  22.666  0.00  0.00    +0.005 A 
ATOM     19  C5  UNL     1      14.866  -0.138  22.778  0.00  0.00    +0.017 A 
ATOM     20  C6  UNL     1      14.598   0.728  21.706  0.00  0.00    +0.082 A 
ATOM     21  C17 UNL     1      15.358   0.614  20.519  0.00  0.00    +0.171 A 
BRANCH  16  23
ATOM     22  C1  UNL     1      17.164  -1.659  18.410  0.00  0.00    +0.277 C 
ATOM     23  O1  UNL     1      17.074  -0.484  19.208  0.00  0.00    -0.491 OA
ENDBRANCH  16  23
BRANCH  21  24
ATOM     24  O5  UNL     1      15.146   1.510  19.469  0.00  0.00    -0.503 OA
ATOM     25  H13 UNL     1      15.887   1.804  18.845  0.00  0.00    +0.292 HD
ENDBRANCH  21  24
ENDBRANCH   1  20
TORSDOF 4
ENDMDL
MODEL 2
REMARK VINA RESULT:    -6.242      1.639      7.818
REMARK INTER + INTRA:          -8.400
REMARK INTER:                  -7.678
REMARK INTRA:                  -0.722
REMARK UNBOUND:                -0.881
REMARK  Name = /home/qwerty/github/datacon2025hack/step_04_hit_selection/docking/ligands/lig_435.pdb
REMARK  5 active torsions:
REMARK  status: ('A' for Active; 'I' for Inactive)
REMARK    1  A    between atoms: C1_1  and  O1_2
REMARK    2  A    between atoms: O1_2  and  C2_3
REMARK    3  A    between atoms: C6_7  and  C7_8
REMARK    4  A    between atoms: N1_10  and  C8_11
REMARK    5  A    between atoms: C17_22  and  O5_23
REMARK                            x       y       z     vdW  Elec       q    Type
REMARK                         _______ _______ _______ _____ _____    ______ ____
ROOT
ATOM      1  C7  UNL     1      11.187   3.510  22.084  0.00  0.00    +0.252 C 
ATOM      2  O2  UNL     1      12.034   4.179  22.737  0.00  0.00    -0.270 OA
ATOM      3  N1  UNL     1      11.631   2.509  21.155  0.00  0.00    -0.276 N 
ATOM      4  H7  UNL     1      11.013   2.292  20.341  0.00  0.00    +0.155 HD
ENDROOT
BRANCH   3   5
ATOM      5  C8  UNL     1      12.928   1.886  21.213  0.00  0.00    +0.120 A 
ATOM      6  C9  UNL     1      13.181   0.809  22.076  0.00  0.00    +0.042 A 
ATOM      7  C10 UNL     1      14.444   0.213  22.087  0.00  0.00    +0.019 A 
ATOM      8  C11 UNL     1      14.741  -0.861  22.940  0.00  0.00    +0.011 A 
ATOM      9  C12 UNL     1      16.018  -1.434  22.921  0.00  0.00    +0.001 A 
ATOM     10  C13 UNL     1      16.998  -0.938  22.054  0.00  0.00    +0.004 A 
ATOM     11  C14 UNL     1      16.706   0.130  21.200  0.00  0.00    +0.047 A 
ATOM     12  C15 UNL     1      15.432   0.709  21.212  0.00  0.00    +0.139 A 
ATOM     13  O3  UNL     1      15.156   1.720  20.395  0.00  0.00    -0.421 OA
ATOM     14  C16 UNL     1      13.963   2.311  20.359  0.00  0.00    +0.359 A 
ATOM     15  O4  UNL     1      13.776   3.264  19.557  0.00  0.00    -0.243 OA
ENDBRANCH   3   5
BRANCH   1  20
ATOM     16  C2  UNL     1       7.644   4.726  21.362  0.00  0.00    +0.162 A 
ATOM     17  C3  UNL     1       7.017   4.400  22.580  0.00  0.00    +0.049 A 
ATOM     18  C4  UNL     1       7.738   3.782  23.600  0.00  0.00    +0.005 A 
ATOM     19  C5  UNL     1       9.090   3.490  23.427  0.00  0.00    +0.017 A 
ATOM     20  C6  UNL     1       9.746   3.822  22.231  0.00  0.00    +0.082 A 
ATOM     21  C17 UNL     1       9.010   4.426  21.186  0.00  0.00    +0.171 A 
BRANCH  16  23
ATOM     22  C1  UNL     1       5.837   6.218  20.481  0.00  0.00    +0.277 C 
ATOM     23  O1  UNL     1       6.943   5.339  20.311  0.00  0.00    -0.491 OA
ENDBRANCH  16  23
BRANCH  21  24
ATOM     24  O5  UNL     1       9.634   4.703  19.967  0.00  0.00    -0.503 OA
ATOM     25  H13 UNL     1      10.041   5.606  19.755  0.00  0.00    +0.292 HD
ENDBRANCH  21  24
ENDBRANCH   1  20
TORSDOF 4
ENDMDL
MODEL 3
REMARK VINA RESULT:    -6.136      9.595     12.051
REMARK INTER + INTRA:          -8.273
REMARK INTER:                  -7.561
REMARK INTRA:                  -0.712
REMARK UNBOUND:                -0.881
REMARK  Name = /home/qwerty/github/datacon2025hack/step_04_hit_selection/docking/ligands/lig_435.pdb
REMARK  5 active torsions:
REMARK  status: ('A' for Active; 'I' for Inactive)
REMARK    1  A    between atoms: C1_1  and  O1_2
REMARK    2  A    between atoms: O1_2  and  C2_3
REMARK    3  A    between atoms: C6_7  and  C7_8
REMARK    4  A    between atoms: N1_10  and  C8_11
REMARK    5  A    between atoms: C17_22  and  O5_23
REMARK                            x       y       z     vdW  Elec       q    Type
REMARK                         _______ _______ _______ _____ _____    ______ ____
ROOT
ATOM      1  C7  UNL     1      21.560   3.817  26.355  0.00  0.00    +0.252 C 
ATOM      2  O2  UNL     1      21.781   4.677  27.251  0.00  0.00    -0.270 OA
ATOM      3  N1  UNL     1      21.497   2.424  26.701  0.00  0.00    -0.276 N 
ATOM      4  H7  UNL     1      21.755   1.728  25.966  0.00  0.00    +0.155 HD
ENDROOT
BRANCH   3   5
ATOM      5  C8  UNL     1      21.224   1.945  28.032  0.00  0.00    +0.120 A 
ATOM      6  C9  UNL     1      19.914   1.886  28.530  0.00  0.00    +0.042 A 
ATOM      7  C10 UNL     1      19.684   1.392  29.816  0.00  0.00    +0.019 A 
ATOM      8  C11 UNL     1      18.390   1.323  30.356  0.00  0.00    +0.011 A 
ATOM      9  C12 UNL     1      18.200   0.819  31.647  0.00  0.00    +0.001 A 
ATOM     10  C13 UNL     1      19.296   0.384  32.401  0.00  0.00    +0.004 A 
ATOM     11  C14 UNL     1      20.586   0.448  31.867  0.00  0.00    +0.047 A 
ATOM     12  C15 UNL     1      20.787   0.950  30.575  0.00  0.00    +0.139 A 
ATOM     13  O3  UNL     1      22.014   1.003  30.068  0.00  0.00    -0.421 OA
ATOM     14  C16 UNL     1      22.268   1.470  28.847  0.00  0.00    +0.359 A 
ATOM     15  O4  UNL     1      23.458   1.489  28.434  0.00  0.00    -0.243 OA
ENDBRANCH   3   5
BRANCH   1  20
ATOM     16  C2  UNL     1      22.101   5.698  23.080  0.00  0.00    +0.162 A 
ATOM     17  C3  UNL     1      21.165   5.041  22.260  0.00  0.00    +0.049 A 
ATOM     18  C4  UNL     1      20.393   3.996  22.766  0.00  0.00    +0.005 A 
ATOM     19  C5  UNL     1      20.534   3.601  24.096  0.00  0.00    +0.017 A 
ATOM     20  C6  UNL     1      21.445   4.253  24.943  0.00  0.00    +0.082 A 
ATOM     21  C17 UNL     1      22.246   5.295  24.423  0.00  0.00    +0.171 A 
BRANCH  16  23
ATOM     22  C1  UNL     1      23.300   6.898  21.239  0.00  0.00    +0.277 C 
ATOM     23  O1  UNL     1      22.901   6.746  22.597  0.00  0.00    -0.491 OA
ENDBRANCH  16  23
BRANCH  21  24
ATOM     24  O5  UNL     1      23.201   5.909  25.237  0.00  0.00    -0.503 OA
ATOM     25  H13 UNL     1      24.186   5.929  25.002  0.00  0.00    +0.292 HD
ENDBRANCH  21  24
ENDBRANCH   1  20
TORSDOF 4
ENDMDL
MODEL 4
REMARK VINA RESULT:    -6.034     17.579     20.050
REMARK INTER + INTRA:          -8.149
REMARK INTER:                  -7.476
REMARK INTRA:                  -0.673
REMARK UNBOUND:                -0.881
REMARK  Name = /home/qwerty/github/datacon2025hack/step_04_hit_selection/docking/ligands/lig_435.pdb
REMARK  5 active torsions:
REMARK  status: ('A' for Active; 'I' for Inactive)
REMARK    1  A    between atoms: C1_1  and  O1_2
REMARK    2  A    between atoms: O1_2  and  C2_3
REMARK    3  A    between atoms: C6_7  and  C7_8
REMARK    4  A    between atoms: N1_10  and  C8_11
REMARK    5  A    between atoms: C17_22  and  O5_23
REMARK                            x       y       z     vdW  Elec       q    Type
REMARK                         _______ _______ _______ _____ _____    ______ ____
ROOT
ATOM      1  C7  UNL     1      18.043  11.758  35.671  0.00  0.00    +0.252 C 
ATOM      2  O2  UNL     1      19.052  12.364  36.127  0.00  0.00    -0.270 OA
ATOM      3  N1  UNL     1      18.113  10.347  35.414  0.00  0.00    -0.276 N 
ATOM      4  H7  UNL     1      17.494   9.957  34.668  0.00  0.00    +0.155 HD
ENDROOT
BRANCH   3   5
ATOM      5  C8  UNL     1      19.075   9.470  36.031  0.00  0.00    +0.120 A 
ATOM      6  C9  UNL     1      20.293   9.169  35.405  0.00  0.00    +0.042 A 
ATOM      7  C10 UNL     1      21.214   8.336  36.045  0.00  0.00    +0.019 A 
ATOM      8  C11 UNL     1      22.440   8.003  35.450  0.00  0.00    +0.011 A 
ATOM      9  C12 UNL     1      23.337   7.167  36.124  0.00  0.00    +0.001 A 
ATOM     10  C13 UNL     1      23.014   6.663  37.389  0.00  0.00    +0.004 A 
ATOM     11  C14 UNL     1      21.795   6.994  37.987  0.00  0.00    +0.047 A 
ATOM     12  C15 UNL     1      20.891   7.830  37.321  0.00  0.00    +0.139 A 
ATOM     13  O3  UNL     1      19.735   8.148  37.895  0.00  0.00    -0.421 OA
ATOM     14  C16 UNL     1      18.836   8.938  37.312  0.00  0.00    +0.359 A 
ATOM     15  O4  UNL     1      17.762   9.195  37.918  0.00  0.00    -0.243 OA
ENDBRANCH   3   5
BRANCH   1  20
ATOM     16  C2  UNL     1      15.088  14.159  35.909  0.00  0.00    +0.162 A 
ATOM     17  C3  UNL     1      14.496  13.949  34.649  0.00  0.00    +0.049 A 
ATOM     18  C4  UNL     1      15.065  13.056  33.742  0.00  0.00    +0.005 A 
ATOM     19  C5  UNL     1      16.221  12.354  34.081  0.00  0.00    +0.017 A 
ATOM     20  C6  UNL     1      16.822  12.529  35.338  0.00  0.00    +0.082 A 
ATOM     21  C17 UNL     1      16.260  13.453  36.249  0.00  0.00    +0.171 A 
BRANCH  16  23
ATOM     22  C1  UNL     1      14.833  16.454  36.879  0.00  0.00    +0.277 C 
ATOM     23  O1  UNL     1      14.545  15.060  36.839  0.00  0.00    -0.491 OA
ENDBRANCH  16  23
BRANCH  21  24
ATOM     24  O5  UNL     1      16.883  13.685  37.477  0.00  0.00    -0.503 OA
ATOM     25  H13 UNL     1      16.685  13.132  38.302  0.00  0.00    +0.292 HD
ENDBRANCH  21  24
ENDBRANCH   1  20
TORSDOF 4
ENDMDL
MODEL 5
REMARK VINA RESULT:    -5.923      6.694      8.253
REMARK INTER + INTRA:          -8.016
REMARK INTER:                  -7.399
REMARK INTRA:                  -0.616
REMARK UNBOUND:                -0.881
REMARK  Name = /home/qwerty/github/datacon2025hack/step_04_hit_selection/docking/ligands/lig_435.pdb
REMARK  5 active torsions:
REMARK  status: ('A' for Active; 'I' for Inactive)
REMARK    1  A    between atoms: C1_1  and  O1_2
REMARK    2  A    between atoms: O1_2  and  C2_3
REMARK    3  A    between atoms: C6_7  and  C7_8
REMARK    4  A    between atoms: N1_10  and  C8_11
REMARK    5  A    between atoms: C17_22  and  O5_23
REMARK                            x       y       z     vdW  Elec       q    Type
REMARK                         _______ _______ _______ _____ _____    ______ ____
ROOT
ATOM      1  C7  UNL     1      16.585   6.093  20.267  0.00  0.00    +0.252 C 
ATOM      2  O2  UNL     1      17.031   6.471  21.385  0.00  0.00    -0.270 OA
ATOM      3  N1  UNL     1      16.697   6.956  19.125  0.00  0.00    -0.276 N 
ATOM      4  H7  UNL     1      15.982   6.859  18.369  0.00  0.00    +0.155 HD
ENDROOT
BRANCH   3   5
ATOM      5  C8  UNL     1      17.656   8.026  19.025  0.00  0.00    +0.120 A 
ATOM      6  C9  UNL     1      17.304   9.350  19.327  0.00  0.00    +0.042 A 
ATOM      7  C10 UNL     1      18.268  10.359  19.244  0.00  0.00    +0.019 A 
ATOM      8  C11 UNL     1      17.956  11.697  19.530  0.00  0.00    +0.011 A 
ATOM      9  C12 UNL     1      18.949  12.678  19.438  0.00  0.00    +0.001 A 
ATOM     10  C13 UNL     1      20.250  12.329  19.063  0.00  0.00    +0.004 A 
ATOM     11  C14 UNL     1      20.567  10.997  18.780  0.00  0.00    +0.047 A 
ATOM     12  C15 UNL     1      19.581  10.008  18.869  0.00  0.00    +0.139 A 
ATOM     13  O3  UNL     1      19.886   8.741  18.606  0.00  0.00    -0.421 OA
ATOM     14  C16 UNL     1      18.993   7.757  18.674  0.00  0.00    +0.359 A 
ATOM     15  O4  UNL     1      19.356   6.580  18.410  0.00  0.00    -0.243 OA
ENDBRANCH   3   5
BRANCH   1  20
ATOM     16  C2  UNL     1      13.832   3.459  20.067  0.00  0.00    +0.162 A 
ATOM     17  C3  UNL     1      14.613   2.291  19.992  0.00  0.00    +0.049 A 
ATOM     18  C4  UNL     1      16.005   2.371  19.988  0.00  0.00    +0.005 A 
ATOM     19  C5  UNL     1      16.636   3.611  20.071  0.00  0.00    +0.017 A 
ATOM     20  C6  UNL     1      15.882   4.792  20.168  0.00  0.00    +0.082 A 
ATOM     21  C17 UNL     1      14.471   4.714  20.146  0.00  0.00    +0.171 A 
BRANCH  16  23
ATOM     22  C1  UNL     1      11.632   2.903  21.126  0.00  0.00    +0.277 C 
ATOM     23  O1  UNL     1      12.429   3.412  20.062  0.00  0.00    -0.491 OA
ENDBRANCH  16  23
BRANCH  21  24
ATOM     24  O5  UNL     1      13.710   5.884  20.177  0.00  0.00    -0.503 OA
ATOM     25  H13 UNL     1      14.128   6.806  20.195  0.00  0.00    +0.292 HD
ENDBRANCH  21  24
ENDBRANCH   1  20
TORSDOF 4
ENDMDL
MODEL 6
REMARK VINA RESULT:    -5.916      1.271      2.110
REMARK INTER + INTRA:          -8.007
REMARK INTER:                  -7.349
REMARK INTRA:                  -0.658
REMARK UNBOUND:                -0.881
REMARK  Name = /home/qwerty/github/datacon2025hack/step_04_hit_selection/docking/ligands/lig_435.pdb
REMARK  5 active torsions:
REMARK  status: ('A' for Active; 'I' for Inactive)
REMARK    1  A    between atoms: C1_1  and  O1_2
REMARK    2  A    between atoms: O1_2  and  C2_3
REMARK    3  A    between atoms: C6_7  and  C7_8
REMARK    4  A    between atoms: N1_10  and  C8_11
REMARK    5  A    between atoms: C17_22  and  O5_23
REMARK                            x       y       z     vdW  Elec       q    Type
REMARK                         _______ _______ _______ _____ _____    ______ ____
ROOT
ATOM      1  C7  UNL     1      13.771   1.727  21.653  0.00  0.00    +0.252 C 
ATOM      2  O2  UNL     1      13.734   2.383  22.730  0.00  0.00    -0.270 OA
ATOM      3  N1  UNL     1      12.757   1.933  20.657  0.00  0.00    -0.276 N 
ATOM      4  H7  UNL     1      12.532   1.136  20.020  0.00  0.00    +0.155 HD
ENDROOT
BRANCH   3   5
ATOM      5  C8  UNL     1      11.950   3.124  20.573  0.00  0.00    +0.120 A 
ATOM      6  C9  UNL     1      10.663   3.171  21.128  0.00  0.00    +0.042 A 
ATOM      7  C10 UNL     1       9.919   4.351  21.051  0.00  0.00    +0.019 A 
ATOM      8  C11 UNL     1       8.624   4.439  21.586  0.00  0.00    +0.011 A 
ATOM      9  C12 UNL     1       7.912   5.639  21.491  0.00  0.00    +0.001 A 
ATOM     10  C13 UNL     1       8.486   6.751  20.866  0.00  0.00    +0.004 A 
ATOM     11  C14 UNL     1       9.777   6.670  20.334  0.00  0.00    +0.047 A 
ATOM     12  C15 UNL     1      10.498   5.473  20.424  0.00  0.00    +0.139 A 
ATOM     13  O3  UNL     1      11.727   5.401  19.923  0.00  0.00    -0.421 OA
ATOM     14  C16 UNL     1      12.462   4.292  19.979  0.00  0.00    +0.359 A 
ATOM     15  O4  UNL     1      13.619   4.299  19.482  0.00  0.00    -0.243 OA
ENDBRANCH   3   5
BRANCH   1  20
ATOM     16  C2  UNL     1      16.120  -1.216  22.261  0.00  0.00    +0.162 A 
ATOM     17  C3  UNL     1      16.835  -1.217  21.049  0.00  0.00    +0.049 A 
ATOM     18  C4  UNL     1      16.537  -0.287  20.053  0.00  0.00    +0.005 A 
ATOM     19  C5  UNL     1      15.536   0.661  20.257  0.00  0.00    +0.017 A 
ATOM     20  C6  UNL     1      14.821   0.698  21.464  0.00  0.00    +0.082 A 
ATOM     21  C17 UNL     1      15.104  -0.260  22.464  0.00  0.00    +0.171 A 
BRANCH  16  23
ATOM     22  C1  UNL     1      17.282  -1.923  24.364  0.00  0.00    +0.277 C 
ATOM     23  O1  UNL     1      16.389  -2.146  23.278  0.00  0.00    -0.491 OA
ENDBRANCH  16  23
BRANCH  21  24
ATOM     24  O5  UNL     1      14.357  -0.275  23.644  0.00  0.00    -0.503 OA
ATOM     25  H13 UNL     1      13.586  -0.914  23.794  0.00  0.00    +0.292 HD
ENDBRANCH  21  24
ENDBRANCH   1  20
TORSDOF 4
ENDMDL
MODEL 7
REMARK VINA RESULT:    -5.823     17.711     19.779
REMARK INTER + INTRA:          -7.895
REMARK INTER:                  -7.093
REMARK INTRA:                  -0.802
REMARK UNBOUND:                -0.881
REMARK  Name = /home/qwerty/github/datacon2025hack/step_04_hit_selection/docking/ligands/lig_435.pdb
REMARK  5 active torsions:
REMARK  status: ('A' for Active; 'I' for Inactive)
REMARK    1  A    between atoms: C1_1  and  O1_2
REMARK    2  A    between atoms: O1_2  and  C2_3
REMARK    3  A    between atoms: C6_7  and  C7_8
REMARK    4  A    between atoms: N1_10  and  C8_11
REMARK    5  A    between atoms: C17_22  and  O5_23
REMARK                            x       y       z     vdW  Elec       q    Type
REMARK                         _______ _______ _______ _____ _____    ______ ____
ROOT
ATOM      1  C7  UNL     1      17.419  10.522  36.184  0.00  0.00    +0.252 C 
ATOM      2  O2  UNL     1      17.115   9.396  35.705  0.00  0.00    -0.270 OA
ATOM      3  N1  UNL     1      18.771  10.784  36.591  0.00  0.00    -0.276 N 
ATOM      4  H7  UNL     1      18.924  11.485  37.351  0.00  0.00    +0.155 HD
ENDROOT
BRANCH   3   5
ATOM      5  C8  UNL     1      19.908  10.045  36.104  0.00  0.00    +0.120 A 
ATOM      6  C9  UNL     1      20.418   8.946  36.810  0.00  0.00    +0.042 A 
ATOM      7  C10 UNL     1      21.506   8.236  36.295  0.00  0.00    +0.019 A 
ATOM      8  C11 UNL     1      22.053   7.136  36.973  0.00  0.00    +0.011 A 
ATOM      9  C12 UNL     1      23.141   6.450  36.423  0.00  0.00    +0.001 A 
ATOM     10  C13 UNL     1      23.684   6.857  35.199  0.00  0.00    +0.004 A 
ATOM     11  C14 UNL     1      23.141   7.950  34.518  0.00  0.00    +0.047 A 
ATOM     12  C15 UNL     1      22.052   8.643  35.060  0.00  0.00    +0.139 A 
ATOM     13  O3  UNL     1      21.534   9.679  34.408  0.00  0.00    -0.421 OA
ATOM     14  C16 UNL     1      20.500  10.377  34.871  0.00  0.00    +0.359 A 
ATOM     15  O4  UNL     1      20.063  11.346  34.196  0.00  0.00    -0.243 OA
ENDBRANCH   3   5
BRANCH   1  20
ATOM     16  C2  UNL     1      15.556  13.847  36.353  0.00  0.00    +0.162 A 
ATOM     17  C3  UNL     1      14.302  13.405  36.817  0.00  0.00    +0.049 A 
ATOM     18  C4  UNL     1      14.073  12.050  37.048  0.00  0.00    +0.005 A 
ATOM     19  C5  UNL     1      15.090  11.120  36.834  0.00  0.00    +0.017 A 
ATOM     20  C6  UNL     1      16.356  11.535  36.391  0.00  0.00    +0.082 A 
ATOM     21  C17 UNL     1      16.582  12.906  36.131  0.00  0.00    +0.171 A 
BRANCH  16  23
ATOM     22  C1  UNL     1      15.048  16.284  36.621  0.00  0.00    +0.277 C 
ATOM     23  O1  UNL     1      15.814  15.204  36.099  0.00  0.00    -0.491 OA
ENDBRANCH  16  23
BRANCH  21  24
ATOM     24  O5  UNL     1      17.816  13.324  35.629  0.00  0.00    -0.503 OA
ATOM     25  H13 UNL     1      18.693  13.112  36.090  0.00  0.00    +0.292 HD
ENDBRANCH  21  24
ENDBRANCH   1  20
TORSDOF 4
ENDMDL
MODEL 8
REMARK VINA RESULT:    -5.821      1.425      7.774
REMARK INTER + INTRA:          -7.893
REMARK INTER:                  -7.163
REMARK INTRA:                  -0.730
REMARK UNBOUND:                -0.881
REMARK  Name = /home/qwerty/github/datacon2025hack/step_04_hit_selection/docking/ligands/lig_435.pdb
REMARK  5 active torsions:
REMARK  status: ('A' for Active; 'I' for Inactive)
REMARK    1  A    between atoms: C1_1  and  O1_2
REMARK    2  A    between atoms: O1_2  and  C2_3
REMARK    3  A    between atoms: C6_7  and  C7_8
REMARK    4  A    between atoms: N1_10  and  C8_11
REMARK    5  A    between atoms: C17_22  and  O5_23
REMARK                            x       y       z     vdW  Elec       q    Type
REMARK                         _______ _______ _______ _____ _____    ______ ____
ROOT
ATOM      1  C7  UNL     1      12.817   3.249  21.292  0.00  0.00    +0.252 C 
ATOM      2  O2  UNL     1      13.855   3.847  21.686  0.00  0.00    -0.270 OA
ATOM      3  N1  UNL     1      12.884   1.857  20.942  0.00  0.00    -0.276 N 
ATOM      4  H7  UNL     1      12.202   1.500  20.236  0.00  0.00    +0.155 HD
ENDROOT
BRANCH   3   5
ATOM      5  C8  UNL     1      13.914   0.966  21.410  0.00  0.00    +0.120 A 
ATOM      6  C9  UNL     1      13.782   0.275  22.624  0.00  0.00    +0.042 A 
ATOM      7  C10 UNL     1      14.789  -0.602  23.035  0.00  0.00    +0.019 A 
ATOM      8  C11 UNL     1      14.700  -1.307  24.245  0.00  0.00    +0.011 A 
ATOM      9  C12 UNL     1      15.729  -2.177  24.621  0.00  0.00    +0.001 A 
ATOM     10  C13 UNL     1      16.845  -2.346  23.794  0.00  0.00    +0.004 A 
ATOM     11  C14 UNL     1      16.937  -1.649  22.587  0.00  0.00    +0.047 A 
ATOM     12  C15 UNL     1      15.913  -0.776  22.201  0.00  0.00    +0.139 A 
ATOM     13  O3  UNL     1      16.000  -0.118  21.049  0.00  0.00    -0.421 OA
ATOM     14  C16 UNL     1      15.059   0.724  20.629  0.00  0.00    +0.359 A 
ATOM     15  O4  UNL     1      15.212   1.311  19.525  0.00  0.00    -0.243 OA
ENDBRANCH   3   5
BRANCH   1  20
ATOM     16  C2  UNL     1      10.342   6.033  20.473  0.00  0.00    +0.162 A 
ATOM     17  C3  UNL     1       9.136   5.410  20.845  0.00  0.00    +0.049 A 
ATOM     18  C4  UNL     1       9.138   4.105  21.333  0.00  0.00    +0.005 A 
ATOM     19  C5  UNL     1      10.338   3.408  21.469  0.00  0.00    +0.017 A 
ATOM     20  C6  UNL     1      11.558   4.012  21.124  0.00  0.00    +0.082 A 
ATOM     21  C17 UNL     1      11.554   5.327  20.605  0.00  0.00    +0.171 A 
BRANCH  16  23
ATOM     22  C1  UNL     1      10.159   8.516  20.746  0.00  0.00    +0.277 C 
ATOM     23  O1  UNL     1      10.372   7.343  19.967  0.00  0.00    -0.491 OA
ENDBRANCH  16  23
BRANCH  21  24
ATOM     24  O5  UNL     1      12.754   5.916  20.198  0.00  0.00    -0.503 OA
ATOM     25  H13 UNL     1      13.383   5.475  19.538  0.00  0.00    +0.292 HD
ENDBRANCH  21  24
ENDBRANCH   1  20
TORSDOF 4
ENDMDL
MODEL 9
REMARK VINA RESULT:    -5.787      2.141      7.925
REMARK INTER + INTRA:          -7.852
REMARK INTER:                  -7.148
REMARK INTRA:                  -0.704
REMARK UNBOUND:                -0.881
REMARK  Name = /home/qwerty/github/datacon2025hack/step_04_hit_selection/docking/ligands/lig_435.pdb
REMARK  5 active torsions:
REMARK  status: ('A' for Active; 'I' for Inactive)
REMARK    1  A    between atoms: C1_1  and  O1_2
REMARK    2  A    between atoms: O1_2  and  C2_3
REMARK    3  A    between atoms: C6_7  and  C7_8
REMARK    4  A    between atoms: N1_10  and  C8_11
REMARK    5  A    between atoms: C17_22  and  O5_23
REMARK                            x       y       z     vdW  Elec       q    Type
REMARK                         _______ _______ _______ _____ _____    ______ ____
ROOT
ATOM      1  C7  UNL     1      10.495   1.789  22.695  0.00  0.00    +0.252 C 
ATOM      2  O2  UNL     1      10.169   0.585  22.507  0.00  0.00    -0.270 OA
ATOM      3  N1  UNL     1      11.854   2.117  23.027  0.00  0.00    -0.276 N 
ATOM      4  H7  UNL     1      12.022   2.981  23.590  0.00  0.00    +0.155 HD
ENDROOT
BRANCH   3   5
ATOM      5  C8  UNL     1      12.974   1.260  22.738  0.00  0.00    +0.120 A 
ATOM      6  C9  UNL     1      13.674   1.360  21.527  0.00  0.00    +0.042 A 
ATOM      7  C10 UNL     1      14.773   0.529  21.292  0.00  0.00    +0.019 A 
ATOM      8  C11 UNL     1      15.496   0.591  20.091  0.00  0.00    +0.011 A 
ATOM      9  C12 UNL     1      16.592  -0.256  19.893  0.00  0.00    +0.001 A 
ATOM     10  C13 UNL     1      16.968  -1.164  20.889  0.00  0.00    +0.004 A 
ATOM     11  C14 UNL     1      16.253  -1.228  22.088  0.00  0.00    +0.047 A 
ATOM     12  C15 UNL     1      15.155  -0.384  22.296  0.00  0.00    +0.139 A 
ATOM     13  O3  UNL     1      14.480  -0.443  23.439  0.00  0.00    -0.421 OA
ATOM     14  C16 UNL     1      13.429   0.333  23.695  0.00  0.00    +0.359 A 
ATOM     15  O4  UNL     1      12.840   0.221  24.803  0.00  0.00    -0.243 OA
ENDBRANCH   3   5
BRANCH   1  20
ATOM     16  C2  UNL     1       8.425   4.798  21.594  0.00  0.00    +0.162 A 
ATOM     17  C3  UNL     1       7.456   4.819  22.614  0.00  0.00    +0.049 A 
ATOM     18  C4  UNL     1       7.474   3.858  23.624  0.00  0.00    +0.005 A 
ATOM     19  C5  UNL     1       8.461   2.874  23.638  0.00  0.00    +0.017 A 
ATOM     20  C6  UNL     1       9.452   2.841  22.644  0.00  0.00    +0.082 A 
ATOM     21  C17 UNL     1       9.420   3.800  21.605  0.00  0.00    +0.171 A 
BRANCH  16  23
ATOM     22  C1  UNL     1       9.075   7.012  20.619  0.00  0.00    +0.277 C 
ATOM     23  O1  UNL     1       8.427   5.745  20.557  0.00  0.00    -0.491 OA
ENDBRANCH  16  23
BRANCH  21  24
ATOM     24  O5  UNL     1      10.362   3.740  20.575  0.00  0.00    -0.503 OA
ATOM     25  H13 UNL     1      10.545   4.522  19.958  0.00  0.00    +0.292 HD
ENDBRANCH  21  24
ENDBRANCH   1  20
TORSDOF 4
ENDMDL
