MODEL 1
REMARK VINA RESULT:    -7.232      0.000      0.000
REMARK INTER + INTRA:         -10.258
REMARK INTER:                  -9.346
REMARK INTRA:                  -0.913
REMARK UNBOUND:                -0.913
REMARK  Name = /home/qwerty/github/datacon2025hack/step_04_hit_selection/docking/ligands/lig_346.pdb
REMARK  10 active torsions:
REMARK  status: ('A' for Active; 'I' for Inactive)
REMARK    1  A    between atoms: C1_1  and  C2_2
REMARK    2  A    between atoms: C4_5  and  C5_7
REMARK    3  A    between atoms: C9_11  and  C10_12
REMARK    4  A    between atoms: N2_14  and  C11_15
REMARK    5  A    between atoms: C19_23  and  C20_24
REMARK    6  A    between atoms: C21_26  and  O4_28
REMARK    7  A    between atoms: O4_28  and  C22_29
REMARK    8  A    between atoms: C22_29  and  C23_30
REMARK    9  A    between atoms: C22_29  and  C24_31
REMARK   10  A    between atoms: C22_29  and  C25_32
REMARK                            x       y       z     vdW  Elec       q    Type
REMARK                         _______ _______ _______ _____ _____    ______ ____
ROOT
ATOM      1  C1  UNL     1      11.831   9.604  25.513  0.00  0.00    +0.030 C 
ATOM      2  C2  UNL     1      10.570  10.459  25.720  0.00  0.00    +0.094 C 
ATOM      3  C3  UNL     1      10.798  11.412  26.911  0.00  0.00    +0.130 C 
ATOM      4  N1  UNL     1       9.544  12.001  27.389  0.00  0.00    -0.294 N 
ATOM      5  C4  UNL     1       9.535  13.346  27.906  0.00  0.00    +0.247 C 
ATOM      6  O1  UNL     1       8.636  14.145  27.529  0.00  0.00    -0.270 OA
ATOM      7  C18 UNL     1       8.286  11.248  27.389  0.00  0.00    +0.130 C 
ATOM      8  C19 UNL     1       8.489   9.758  27.065  0.00  0.00    +0.094 C 
ATOM      9  C20 UNL     1       9.000   8.953  28.266  0.00  0.00    +0.030 C 
ATOM     10  N3  UNL     1       9.381   9.597  25.905  0.00  0.00    -0.259 N 
ATOM     11  C21 UNL     1       9.020   8.660  24.873  0.00  0.00    +0.404 C 
ATOM     12  O3  UNL     1       8.316   7.653  25.161  0.00  0.00    -0.226 OA
ENDROOT
BRANCH   5  13
ATOM     13  C5  UNL     1      10.569  13.808  28.859  0.00  0.00    +0.038 A 
ATOM     14  C6  UNL     1      11.658  14.575  28.413  0.00  0.00    +0.013 A 
ATOM     15  C7  UNL     1      12.626  15.017  29.315  0.00  0.00    +0.001 A 
ATOM     16  C8  UNL     1      12.530  14.685  30.667  0.00  0.00    +0.013 A 
ATOM     17  C9  UNL     1      11.470  13.888  31.132  0.00  0.00    +0.038 A 
ATOM     18  C17 UNL     1      10.488  13.457  30.219  0.00  0.00    +0.026 A 
BRANCH  17  19
ATOM     19  C10 UNL     1      11.394  13.541  32.570  0.00  0.00    +0.248 C 
ATOM     20  O2  UNL     1      10.913  14.384  33.376  0.00  0.00    -0.270 OA
ATOM     21  N2  UNL     1      11.849  12.264  33.056  0.00  0.00    -0.282 N 
ATOM     22  H10 UNL     1      12.062  11.506  32.373  0.00  0.00    +0.155 HD
BRANCH  21  23
ATOM     23  C11 UNL     1      11.984  11.940  34.451  0.00  0.00    +0.034 A 
ATOM     24  C12 UNL     1      11.163  10.948  35.009  0.00  0.00    +0.023 A 
ATOM     25  C13 UNL     1      11.296  10.594  36.356  0.00  0.00    +0.002 A 
ATOM     26  C14 UNL     1      12.262  11.216  37.151  0.00  0.00    +0.000 A 
ATOM     27  C15 UNL     1      13.101  12.188  36.599  0.00  0.00    +0.002 A 
ATOM     28  C16 UNL     1      12.969  12.548  35.253  0.00  0.00    +0.023 A 
ENDBRANCH  21  23
ENDBRANCH  17  19
ENDBRANCH   5  13
BRANCH  11  29
ATOM     29  O4  UNL     1       9.451   8.879  23.554  0.00  0.00    -0.445 OA
BRANCH  29  30
ATOM     30  C22 UNL     1       8.667   9.427  22.483  0.00  0.00    +0.107 C 
ATOM     31  C23 UNL     1       7.598  10.397  23.022  0.00  0.00    +0.055 C 
ATOM     32  C24 UNL     1       8.013   8.298  21.665  0.00  0.00    +0.055 C 
ATOM     33  C25 UNL     1       9.626  10.210  21.574  0.00  0.00    +0.055 C 
ENDBRANCH  29  30
ENDBRANCH  11  29
TORSDOF 5
ENDMDL
MODEL 2
REMARK VINA RESULT:    -7.057      1.948     10.105
REMARK INTER + INTRA:         -10.032
REMARK INTER:                  -9.090
REMARK INTRA:                  -0.942
REMARK UNBOUND:                -0.913
REMARK  Name = /home/qwerty/github/datacon2025hack/step_04_hit_selection/docking/ligands/lig_346.pdb
REMARK  10 active torsions:
REMARK  status: ('A' for Active; 'I' for Inactive)
REMARK    1  A    between atoms: C1_1  and  C2_2
REMARK    2  A    between atoms: C4_5  and  C5_7
REMARK    3  A    between atoms: C9_11  and  C10_12
REMARK    4  A    between atoms: N2_14  and  C11_15
REMARK    5  A    between atoms: C19_23  and  C20_24
REMARK    6  A    between atoms: C21_26  and  O4_28
REMARK    7  A    between atoms: O4_28  and  C22_29
REMARK    8  A    between atoms: C22_29  and  C23_30
REMARK    9  A    between atoms: C22_29  and  C24_31
REMARK   10  A    between atoms: C22_29  and  C25_32
REMARK                            x       y       z     vdW  Elec       q    Type
REMARK                         _______ _______ _______ _____ _____    ______ ____
ROOT
ATOM      1  C1  UNL     1      12.168  10.073  31.977  0.00  0.00    +0.030 C 
ATOM      2  C2  UNL     1      11.219  11.249  31.695  0.00  0.00    +0.094 C 
ATOM      3  C3  UNL     1      10.331  10.900  30.482  0.00  0.00    +0.130 C 
ATOM      4  N1  UNL     1       9.656  12.083  29.940  0.00  0.00    -0.294 N 
ATOM      5  C4  UNL     1       8.335  11.959  29.379  0.00  0.00    +0.247 C 
ATOM      6  O1  UNL     1       7.451  12.799  29.696  0.00  0.00    -0.270 OA
ATOM      7  C18 UNL     1      10.301  13.399  29.918  0.00  0.00    +0.130 C 
ATOM      8  C19 UNL     1      11.789  13.335  30.298  0.00  0.00    +0.094 C 
ATOM      9  C20 UNL     1      12.677  12.855  29.144  0.00  0.00    +0.030 C 
ATOM     10  N3  UNL     1      11.983  12.500  31.495  0.00  0.00    -0.259 N 
ATOM     11  C21 UNL     1      12.849  12.974  32.544  0.00  0.00    +0.404 C 
ATOM     12  O3  UNL     1      13.803  13.752  32.263  0.00  0.00    -0.226 OA
ENDROOT
BRANCH   5  13
ATOM     13  C5  UNL     1       7.996  10.858  28.449  0.00  0.00    +0.038 A 
ATOM     14  C6  UNL     1       7.355   9.700  28.920  0.00  0.00    +0.013 A 
ATOM     15  C7  UNL     1       7.028   8.668  28.041  0.00  0.00    +0.001 A 
ATOM     16  C8  UNL     1       7.353   8.769  26.687  0.00  0.00    +0.013 A 
ATOM     17  C9  UNL     1       8.026   9.902  26.198  0.00  0.00    +0.038 A 
ATOM     18  C17 UNL     1       8.341  10.946  27.089  0.00  0.00    +0.026 A 
BRANCH  17  19
ATOM     19  C10 UNL     1       8.369   9.982  24.759  0.00  0.00    +0.248 C 
ATOM     20  O2  UNL     1       7.537  10.500  23.964  0.00  0.00    -0.270 OA
ATOM     21  N2  UNL     1       9.628   9.493  24.262  0.00  0.00    -0.282 N 
ATOM     22  H10 UNL     1      10.382   9.248  24.938  0.00  0.00    +0.155 HD
BRANCH  21  23
ATOM     23  C11 UNL     1       9.940   9.364  22.863  0.00  0.00    +0.034 A 
ATOM     24  C12 UNL     1      10.801  10.295  22.262  0.00  0.00    +0.023 A 
ATOM     25  C13 UNL     1      11.143  10.173  20.911  0.00  0.00    +0.002 A 
ATOM     26  C14 UNL     1      10.644   9.110  20.155  0.00  0.00    +0.000 A 
ATOM     27  C15 UNL     1       9.806   8.163  20.751  0.00  0.00    +0.002 A 
ATOM     28  C16 UNL     1       9.457   8.283  22.100  0.00  0.00    +0.023 A 
ENDBRANCH  21  23
ENDBRANCH  17  19
ENDBRANCH   5  13
BRANCH  11  29
ATOM     29  O4  UNL     1      12.619  12.572  33.870  0.00  0.00    -0.445 OA
BRANCH  29  30
ATOM     30  C22 UNL     1      11.933  13.324  34.881  0.00  0.00    +0.107 C 
ATOM     31  C23 UNL     1      10.853  14.229  34.258  0.00  0.00    +0.055 C 
ATOM     32  C24 UNL     1      12.936  14.160  35.699  0.00  0.00    +0.055 C 
ATOM     33  C25 UNL     1      11.250  12.314  35.813  0.00  0.00    +0.055 C 
ENDBRANCH  29  30
ENDBRANCH  11  29
TORSDOF 5
ENDMDL
MODEL 3
REMARK VINA RESULT:    -6.929     12.394     14.073
REMARK INTER + INTRA:          -9.867
REMARK INTER:                  -9.215
REMARK INTRA:                  -0.653
REMARK UNBOUND:                -0.913
REMARK  Name = /home/qwerty/github/datacon2025hack/step_04_hit_selection/docking/ligands/lig_346.pdb
REMARK  10 active torsions:
REMARK  status: ('A' for Active; 'I' for Inactive)
REMARK    1  A    between atoms: C1_1  and  C2_2
REMARK    2  A    between atoms: C4_5  and  C5_7
REMARK    3  A    between atoms: C9_11  and  C10_12
REMARK    4  A    between atoms: N2_14  and  C11_15
REMARK    5  A    between atoms: C19_23  and  C20_24
REMARK    6  A    between atoms: C21_26  and  O4_28
REMARK    7  A    between atoms: O4_28  and  C22_29
REMARK    8  A    between atoms: C22_29  and  C23_30
REMARK    9  A    between atoms: C22_29  and  C24_31
REMARK   10  A    between atoms: C22_29  and  C25_32
REMARK                            x       y       z     vdW  Elec       q    Type
REMARK                         _______ _______ _______ _____ _____    ______ ____
ROOT
ATOM      1  C1  UNL     1      18.233   3.776  27.104  0.00  0.00    +0.030 C 
ATOM      2  C2  UNL     1      19.133   2.555  27.356  0.00  0.00    +0.094 C 
ATOM      3  C3  UNL     1      19.772   2.681  28.754  0.00  0.00    +0.130 C 
ATOM      4  N1  UNL     1      20.896   1.756  28.928  0.00  0.00    -0.294 N 
ATOM      5  C4  UNL     1      21.151   1.172  30.220  0.00  0.00    +0.247 C 
ATOM      6  O1  UNL     1      21.383  -0.064  30.303  0.00  0.00    -0.270 OA
ATOM      7  C18 UNL     1      21.803   1.425  27.825  0.00  0.00    +0.130 C 
ATOM      8  C19 UNL     1      21.579   2.313  26.589  0.00  0.00    +0.094 C 
ATOM      9  C20 UNL     1      22.217   3.700  26.730  0.00  0.00    +0.030 C 
ATOM     10  N3  UNL     1      20.143   2.422  26.283  0.00  0.00    -0.259 N 
ATOM     11  C21 UNL     1      19.709   2.278  24.917  0.00  0.00    +0.404 C 
ATOM     12  O3  UNL     1      20.490   2.589  23.976  0.00  0.00    -0.226 OA
ENDROOT
BRANCH   5  13
ATOM     13  C5  UNL     1      21.130   1.994  31.452  0.00  0.00    +0.038 A 
ATOM     14  C6  UNL     1      20.659   1.455  32.660  0.00  0.00    +0.013 A 
ATOM     15  C7  UNL     1      20.650   2.228  33.821  0.00  0.00    +0.001 A 
ATOM     16  C8  UNL     1      21.091   3.552  33.786  0.00  0.00    +0.013 A 
ATOM     17  C9  UNL     1      21.532   4.126  32.581  0.00  0.00    +0.038 A 
ATOM     18  C17 UNL     1      21.553   3.335  31.417  0.00  0.00    +0.026 A 
BRANCH  17  19
ATOM     19  C10 UNL     1      21.986   5.536  32.567  0.00  0.00    +0.248 C 
ATOM     20  O2  UNL     1      21.158   6.445  32.850  0.00  0.00    -0.270 OA
ATOM     21  N2  UNL     1      23.348   5.880  32.249  0.00  0.00    -0.282 N 
ATOM     22  H10 UNL     1      24.067   5.127  32.208  0.00  0.00    +0.155 HD
BRANCH  21  23
ATOM     23  C11 UNL     1      23.802   7.227  32.029  0.00  0.00    +0.034 A 
ATOM     24  C12 UNL     1      23.234   7.983  30.992  0.00  0.00    +0.023 A 
ATOM     25  C13 UNL     1      23.637   9.306  30.778  0.00  0.00    +0.002 A 
ATOM     26  C14 UNL     1      24.596   9.889  31.610  0.00  0.00    +0.000 A 
ATOM     27  C15 UNL     1      25.149   9.152  32.660  0.00  0.00    +0.002 A 
ATOM     28  C16 UNL     1      24.753   7.828  32.876  0.00  0.00    +0.023 A 
ENDBRANCH  21  23
ENDBRANCH  17  19
ENDBRANCH   5  13
BRANCH  11  29
ATOM     29  O4  UNL     1      18.421   1.787  24.646  0.00  0.00    -0.445 OA
BRANCH  29  30
ATOM     30  C22 UNL     1      18.006   0.414  24.693  0.00  0.00    +0.107 C 
ATOM     31  C23 UNL     1      16.807   0.231  25.643  0.00  0.00    +0.055 C 
ATOM     32  C24 UNL     1      19.180  -0.486  25.121  0.00  0.00    +0.055 C 
ATOM     33  C25 UNL     1      17.571   0.023  23.272  0.00  0.00    +0.055 C 
ENDBRANCH  29  30
ENDBRANCH  11  29
TORSDOF 5
ENDMDL
MODEL 4
REMARK VINA RESULT:    -6.882     11.287     13.562
REMARK INTER + INTRA:          -9.806
REMARK INTER:                  -9.014
REMARK INTRA:                  -0.792
REMARK UNBOUND:                -0.913
REMARK  Name = /home/qwerty/github/datacon2025hack/step_04_hit_selection/docking/ligands/lig_346.pdb
REMARK  10 active torsions:
REMARK  status: ('A' for Active; 'I' for Inactive)
REMARK    1  A    between atoms: C1_1  and  C2_2
REMARK    2  A    between atoms: C4_5  and  C5_7
REMARK    3  A    between atoms: C9_11  and  C10_12
REMARK    4  A    between atoms: N2_14  and  C11_15
REMARK    5  A    between atoms: C19_23  and  C20_24
REMARK    6  A    between atoms: C21_26  and  O4_28
REMARK    7  A    between atoms: O4_28  and  C22_29
REMARK    8  A    between atoms: C22_29  and  C23_30
REMARK    9  A    between atoms: C22_29  and  C24_31
REMARK   10  A    between atoms: C22_29  and  C25_32
REMARK                            x       y       z     vdW  Elec       q    Type
REMARK                         _______ _______ _______ _____ _____    ______ ____
ROOT
ATOM      1  C1  UNL     1      20.656   1.417  33.044  0.00  0.00    +0.030 C 
ATOM      2  C2  UNL     1      21.382   2.577  32.342  0.00  0.00    +0.094 C 
ATOM      3  C3  UNL     1      21.513   3.758  33.326  0.00  0.00    +0.130 C 
ATOM      4  N1  UNL     1      21.870   5.004  32.640  0.00  0.00    -0.294 N 
ATOM      5  C4  UNL     1      22.715   5.967  33.298  0.00  0.00    +0.247 C 
ATOM      6  O1  UNL     1      23.673   6.481  32.662  0.00  0.00    -0.270 OA
ATOM      7  C18 UNL     1      21.362   5.323  31.303  0.00  0.00    +0.130 C 
ATOM      8  C19 UNL     1      20.271   4.345  30.835  0.00  0.00    +0.094 C 
ATOM      9  C20 UNL     1      18.900   4.643  31.453  0.00  0.00    +0.030 C 
ATOM     10  N3  UNL     1      20.677   2.954  31.096  0.00  0.00    -0.259 N 
ATOM     11  C21 UNL     1      20.486   1.966  30.066  0.00  0.00    +0.404 C 
ATOM     12  O3  UNL     1      19.557   2.112  29.224  0.00  0.00    -0.226 OA
ENDROOT
BRANCH   5  13
ATOM     13  C5  UNL     1      22.486   6.352  34.710  0.00  0.00    +0.038 A 
ATOM     14  C6  UNL     1      23.485   6.146  35.675  0.00  0.00    +0.013 A 
ATOM     15  C7  UNL     1      23.271   6.518  37.002  0.00  0.00    +0.001 A 
ATOM     16  C8  UNL     1      22.052   7.081  37.386  0.00  0.00    +0.013 A 
ATOM     17  C9  UNL     1      21.024   7.263  36.445  0.00  0.00    +0.038 A 
ATOM     18  C17 UNL     1      21.252   6.899  35.105  0.00  0.00    +0.026 A 
BRANCH  17  19
ATOM     19  C10 UNL     1      19.736   7.854  36.878  0.00  0.00    +0.248 C 
ATOM     20  O2  UNL     1      19.145   7.359  37.878  0.00  0.00    -0.270 OA
ATOM     21  N2  UNL     1      19.160   8.979  36.188  0.00  0.00    -0.282 N 
ATOM     22  H10 UNL     1      19.736   9.501  35.495  0.00  0.00    +0.155 HD
BRANCH  21  23
ATOM     23  C11 UNL     1      17.831   9.472  36.434  0.00  0.00    +0.034 A 
ATOM     24  C12 UNL     1      17.655  10.599  37.252  0.00  0.00    +0.023 A 
ATOM     25  C13 UNL     1      16.376  11.115  37.481  0.00  0.00    +0.002 A 
ATOM     26  C14 UNL     1      15.263  10.522  36.879  0.00  0.00    +0.000 A 
ATOM     27  C15 UNL     1      15.430   9.415  36.042  0.00  0.00    +0.002 A 
ATOM     28  C16 UNL     1      16.707   8.892  35.814  0.00  0.00    +0.023 A 
ENDBRANCH  21  23
ENDBRANCH  17  19
ENDBRANCH   5  13
BRANCH  11  29
ATOM     29  O4  UNL     1      21.340   0.852  30.004  0.00  0.00    -0.445 OA
BRANCH  29  30
ATOM     30  C22 UNL     1      22.401   0.645  29.060  0.00  0.00    +0.107 C 
ATOM     31  C23 UNL     1      22.143   1.429  27.759  0.00  0.00    +0.055 C 
ATOM     32  C24 UNL     1      22.569  -0.857  28.765  0.00  0.00    +0.055 C 
ATOM     33  C25 UNL     1      23.691   1.174  29.705  0.00  0.00    +0.055 C 
ENDBRANCH  29  30
ENDBRANCH  11  29
TORSDOF 5
ENDMDL
MODEL 5
REMARK VINA RESULT:    -6.786     12.552     16.558
REMARK INTER + INTRA:          -9.682
REMARK INTER:                  -8.998
REMARK INTRA:                  -0.684
REMARK UNBOUND:                -0.913
REMARK  Name = /home/qwerty/github/datacon2025hack/step_04_hit_selection/docking/ligands/lig_346.pdb
REMARK  10 active torsions:
REMARK  status: ('A' for Active; 'I' for Inactive)
REMARK    1  A    between atoms: C1_1  and  C2_2
REMARK    2  A    between atoms: C4_5  and  C5_7
REMARK    3  A    between atoms: C9_11  and  C10_12
REMARK    4  A    between atoms: N2_14  and  C11_15
REMARK    5  A    between atoms: C19_23  and  C20_24
REMARK    6  A    between atoms: C21_26  and  O4_28
REMARK    7  A    between atoms: O4_28  and  C22_29
REMARK    8  A    between atoms: C22_29  and  C23_30
REMARK    9  A    between atoms: C22_29  and  C24_31
REMARK   10  A    between atoms: C22_29  and  C25_32
REMARK                            x       y       z     vdW  Elec       q    Type
REMARK                         _______ _______ _______ _____ _____    ______ ____
ROOT
ATOM      1  C1  UNL     1      20.956   5.920  30.840  0.00  0.00    +0.030 C 
ATOM      2  C2  UNL     1      21.733   4.594  30.851  0.00  0.00    +0.094 C 
ATOM      3  C3  UNL     1      21.477   3.850  29.524  0.00  0.00    +0.130 C 
ATOM      4  N1  UNL     1      21.889   2.444  29.595  0.00  0.00    -0.294 N 
ATOM      5  C4  UNL     1      22.426   1.795  28.427  0.00  0.00    +0.247 C 
ATOM      6  O1  UNL     1      23.470   1.097  28.536  0.00  0.00    -0.270 OA
ATOM      7  C18 UNL     1      21.741   1.657  30.823  0.00  0.00    +0.130 C 
ATOM      8  C19 UNL     1      20.919   2.387  31.898  0.00  0.00    +0.094 C 
ATOM      9  C20 UNL     1      19.409   2.316  31.642  0.00  0.00    +0.030 C 
ATOM     10  N3  UNL     1      21.366   3.783  32.033  0.00  0.00    -0.259 N 
ATOM     11  C21 UNL     1      21.560   4.329  33.352  0.00  0.00    +0.404 C 
ATOM     12  O3  UNL     1      20.889   3.878  34.321  0.00  0.00    -0.226 OA
ENDROOT
BRANCH   5  13
ATOM     13  C5  UNL     1      21.783   1.943  27.102  0.00  0.00    +0.038 A 
ATOM     14  C6  UNL     1      22.238   2.913  26.194  0.00  0.00    +0.013 A 
ATOM     15  C7  UNL     1      21.636   3.046  24.943  0.00  0.00    +0.001 A 
ATOM     16  C8  UNL     1      20.563   2.226  24.590  0.00  0.00    +0.013 A 
ATOM     17  C9  UNL     1      20.067   1.272  25.495  0.00  0.00    +0.038 A 
ATOM     18  C17 UNL     1      20.688   1.134  26.751  0.00  0.00    +0.026 A 
BRANCH  17  19
ATOM     19  C10 UNL     1      18.921   0.419  25.101  0.00  0.00    +0.248 C 
ATOM     20  O2  UNL     1      18.515   0.460  23.906  0.00  0.00    -0.270 OA
ATOM     21  N2  UNL     1      18.276  -0.453  26.048  0.00  0.00    -0.282 N 
ATOM     22  H10 UNL     1      18.730  -0.627  26.970  0.00  0.00    +0.155 HD
BRANCH  21  23
ATOM     23  C11 UNL     1      17.048  -1.153  25.784  0.00  0.00    +0.034 A 
ATOM     24  C12 UNL     1      15.840  -0.630  26.269  0.00  0.00    +0.023 A 
ATOM     25  C13 UNL     1      14.629  -1.277  25.998  0.00  0.00    +0.002 A 
ATOM     26  C14 UNL     1      14.614  -2.441  25.226  0.00  0.00    +0.000 A 
ATOM     27  C15 UNL     1      15.810  -2.956  24.717  0.00  0.00    +0.002 A 
ATOM     28  C16 UNL     1      17.023  -2.316  24.989  0.00  0.00    +0.023 A 
ENDBRANCH  21  23
ENDBRANCH  17  19
ENDBRANCH   5  13
BRANCH  11  29
ATOM     29  O4  UNL     1      22.499   5.356  33.547  0.00  0.00    -0.445 OA
BRANCH  29  30
ATOM     30  C22 UNL     1      22.316   6.537  34.342  0.00  0.00    +0.107 C 
ATOM     31  C23 UNL     1      22.885   6.341  35.761  0.00  0.00    +0.055 C 
ATOM     32  C24 UNL     1      20.824   6.915  34.403  0.00  0.00    +0.055 C 
ATOM     33  C25 UNL     1      23.090   7.671  33.654  0.00  0.00    +0.055 C 
ENDBRANCH  29  30
ENDBRANCH  11  29
TORSDOF 5
ENDMDL
MODEL 6
REMARK VINA RESULT:    -6.535      4.835     11.429
REMARK INTER + INTRA:          -9.358
REMARK INTER:                  -8.640
REMARK INTRA:                  -0.718
REMARK UNBOUND:                -0.913
REMARK  Name = /home/qwerty/github/datacon2025hack/step_04_hit_selection/docking/ligands/lig_346.pdb
REMARK  10 active torsions:
REMARK  status: ('A' for Active; 'I' for Inactive)
REMARK    1  A    between atoms: C1_1  and  C2_2
REMARK    2  A    between atoms: C4_5  and  C5_7
REMARK    3  A    between atoms: C9_11  and  C10_12
REMARK    4  A    between atoms: N2_14  and  C11_15
REMARK    5  A    between atoms: C19_23  and  C20_24
REMARK    6  A    between atoms: C21_26  and  O4_28
REMARK    7  A    between atoms: O4_28  and  C22_29
REMARK    8  A    between atoms: C22_29  and  C23_30
REMARK    9  A    between atoms: C22_29  and  C24_31
REMARK   10  A    between atoms: C22_29  and  C25_32
REMARK                            x       y       z     vdW  Elec       q    Type
REMARK                         _______ _______ _______ _____ _____    ______ ____
ROOT
ATOM      1  C1  UNL     1       9.120   8.378  27.251  0.00  0.00    +0.030 C 
ATOM      2  C2  UNL     1       8.992   9.135  25.920  0.00  0.00    +0.094 C 
ATOM      3  C3  UNL     1       9.089   8.127  24.756  0.00  0.00    +0.130 C 
ATOM      4  N1  UNL     1       9.326   8.794  23.472  0.00  0.00    -0.294 N 
ATOM      5  C4  UNL     1       8.756   8.250  22.266  0.00  0.00    +0.247 C 
ATOM      6  O1  UNL     1       8.178   9.023  21.456  0.00  0.00    -0.270 OA
ATOM      7  C18 UNL     1      10.164   9.992  23.367  0.00  0.00    +0.130 C 
ATOM      8  C19 UNL     1      10.917  10.304  24.671  0.00  0.00    +0.094 C 
ATOM      9  C20 UNL     1      12.158   9.425  24.866  0.00  0.00    +0.030 C 
ATOM     10  N3  UNL     1      10.012  10.204  25.828  0.00  0.00    -0.259 N 
ATOM     11  C21 UNL     1      10.046  11.236  26.832  0.00  0.00    +0.404 C 
ATOM     12  O3  UNL     1      11.113  11.879  27.031  0.00  0.00    -0.226 OA
ENDROOT
BRANCH   5  13
ATOM     13  C5  UNL     1       8.824   6.801  21.970  0.00  0.00    +0.038 A 
ATOM     14  C6  UNL     1       7.650   6.065  21.743  0.00  0.00    +0.013 A 
ATOM     15  C7  UNL     1       7.717   4.701  21.454  0.00  0.00    +0.001 A 
ATOM     16  C8  UNL     1       8.953   4.054  21.408  0.00  0.00    +0.013 A 
ATOM     17  C9  UNL     1      10.140   4.762  21.667  0.00  0.00    +0.038 A 
ATOM     18  C17 UNL     1      10.065   6.140  21.944  0.00  0.00    +0.026 A 
BRANCH  17  19
ATOM     19  C10 UNL     1      11.438   4.051  21.622  0.00  0.00    +0.248 C 
ATOM     20  O2  UNL     1      12.086   3.896  22.694  0.00  0.00    -0.270 OA
ATOM     21  N2  UNL     1      11.963   3.529  20.386  0.00  0.00    -0.282 N 
ATOM     22  H10 UNL     1      11.344   3.487  19.548  0.00  0.00    +0.155 HD
BRANCH  21  23
ATOM     23  C11 UNL     1      13.294   3.006  20.240  0.00  0.00    +0.034 A 
ATOM     24  C12 UNL     1      14.331   3.864  19.841  0.00  0.00    +0.023 A 
ATOM     25  C13 UNL     1      15.640   3.385  19.721  0.00  0.00    +0.002 A 
ATOM     26  C14 UNL     1      15.927   2.051  20.018  0.00  0.00    +0.000 A 
ATOM     27  C15 UNL     1      14.907   1.194  20.440  0.00  0.00    +0.002 A 
ATOM     28  C16 UNL     1      13.596   1.667  20.557  0.00  0.00    +0.023 A 
ENDBRANCH  21  23
ENDBRANCH  17  19
ENDBRANCH   5  13
BRANCH  11  29
ATOM     29  O4  UNL     1       8.889  11.519  27.576  0.00  0.00    -0.445 OA
BRANCH  29  30
ATOM     30  C22 UNL     1       8.812  11.683  29.000  0.00  0.00    +0.107 C 
ATOM     31  C23 UNL     1       8.711  13.173  29.379  0.00  0.00    +0.055 C 
ATOM     32  C24 UNL     1      10.029  11.030  29.681  0.00  0.00    +0.055 C 
ATOM     33  C25 UNL     1       7.535  10.969  29.470  0.00  0.00    +0.055 C 
ENDBRANCH  29  30
ENDBRANCH  11  29
TORSDOF 5
ENDMDL
MODEL 7
REMARK VINA RESULT:    -6.454      5.395      9.253
REMARK INTER + INTRA:          -9.253
REMARK INTER:                  -8.222
REMARK INTRA:                  -1.031
REMARK UNBOUND:                -0.913
REMARK  Name = /home/qwerty/github/datacon2025hack/step_04_hit_selection/docking/ligands/lig_346.pdb
REMARK  10 active torsions:
REMARK  status: ('A' for Active; 'I' for Inactive)
REMARK    1  A    between atoms: C1_1  and  C2_2
REMARK    2  A    between atoms: C4_5  and  C5_7
REMARK    3  A    between atoms: C9_11  and  C10_12
REMARK    4  A    between atoms: N2_14  and  C11_15
REMARK    5  A    between atoms: C19_23  and  C20_24
REMARK    6  A    between atoms: C21_26  and  O4_28
REMARK    7  A    between atoms: O4_28  and  C22_29
REMARK    8  A    between atoms: C22_29  and  C23_30
REMARK    9  A    between atoms: C22_29  and  C24_31
REMARK   10  A    between atoms: C22_29  and  C25_32
REMARK                            x       y       z     vdW  Elec       q    Type
REMARK                         _______ _______ _______ _____ _____    ______ ____
ROOT
ATOM      1  C1  UNL     1      14.751   5.704  23.021  0.00  0.00    +0.030 C 
ATOM      2  C2  UNL     1      13.549   5.018  22.352  0.00  0.00    +0.094 C 
ATOM      3  C3  UNL     1      12.365   6.006  22.311  0.00  0.00    +0.130 C 
ATOM      4  N1  UNL     1      11.098   5.331  22.015  0.00  0.00    -0.294 N 
ATOM      5  C4  UNL     1      10.089   6.007  21.242  0.00  0.00    +0.247 C 
ATOM      6  O1  UNL     1       9.517   5.392  20.303  0.00  0.00    -0.270 OA
ATOM      7  C18 UNL     1      10.805   3.984  22.514  0.00  0.00    +0.130 C 
ATOM      8  C19 UNL     1      11.846   3.492  23.535  0.00  0.00    +0.094 C 
ATOM      9  C20 UNL     1      11.631   4.083  24.933  0.00  0.00    +0.030 C 
ATOM     10  N3  UNL     1      13.210   3.759  23.053  0.00  0.00    -0.259 N 
ATOM     11  C21 UNL     1      14.205   2.723  23.164  0.00  0.00    +0.404 C 
ATOM     12  O3  UNL     1      14.112   1.863  24.083  0.00  0.00    -0.226 OA
ENDROOT
BRANCH   5  13
ATOM     13  C5  UNL     1       9.722   7.414  21.521  0.00  0.00    +0.038 A 
ATOM     14  C6  UNL     1       9.967   8.417  20.568  0.00  0.00    +0.013 A 
ATOM     15  C7  UNL     1       9.612   9.740  20.830  0.00  0.00    +0.001 A 
ATOM     16  C8  UNL     1       9.028  10.082  22.051  0.00  0.00    +0.013 A 
ATOM     17  C9  UNL     1       8.807   9.103  23.035  0.00  0.00    +0.038 A 
ATOM     18  C17 UNL     1       9.154   7.767  22.758  0.00  0.00    +0.026 A 
BRANCH  17  19
ATOM     19  C10 UNL     1       8.194   9.492  24.327  0.00  0.00    +0.248 C 
ATOM     20  O2  UNL     1       7.061  10.047  24.320  0.00  0.00    -0.270 OA
ATOM     21  N2  UNL     1       8.862   9.240  25.577  0.00  0.00    -0.282 N 
ATOM     22  H10 UNL     1       9.696   8.615  25.592  0.00  0.00    +0.155 HD
BRANCH  21  23
ATOM     23  C11 UNL     1       8.416   9.762  26.841  0.00  0.00    +0.034 A 
ATOM     24  C12 UNL     1       8.764  11.072  27.205  0.00  0.00    +0.023 A 
ATOM     25  C13 UNL     1       8.318  11.613  28.415  0.00  0.00    +0.002 A 
ATOM     26  C14 UNL     1       7.505  10.856  29.263  0.00  0.00    +0.000 A 
ATOM     27  C15 UNL     1       7.132   9.559  28.898  0.00  0.00    +0.002 A 
ATOM     28  C16 UNL     1       7.580   9.013  27.691  0.00  0.00    +0.023 A 
ENDBRANCH  21  23
ENDBRANCH  17  19
ENDBRANCH   5  13
BRANCH  11  29
ATOM     29  O4  UNL     1      15.266   2.677  22.245  0.00  0.00    -0.445 OA
BRANCH  29  30
ATOM     30  C22 UNL     1      15.354   1.830  21.089  0.00  0.00    +0.107 C 
ATOM     31  C23 UNL     1      16.049   2.559  19.922  0.00  0.00    +0.055 C 
ATOM     32  C24 UNL     1      13.953   1.347  20.671  0.00  0.00    +0.055 C 
ATOM     33  C25 UNL     1      16.204   0.613  21.483  0.00  0.00    +0.055 C 
ENDBRANCH  29  30
ENDBRANCH  11  29
TORSDOF 5
ENDMDL
MODEL 8
REMARK VINA RESULT:    -6.419      9.648     13.749
REMARK INTER + INTRA:          -9.208
REMARK INTER:                  -8.331
REMARK INTRA:                  -0.877
REMARK UNBOUND:                -0.913
REMARK  Name = /home/qwerty/github/datacon2025hack/step_04_hit_selection/docking/ligands/lig_346.pdb
REMARK  10 active torsions:
REMARK  status: ('A' for Active; 'I' for Inactive)
REMARK    1  A    between atoms: C1_1  and  C2_2
REMARK    2  A    between atoms: C4_5  and  C5_7
REMARK    3  A    between atoms: C9_11  and  C10_12
REMARK    4  A    between atoms: N2_14  and  C11_15
REMARK    5  A    between atoms: C19_23  and  C20_24
REMARK    6  A    between atoms: C21_26  and  O4_28
REMARK    7  A    between atoms: O4_28  and  C22_29
REMARK    8  A    between atoms: C22_29  and  C23_30
REMARK    9  A    between atoms: C22_29  and  C24_31
REMARK   10  A    between atoms: C22_29  and  C25_32
REMARK                            x       y       z     vdW  Elec       q    Type
REMARK                         _______ _______ _______ _____ _____    ______ ____
ROOT
ATOM      1  C1  UNL     1      16.066   8.363  35.371  0.00  0.00    +0.030 C 
ATOM      2  C2  UNL     1      17.159   9.414  35.118  0.00  0.00    +0.094 C 
ATOM      3  C3  UNL     1      18.537   8.721  35.138  0.00  0.00    +0.130 C 
ATOM      4  N1  UNL     1      19.634   9.687  35.254  0.00  0.00    -0.294 N 
ATOM      5  C4  UNL     1      20.889   9.429  34.596  0.00  0.00    +0.247 C 
ATOM      6  O1  UNL     1      21.440  10.351  33.938  0.00  0.00    -0.270 OA
ATOM      7  C18 UNL     1      19.507  10.908  36.056  0.00  0.00    +0.130 C 
ATOM      8  C19 UNL     1      18.227  10.925  36.909  0.00  0.00    +0.094 C 
ATOM      9  C20 UNL     1      18.347  10.074  38.179  0.00  0.00    +0.030 C 
ATOM     10  N3  UNL     1      17.065  10.513  36.105  0.00  0.00    -0.259 N 
ATOM     11  C21 UNL     1      15.844  11.272  36.203  0.00  0.00    +0.404 C 
ATOM     12  O3  UNL     1      15.576  11.890  37.270  0.00  0.00    -0.226 OA
ENDROOT
BRANCH   5  13
ATOM     13  C5  UNL     1      21.534   8.098  34.668  0.00  0.00    +0.038 A 
ATOM     14  C6  UNL     1      22.436   7.798  35.701  0.00  0.00    +0.013 A 
ATOM     15  C7  UNL     1      23.036   6.540  35.772  0.00  0.00    +0.001 A 
ATOM     16  C8  UNL     1      22.757   5.575  34.803  0.00  0.00    +0.013 A 
ATOM     17  C9  UNL     1      21.885   5.863  33.738  0.00  0.00    +0.038 A 
ATOM     18  C17 UNL     1      21.273   7.130  33.682  0.00  0.00    +0.026 A 
BRANCH  17  19
ATOM     19  C10 UNL     1      21.613   4.825  32.717  0.00  0.00    +0.248 C 
ATOM     20  O2  UNL     1      20.907   5.128  31.715  0.00  0.00    -0.270 OA
ATOM     21  N2  UNL     1      22.145   3.493  32.844  0.00  0.00    -0.282 N 
ATOM     22  H10 UNL     1      22.877   3.303  33.560  0.00  0.00    +0.155 HD
BRANCH  21  23
ATOM     23  C11 UNL     1      21.762   2.395  31.997  0.00  0.00    +0.034 A 
ATOM     24  C12 UNL     1      20.683   1.580  32.374  0.00  0.00    +0.023 A 
ATOM     25  C13 UNL     1      20.272   0.525  31.552  0.00  0.00    +0.002 A 
ATOM     26  C14 UNL     1      20.923   0.288  30.339  0.00  0.00    +0.000 A 
ATOM     27  C15 UNL     1      21.982   1.109  29.943  0.00  0.00    +0.002 A 
ATOM     28  C16 UNL     1      22.400   2.162  30.763  0.00  0.00    +0.023 A 
ENDBRANCH  21  23
ENDBRANCH  17  19
ENDBRANCH   5  13
BRANCH  11  29
ATOM     29  O4  UNL     1      14.968  11.322  35.106  0.00  0.00    -0.445 OA
BRANCH  29  30
ATOM     30  C22 UNL     1      14.913  12.352  34.107  0.00  0.00    +0.107 C 
ATOM     31  C23 UNL     1      16.249  13.116  34.028  0.00  0.00    +0.055 C 
ATOM     32  C24 UNL     1      13.750  13.319  34.400  0.00  0.00    +0.055 C 
ATOM     33  C25 UNL     1      14.660  11.663  32.758  0.00  0.00    +0.055 C 
ENDBRANCH  29  30
ENDBRANCH  11  29
TORSDOF 5
ENDMDL
MODEL 9
REMARK VINA RESULT:    -6.412      5.352     11.371
REMARK INTER + INTRA:          -9.199
REMARK INTER:                  -8.571
REMARK INTRA:                  -0.628
REMARK UNBOUND:                -0.913
REMARK  Name = /home/qwerty/github/datacon2025hack/step_04_hit_selection/docking/ligands/lig_346.pdb
REMARK  10 active torsions:
REMARK  status: ('A' for Active; 'I' for Inactive)
REMARK    1  A    between atoms: C1_1  and  C2_2
REMARK    2  A    between atoms: C4_5  and  C5_7
REMARK    3  A    between atoms: C9_11  and  C10_12
REMARK    4  A    between atoms: N2_14  and  C11_15
REMARK    5  A    between atoms: C19_23  and  C20_24
REMARK    6  A    between atoms: C21_26  and  O4_28
REMARK    7  A    between atoms: O4_28  and  C22_29
REMARK    8  A    between atoms: C22_29  and  C23_30
REMARK    9  A    between atoms: C22_29  and  C24_31
REMARK   10  A    between atoms: C22_29  and  C25_32
REMARK                            x       y       z     vdW  Elec       q    Type
REMARK                         _______ _______ _______ _____ _____    ______ ____
ROOT
ATOM      1  C1  UNL     1      16.876   8.417  35.521  0.00  0.00    +0.030 C 
ATOM      2  C2  UNL     1      17.224   9.835  36.000  0.00  0.00    +0.094 C 
ATOM      3  C3  UNL     1      16.032  10.770  35.713  0.00  0.00    +0.130 C 
ATOM      4  N1  UNL     1      16.408  12.184  35.815  0.00  0.00    -0.294 N 
ATOM      5  C4  UNL     1      15.454  13.145  36.306  0.00  0.00    +0.247 C 
ATOM      6  O1  UNL     1      15.819  13.990  37.167  0.00  0.00    -0.270 OA
ATOM      7  C18 UNL     1      17.728  12.665  35.398  0.00  0.00    +0.130 C 
ATOM      8  C19 UNL     1      18.540  11.591  34.654  0.00  0.00    +0.094 C 
ATOM      9  C20 UNL     1      18.111  11.428  33.191  0.00  0.00    +0.030 C 
ATOM     10  N3  UNL     1      18.477  10.306  35.369  0.00  0.00    -0.259 N 
ATOM     11  C21 UNL     1      19.690   9.551  35.555  0.00  0.00    +0.404 C 
ATOM     12  O3  UNL     1      20.630   9.663  34.721  0.00  0.00    -0.226 OA
ENDROOT
BRANCH   5  13
ATOM     13  C5  UNL     1      14.053  13.149  35.828  0.00  0.00    +0.038 A 
ATOM     14  C6  UNL     1      13.013  12.710  36.664  0.00  0.00    +0.013 A 
ATOM     15  C7  UNL     1      11.693  12.724  36.215  0.00  0.00    +0.001 A 
ATOM     16  C8  UNL     1      11.396  13.157  34.921  0.00  0.00    +0.013 A 
ATOM     17  C9  UNL     1      12.422  13.567  34.053  0.00  0.00    +0.038 A 
ATOM     18  C17 UNL     1      13.751  13.564  34.518  0.00  0.00    +0.026 A 
BRANCH  17  19
ATOM     19  C10 UNL     1      12.083  14.014  32.682  0.00  0.00    +0.248 C 
ATOM     20  O2  UNL     1      11.958  15.250  32.458  0.00  0.00    -0.270 OA
ATOM     21  N2  UNL     1      11.907  13.069  31.610  0.00  0.00    -0.282 N 
ATOM     22  H10 UNL     1      12.198  12.078  31.751  0.00  0.00    +0.155 HD
BRANCH  21  23
ATOM     23  C11 UNL     1      11.391  13.418  30.313  0.00  0.00    +0.034 A 
ATOM     24  C12 UNL     1      10.068  13.080  29.986  0.00  0.00    +0.023 A 
ATOM     25  C13 UNL     1       9.534  13.435  28.743  0.00  0.00    +0.002 A 
ATOM     26  C14 UNL     1      10.310  14.148  27.825  0.00  0.00    +0.000 A 
ATOM     27  C15 UNL     1      11.620  14.510  28.151  0.00  0.00    +0.002 A 
ATOM     28  C16 UNL     1      12.160  14.153  29.391  0.00  0.00    +0.023 A 
ENDBRANCH  21  23
ENDBRANCH  17  19
ENDBRANCH   5  13
BRANCH  11  29
ATOM     29  O4  UNL     1      19.815   8.701  36.666  0.00  0.00    -0.445 OA
BRANCH  29  30
ATOM     30  C22 UNL     1      20.201   7.319  36.641  0.00  0.00    +0.107 C 
ATOM     31  C23 UNL     1      20.196   6.770  35.201  0.00  0.00    +0.055 C 
ATOM     32  C24 UNL     1      19.271   6.486  37.543  0.00  0.00    +0.055 C 
ATOM     33  C25 UNL     1      21.632   7.238  37.192  0.00  0.00    +0.055 C 
ENDBRANCH  29  30
ENDBRANCH  11  29
TORSDOF 5
ENDMDL
