MODEL 1
REMARK VINA RESULT:    -5.655      0.000      0.000
REMARK INTER + INTRA:          -8.198
REMARK INTER:                  -7.308
REMARK INTRA:                  -0.891
REMARK UNBOUND:                -0.891
REMARK  Name = /home/qwerty/github/datacon2025hack/step_04_hit_selection/docking/ligands/lig_103.pdb
REMARK  7 active torsions:
REMARK  status: ('A' for Active; 'I' for Inactive)
REMARK    1  A    between atoms: C1_1  and  C2_2
REMARK    2  A    between atoms: C2_2  and  C3_3
REMARK    3  A    between atoms: C2_2  and  N3_17
REMARK    4  A    between atoms: C3_3  and  N1_4
REMARK    5  A    between atoms: N1_4  and  C4_5
REMARK    6  A    between atoms: C5_6  and  C6_8
REMARK    7  A    between atoms: C13_18  and  C14_20
REMARK                            x       y       z     vdW  Elec       q    Type
REMARK                         _______ _______ _______ _____ _____    ______ ____
ROOT
ATOM      1  N1  UNL     1      23.415  14.541  22.758  0.00  0.00    -0.299 N 
ATOM      2  C4  UNL     1      23.665  15.049  21.406  0.00  0.00    +0.132 C 
ATOM      3  C5  UNL     1      24.032  15.218  23.872  0.00  0.00    +0.246 C 
ATOM      4  O1  UNL     1      25.170  15.742  23.727  0.00  0.00    -0.270 OA
ENDROOT
BRANCH   3   5
ATOM      5  C6  UNL     1      23.369  15.309  25.189  0.00  0.00    +0.038 A 
ATOM      6  C7  UNL     1      22.406  16.319  25.427  0.00  0.00    +0.015 A 
ATOM      7  C8  UNL     1      21.757  16.415  26.670  0.00  0.00    +0.029 A 
ATOM      8  C9  UNL     1      22.070  15.487  27.663  0.00  0.00    +0.078 A 
ATOM      9  N2  UNL     1      21.511  15.470  28.900  0.00  0.00    -0.247 NA
ATOM     10  C10 UNL     1      22.002  14.450  29.646  0.00  0.00    +0.157 A 
ATOM     11  S1  UNL     1      23.144  13.537  28.792  0.00  0.00    -0.075 S 
ATOM     12  C11 UNL     1      22.999  14.491  27.420  0.00  0.00    +0.040 A 
ATOM     13  C12 UNL     1      23.656  14.370  26.201  0.00  0.00    +0.030 A 
ENDBRANCH   3   5
BRANCH   1  14
ATOM     14  C3  UNL     1      22.633  13.307  22.956  0.00  0.00    +0.129 C 
BRANCH  14  16
ATOM     15  C1  UNL     1      20.305  13.038  23.926  0.00  0.00    +0.029 C 
ATOM     16  C2  UNL     1      21.126  13.549  22.736  0.00  0.00    +0.087 C 
BRANCH  16  17
ATOM     17  N3  UNL     1      20.684  12.880  21.507  0.00  0.00    -0.311 N 
ATOM     18  C13 UNL     1      19.941  13.563  20.487  0.00  0.00    +0.216 C 
ATOM     19  O2  UNL     1      19.767  14.810  20.559  0.00  0.00    -0.276 OA
ATOM     20  H14 UNL     1      20.933  11.877  21.351  0.00  0.00    +0.149 HD
BRANCH  18  21
ATOM     21  C14 UNL     1      19.452  12.801  19.279  0.00  0.00    +0.075 C 
ATOM     22  C15 UNL     1      20.227  11.510  19.016  0.00  0.00    +0.013 C 
ATOM     23  C16 UNL     1      18.955  10.700  19.217  0.00  0.00    +0.001 C 
ATOM     24  C17 UNL     1      18.180  11.979  19.503  0.00  0.00    +0.013 C 
ENDBRANCH  18  21
ENDBRANCH  16  17
ENDBRANCH  14  16
ENDBRANCH   1  14
TORSDOF 5
ENDMDL
MODEL 2
REMARK VINA RESULT:    -5.650     12.578     13.822
REMARK INTER + INTRA:          -8.193
REMARK INTER:                  -7.370
REMARK INTRA:                  -0.822
REMARK UNBOUND:                -0.891
REMARK  Name = /home/qwerty/github/datacon2025hack/step_04_hit_selection/docking/ligands/lig_103.pdb
REMARK  7 active torsions:
REMARK  status: ('A' for Active; 'I' for Inactive)
REMARK    1  A    between atoms: C1_1  and  C2_2
REMARK    2  A    between atoms: C2_2  and  C3_3
REMARK    3  A    between atoms: C2_2  and  N3_17
REMARK    4  A    between atoms: C3_3  and  N1_4
REMARK    5  A    between atoms: N1_4  and  C4_5
REMARK    6  A    between atoms: C5_6  and  C6_8
REMARK    7  A    between atoms: C13_18  and  C14_20
REMARK                            x       y       z     vdW  Elec       q    Type
REMARK                         _______ _______ _______ _____ _____    ______ ____
ROOT
ATOM      1  N1  UNL     1      20.241   1.646  25.118  0.00  0.00    -0.299 N 
ATOM      2  C4  UNL     1      20.063   2.629  24.046  0.00  0.00    +0.132 C 
ATOM      3  C5  UNL     1      21.205   1.925  26.154  0.00  0.00    +0.246 C 
ATOM      4  O1  UNL     1      22.254   2.564  25.868  0.00  0.00    -0.270 OA
ENDROOT
BRANCH   3   5
ATOM      5  C6  UNL     1      21.002   1.475  27.546  0.00  0.00    +0.038 A 
ATOM      6  C7  UNL     1      21.969   0.651  28.170  0.00  0.00    +0.015 A 
ATOM      7  C8  UNL     1      21.797   0.221  29.497  0.00  0.00    +0.029 A 
ATOM      8  C9  UNL     1      20.661   0.630  30.193  0.00  0.00    +0.078 A 
ATOM      9  N2  UNL     1      20.383   0.288  31.477  0.00  0.00    -0.247 NA
ATOM     10  C10 UNL     1      19.216   0.841  31.891  0.00  0.00    +0.157 A 
ATOM     11  S1  UNL     1      18.495   1.774  30.676  0.00  0.00    -0.075 S 
ATOM     12  C11 UNL     1      19.727   1.450  29.585  0.00  0.00    +0.040 A 
ATOM     13  C12 UNL     1      19.869   1.893  28.275  0.00  0.00    +0.030 A 
ENDBRANCH   3   5
BRANCH   1  14
ATOM     14  C3  UNL     1      19.520   0.361  25.076  0.00  0.00    +0.129 C 
BRANCH  14  16
ATOM     15  C1  UNL     1      17.400   0.022  26.427  0.00  0.00    +0.029 C 
ATOM     16  C2  UNL     1      17.992   0.566  25.121  0.00  0.00    +0.087 C 
BRANCH  16  17
ATOM     17  N3  UNL     1      17.362  -0.103  23.977  0.00  0.00    -0.311 N 
ATOM     18  C13 UNL     1      16.649   0.621  22.963  0.00  0.00    +0.216 C 
ATOM     19  O2  UNL     1      16.666   1.883  22.956  0.00  0.00    -0.276 OA
ATOM     20  H14 UNL     1      17.449  -1.139  23.876  0.00  0.00    +0.149 HD
BRANCH  18  21
ATOM     21  C14 UNL     1      15.962  -0.130  21.849  0.00  0.00    +0.075 C 
ATOM     22  C15 UNL     1      16.121   0.529  20.479  0.00  0.00    +0.013 C 
ATOM     23  C16 UNL     1      16.851  -0.704  19.965  0.00  0.00    +0.001 C 
ATOM     24  C17 UNL     1      16.718  -1.358  21.333  0.00  0.00    +0.013 C 
ENDBRANCH  18  21
ENDBRANCH  16  17
ENDBRANCH  14  16
ENDBRANCH   1  14
TORSDOF 5
ENDMDL
MODEL 3
REMARK VINA RESULT:    -5.615     12.150     15.112
REMARK INTER + INTRA:          -8.147
REMARK INTER:                  -7.292
REMARK INTRA:                  -0.854
REMARK UNBOUND:                -0.891
REMARK  Name = /home/qwerty/github/datacon2025hack/step_04_hit_selection/docking/ligands/lig_103.pdb
REMARK  7 active torsions:
REMARK  status: ('A' for Active; 'I' for Inactive)
REMARK    1  A    between atoms: C1_1  and  C2_2
REMARK    2  A    between atoms: C2_2  and  C3_3
REMARK    3  A    between atoms: C2_2  and  N3_17
REMARK    4  A    between atoms: C3_3  and  N1_4
REMARK    5  A    between atoms: N1_4  and  C4_5
REMARK    6  A    between atoms: C5_6  and  C6_8
REMARK    7  A    between atoms: C13_18  and  C14_20
REMARK                            x       y       z     vdW  Elec       q    Type
REMARK                         _______ _______ _______ _____ _____    ______ ____
ROOT
ATOM      1  N1  UNL     1      21.051   2.177  32.669  0.00  0.00    -0.299 N 
ATOM      2  C4  UNL     1      20.375   2.419  33.947  0.00  0.00    +0.132 C 
ATOM      3  C5  UNL     1      20.652   1.032  31.886  0.00  0.00    +0.246 C 
ATOM      4  O1  UNL     1      20.277  -0.019  32.472  0.00  0.00    -0.270 OA
ENDROOT
BRANCH   3   5
ATOM      5  C6  UNL     1      20.680   1.055  30.409  0.00  0.00    +0.038 A 
ATOM      6  C7  UNL     1      21.838   0.626  29.718  0.00  0.00    +0.015 A 
ATOM      7  C8  UNL     1      21.879   0.631  28.314  0.00  0.00    +0.029 A 
ATOM      8  C9  UNL     1      20.752   1.055  27.611  0.00  0.00    +0.078 A 
ATOM      9  N2  UNL     1      20.664   1.102  26.257  0.00  0.00    -0.247 NA
ATOM     10  C10 UNL     1      19.446   1.546  25.859  0.00  0.00    +0.157 A 
ATOM     11  S1  UNL     1      18.440   1.893  27.176  0.00  0.00    -0.075 S 
ATOM     12  C11 UNL     1      19.616   1.458  28.291  0.00  0.00    +0.040 A 
ATOM     13  C12 UNL     1      19.545   1.462  29.679  0.00  0.00    +0.030 A 
ENDBRANCH   3   5
BRANCH   1  14
ATOM     14  C3  UNL     1      22.179   3.029  32.251  0.00  0.00    +0.129 C 
BRANCH  14  16
ATOM     15  C1  UNL     1      21.405   4.674  30.483  0.00  0.00    +0.029 C 
ATOM     16  C2  UNL     1      21.723   4.475  31.970  0.00  0.00    +0.087 C 
BRANCH  16  17
ATOM     17  N3  UNL     1      22.766   5.420  32.383  0.00  0.00    -0.311 N 
ATOM     18  C13 UNL     1      22.755   6.063  33.666  0.00  0.00    +0.216 C 
ATOM     19  O2  UNL     1      21.909   5.720  34.538  0.00  0.00    -0.276 OA
ATOM     20  H14 UNL     1      23.562   5.622  31.736  0.00  0.00    +0.149 HD
BRANCH  18  21
ATOM     21  C14 UNL     1      23.817   7.080  34.005  0.00  0.00    +0.075 C 
ATOM     22  C15 UNL     1      25.038   7.016  33.087  0.00  0.00    +0.013 C 
ATOM     23  C16 UNL     1      24.765   8.438  32.618  0.00  0.00    +0.001 C 
ATOM     24  C17 UNL     1      23.534   8.501  33.511  0.00  0.00    +0.013 C 
ENDBRANCH  18  21
ENDBRANCH  16  17
ENDBRANCH  14  16
ENDBRANCH   1  14
TORSDOF 5
ENDMDL
MODEL 4
REMARK VINA RESULT:    -5.601     11.830     15.236
REMARK INTER + INTRA:          -8.129
REMARK INTER:                  -7.387
REMARK INTRA:                  -0.742
REMARK UNBOUND:                -0.891
REMARK  Name = /home/qwerty/github/datacon2025hack/step_04_hit_selection/docking/ligands/lig_103.pdb
REMARK  7 active torsions:
REMARK  status: ('A' for Active; 'I' for Inactive)
REMARK    1  A    between atoms: C1_1  and  C2_2
REMARK    2  A    between atoms: C2_2  and  C3_3
REMARK    3  A    between atoms: C2_2  and  N3_17
REMARK    4  A    between atoms: C3_3  and  N1_4
REMARK    5  A    between atoms: N1_4  and  C4_5
REMARK    6  A    between atoms: C5_6  and  C6_8
REMARK    7  A    between atoms: C13_18  and  C14_20
REMARK                            x       y       z     vdW  Elec       q    Type
REMARK                         _______ _______ _______ _____ _____    ______ ____
ROOT
ATOM      1  N1  UNL     1      21.176   2.768  32.959  0.00  0.00    -0.299 N 
ATOM      2  C4  UNL     1      20.155   2.760  34.010  0.00  0.00    +0.132 C 
ATOM      3  C5  UNL     1      21.111   1.760  31.928  0.00  0.00    +0.246 C 
ATOM      4  O1  UNL     1      20.681   0.610  32.213  0.00  0.00    -0.270 OA
ENDROOT
BRANCH   3   5
ATOM      5  C6  UNL     1      21.544   2.038  30.543  0.00  0.00    +0.038 A 
ATOM      6  C7  UNL     1      22.483   1.185  29.913  0.00  0.00    +0.015 A 
ATOM      7  C8  UNL     1      22.899   1.428  28.593  0.00  0.00    +0.029 A 
ATOM      8  C9  UNL     1      22.362   2.518  27.909  0.00  0.00    +0.078 A 
ATOM      9  N2  UNL     1      22.678   2.855  26.633  0.00  0.00    -0.247 NA
ATOM     10  C10 UNL     1      21.993   3.954  26.231  0.00  0.00    +0.157 A 
ATOM     11  S1  UNL     1      20.971   4.540  27.448  0.00  0.00    -0.075 S 
ATOM     12  C11 UNL     1      21.432   3.338  28.524  0.00  0.00    +0.040 A 
ATOM     13  C12 UNL     1      21.000   3.123  29.828  0.00  0.00    +0.030 A 
ENDBRANCH   3   5
BRANCH   1  14
ATOM     14  C3  UNL     1      22.297   3.723  33.019  0.00  0.00    +0.129 C 
BRANCH  14  16
ATOM     15  C1  UNL     1      22.151   5.901  31.727  0.00  0.00    +0.029 C 
ATOM     16  C2  UNL     1      21.798   5.182  33.035  0.00  0.00    +0.087 C 
BRANCH  16  17
ATOM     17  N3  UNL     1      22.388   5.903  34.169  0.00  0.00    -0.311 N 
ATOM     18  C13 UNL     1      21.586   6.573  35.153  0.00  0.00    +0.216 C 
ATOM     19  O2  UNL     1      20.332   6.440  35.144  0.00  0.00    -0.276 OA
ATOM     20  H14 UNL     1      23.427   5.916  34.285  0.00  0.00    +0.149 HD
BRANCH  18  21
ATOM     21  C14 UNL     1      22.254   7.358  36.256  0.00  0.00    +0.075 C 
ATOM     22  C15 UNL     1      21.477   7.344  37.572  0.00  0.00    +0.013 C 
ATOM     23  C16 UNL     1      22.644   6.653  38.260  0.00  0.00    +0.001 C 
ATOM     24  C17 UNL     1      23.416   6.641  36.948  0.00  0.00    +0.013 C 
ENDBRANCH  18  21
ENDBRANCH  16  17
ENDBRANCH  14  16
ENDBRANCH   1  14
TORSDOF 5
ENDMDL
MODEL 5
REMARK VINA RESULT:    -5.521     11.400     13.283
REMARK INTER + INTRA:          -8.025
REMARK INTER:                  -7.188
REMARK INTRA:                  -0.837
REMARK UNBOUND:                -0.891
REMARK  Name = /home/qwerty/github/datacon2025hack/step_04_hit_selection/docking/ligands/lig_103.pdb
REMARK  7 active torsions:
REMARK  status: ('A' for Active; 'I' for Inactive)
REMARK    1  A    between atoms: C1_1  and  C2_2
REMARK    2  A    between atoms: C2_2  and  C3_3
REMARK    3  A    between atoms: C2_2  and  N3_17
REMARK    4  A    between atoms: C3_3  and  N1_4
REMARK    5  A    between atoms: N1_4  and  C4_5
REMARK    6  A    between atoms: C5_6  and  C6_8
REMARK    7  A    between atoms: C13_18  and  C14_20
REMARK                            x       y       z     vdW  Elec       q    Type
REMARK                         _______ _______ _______ _____ _____    ______ ____
ROOT
ATOM      1  N1  UNL     1       7.853   9.464  26.922  0.00  0.00    -0.299 N 
ATOM      2  C4  UNL     1       7.569   8.048  27.171  0.00  0.00    +0.132 C 
ATOM      3  C5  UNL     1       7.887  10.367  28.047  0.00  0.00    +0.246 C 
ATOM      4  O1  UNL     1       7.119  10.166  29.026  0.00  0.00    -0.270 OA
ENDROOT
BRANCH   3   5
ATOM      5  C6  UNL     1       8.794  11.532  28.079  0.00  0.00    +0.038 A 
ATOM      6  C7  UNL     1       8.302  12.820  27.756  0.00  0.00    +0.015 A 
ATOM      7  C8  UNL     1       9.147  13.941  27.791  0.00  0.00    +0.029 A 
ATOM      8  C9  UNL     1      10.480  13.766  28.162  0.00  0.00    +0.078 A 
ATOM      9  N2  UNL     1      11.394  14.766  28.238  0.00  0.00    -0.247 NA
ATOM     10  C10 UNL     1      12.604  14.298  28.633  0.00  0.00    +0.157 A 
ATOM     11  S1  UNL     1      12.575  12.627  28.901  0.00  0.00    -0.075 S 
ATOM     12  C11 UNL     1      10.953  12.508  28.492  0.00  0.00    +0.040 A 
ATOM     13  C12 UNL     1      10.140  11.380  28.468  0.00  0.00    +0.030 A 
ENDBRANCH   3   5
BRANCH   1  14
ATOM     14  C3  UNL     1       7.999   9.961  25.542  0.00  0.00    +0.129 C 
BRANCH  14  16
ATOM     15  C1  UNL     1      10.507   9.656  25.318  0.00  0.00    +0.029 C 
ATOM     16  C2  UNL     1       9.131   9.229  24.793  0.00  0.00    +0.087 C 
BRANCH  16  17
ATOM     17  N3  UNL     1       9.042   9.508  23.355  0.00  0.00    -0.311 N 
ATOM     18  C13 UNL     1       9.422   8.543  22.361  0.00  0.00    +0.216 C 
ATOM     19  O2  UNL     1       9.713   7.364  22.704  0.00  0.00    -0.276 OA
ATOM     20  H14 UNL     1       8.671  10.430  23.032  0.00  0.00    +0.149 HD
BRANCH  18  21
ATOM     21  C14 UNL     1       9.377   8.915  20.899  0.00  0.00    +0.075 C 
ATOM     22  C15 UNL     1       9.297  10.422  20.655  0.00  0.00    +0.013 C 
ATOM     23  C16 UNL     1      10.629  10.378  19.921  0.00  0.00    +0.001 C 
ATOM     24  C17 UNL     1      10.728   8.881  20.181  0.00  0.00    +0.013 C 
ENDBRANCH  18  21
ENDBRANCH  16  17
ENDBRANCH  14  16
ENDBRANCH   1  14
TORSDOF 5
ENDMDL
MODEL 6
REMARK VINA RESULT:    -5.453     13.445     15.167
REMARK INTER + INTRA:          -7.937
REMARK INTER:                  -7.090
REMARK INTRA:                  -0.847
REMARK UNBOUND:                -0.891
REMARK  Name = /home/qwerty/github/datacon2025hack/step_04_hit_selection/docking/ligands/lig_103.pdb
REMARK  7 active torsions:
REMARK  status: ('A' for Active; 'I' for Inactive)
REMARK    1  A    between atoms: C1_1  and  C2_2
REMARK    2  A    between atoms: C2_2  and  C3_3
REMARK    3  A    between atoms: C2_2  and  N3_17
REMARK    4  A    between atoms: C3_3  and  N1_4
REMARK    5  A    between atoms: N1_4  and  C4_5
REMARK    6  A    between atoms: C5_6  and  C6_8
REMARK    7  A    between atoms: C13_18  and  C14_20
REMARK                            x       y       z     vdW  Elec       q    Type
REMARK                         _______ _______ _______ _____ _____    ______ ____
ROOT
ATOM      1  N1  UNL     1      18.123   8.311  37.635  0.00  0.00    -0.299 N 
ATOM      2  C4  UNL     1      16.661   8.275  37.539  0.00  0.00    +0.132 C 
ATOM      3  C5  UNL     1      18.842   7.061  37.663  0.00  0.00    +0.246 C 
ATOM      4  O1  UNL     1      18.320   6.058  38.221  0.00  0.00    -0.270 OA
ENDROOT
BRANCH   3   5
ATOM      5  C6  UNL     1      20.185   6.924  37.062  0.00  0.00    +0.038 A 
ATOM      6  C7  UNL     1      21.337   6.994  37.882  0.00  0.00    +0.015 A 
ATOM      7  C8  UNL     1      22.621   6.856  37.329  0.00  0.00    +0.029 A 
ATOM      8  C9  UNL     1      22.741   6.636  35.957  0.00  0.00    +0.078 A 
ATOM      9  N2  UNL     1      23.922   6.482  35.305  0.00  0.00    -0.247 NA
ATOM     10  C10 UNL     1      23.727   6.274  33.980  0.00  0.00    +0.157 A 
ATOM     11  S1  UNL     1      22.083   6.273  33.577  0.00  0.00    -0.075 S 
ATOM     12  C11 UNL     1      21.612   6.552  35.162  0.00  0.00    +0.040 A 
ATOM     13  C12 UNL     1      20.328   6.683  35.680  0.00  0.00    +0.030 A 
ENDBRANCH   3   5
BRANCH   1  14
ATOM     14  C3  UNL     1      18.825   9.597  37.800  0.00  0.00    +0.129 C 
BRANCH  14  16
ATOM     15  C1  UNL     1      20.040  10.786  35.917  0.00  0.00    +0.029 C 
ATOM     16  C2  UNL     1      18.676  10.489  36.551  0.00  0.00    +0.087 C 
BRANCH  16  17
ATOM     17  N3  UNL     1      18.013  11.748  36.910  0.00  0.00    -0.311 N 
ATOM     18  C13 UNL     1      16.685  12.069  36.469  0.00  0.00    +0.216 C 
ATOM     19  O2  UNL     1      15.992  11.203  35.868  0.00  0.00    -0.276 OA
ATOM     20  H14 UNL     1      18.509  12.432  37.525  0.00  0.00    +0.149 HD
BRANCH  18  21
ATOM     21  C14 UNL     1      16.086  13.411  36.811  0.00  0.00    +0.075 C 
ATOM     22  C15 UNL     1      16.135  14.414  35.659  0.00  0.00    +0.013 C 
ATOM     23  C16 UNL     1      14.615  14.481  35.646  0.00  0.00    +0.001 C 
ATOM     24  C17 UNL     1      14.556  13.465  36.778  0.00  0.00    +0.013 C 
ENDBRANCH  18  21
ENDBRANCH  16  17
ENDBRANCH  14  16
ENDBRANCH   1  14
TORSDOF 5
ENDMDL
MODEL 7
REMARK VINA RESULT:    -5.429     12.428     14.017
REMARK INTER + INTRA:          -7.906
REMARK INTER:                  -6.898
REMARK INTRA:                  -1.008
REMARK UNBOUND:                -0.891
REMARK  Name = /home/qwerty/github/datacon2025hack/step_04_hit_selection/docking/ligands/lig_103.pdb
REMARK  7 active torsions:
REMARK  status: ('A' for Active; 'I' for Inactive)
REMARK    1  A    between atoms: C1_1  and  C2_2
REMARK    2  A    between atoms: C2_2  and  C3_3
REMARK    3  A    between atoms: C2_2  and  N3_17
REMARK    4  A    between atoms: C3_3  and  N1_4
REMARK    5  A    between atoms: N1_4  and  C4_5
REMARK    6  A    between atoms: C5_6  and  C6_8
REMARK    7  A    between atoms: C13_18  and  C14_20
REMARK                            x       y       z     vdW  Elec       q    Type
REMARK                         _______ _______ _______ _____ _____    ______ ____
ROOT
ATOM      1  N1  UNL     1      11.066  13.675  29.430  0.00  0.00    -0.299 N 
ATOM      2  C4  UNL     1      11.584  14.600  28.419  0.00  0.00    +0.132 C 
ATOM      3  C5  UNL     1      12.004  12.866  30.169  0.00  0.00    +0.246 C 
ATOM      4  O1  UNL     1      13.056  12.463  29.601  0.00  0.00    -0.270 OA
ENDROOT
BRANCH   3   5
ATOM      5  C6  UNL     1      11.763  12.486  31.576  0.00  0.00    +0.038 A 
ATOM      6  C7  UNL     1      11.447  11.145  31.901  0.00  0.00    +0.015 A 
ATOM      7  C8  UNL     1      11.224  10.763  33.235  0.00  0.00    +0.029 A 
ATOM      8  C9  UNL     1      11.331  11.728  34.236  0.00  0.00    +0.078 A 
ATOM      9  N2  UNL     1      11.145  11.486  35.558  0.00  0.00    -0.247 NA
ATOM     10  C10 UNL     1      11.324  12.611  36.294  0.00  0.00    +0.157 A 
ATOM     11  S1  UNL     1      11.721  13.941  35.325  0.00  0.00    -0.075 S 
ATOM     12  C11 UNL     1      11.657  13.034  33.915  0.00  0.00    +0.040 A 
ATOM     13  C12 UNL     1      11.884  13.442  32.605  0.00  0.00    +0.030 A 
ENDBRANCH   3   5
BRANCH   1  14
ATOM     14  C3  UNL     1       9.612  13.510  29.610  0.00  0.00    +0.129 C 
BRANCH  14  16
ATOM     15  C1  UNL     1       7.944  13.930  27.746  0.00  0.00    +0.029 C 
ATOM     16  C2  UNL     1       8.945  12.935  28.344  0.00  0.00    +0.087 C 
BRANCH  16  17
ATOM     17  N3  UNL     1       8.260  11.677  28.664  0.00  0.00    -0.311 N 
ATOM     18  C13 UNL     1       8.923  10.406  28.606  0.00  0.00    +0.216 C 
ATOM     19  O2  UNL     1      10.168  10.350  28.410  0.00  0.00    -0.276 OA
ATOM     20  H14 UNL     1       7.260  11.700  28.967  0.00  0.00    +0.149 HD
BRANCH  18  21
ATOM     21  C14 UNL     1       8.145   9.141  28.877  0.00  0.00    +0.075 C 
ATOM     22  C15 UNL     1       8.538   8.450  30.183  0.00  0.00    +0.013 C 
ATOM     23  C16 UNL     1       7.126   8.646  30.716  0.00  0.00    +0.001 C 
ATOM     24  C17 UNL     1       6.733   9.356  29.428  0.00  0.00    +0.013 C 
ENDBRANCH  18  21
ENDBRANCH  16  17
ENDBRANCH  14  16
ENDBRANCH   1  14
TORSDOF 5
ENDMDL
MODEL 8
REMARK VINA RESULT:    -5.389     11.401     14.303
REMARK INTER + INTRA:          -7.854
REMARK INTER:                  -7.125
REMARK INTRA:                  -0.729
REMARK UNBOUND:                -0.891
REMARK  Name = /home/qwerty/github/datacon2025hack/step_04_hit_selection/docking/ligands/lig_103.pdb
REMARK  7 active torsions:
REMARK  status: ('A' for Active; 'I' for Inactive)
REMARK    1  A    between atoms: C1_1  and  C2_2
REMARK    2  A    between atoms: C2_2  and  C3_3
REMARK    3  A    between atoms: C2_2  and  N3_17
REMARK    4  A    between atoms: C3_3  and  N1_4
REMARK    5  A    between atoms: N1_4  and  C4_5
REMARK    6  A    between atoms: C5_6  and  C6_8
REMARK    7  A    between atoms: C13_18  and  C14_20
REMARK                            x       y       z     vdW  Elec       q    Type
REMARK                         _______ _______ _______ _____ _____    ______ ____
ROOT
ATOM      1  N1  UNL     1       8.286  10.496  27.715  0.00  0.00    -0.299 N 
ATOM      2  C4  UNL     1       7.423   9.954  28.768  0.00  0.00    +0.132 C 
ATOM      3  C5  UNL     1       9.204   9.604  27.050  0.00  0.00    +0.246 C 
ATOM      4  O1  UNL     1       9.725   8.656  27.698  0.00  0.00    -0.270 OA
ENDROOT
BRANCH   3   5
ATOM      5  C6  UNL     1       9.560   9.777  25.627  0.00  0.00    +0.038 A 
ATOM      6  C7  UNL     1      10.844  10.258  25.274  0.00  0.00    +0.015 A 
ATOM      7  C8  UNL     1      11.205  10.419  23.926  0.00  0.00    +0.029 A 
ATOM      8  C9  UNL     1      10.278  10.085  22.939  0.00  0.00    +0.078 A 
ATOM      9  N2  UNL     1      10.505  10.190  21.605  0.00  0.00    -0.247 NA
ATOM     10  C10 UNL     1       9.428   9.785  20.889  0.00  0.00    +0.157 A 
ATOM     11  S1  UNL     1       8.159   9.281  21.891  0.00  0.00    -0.075 S 
ATOM     12  C11 UNL     1       9.030   9.599  23.288  0.00  0.00    +0.040 A 
ATOM     13  C12 UNL     1       8.645   9.427  24.613  0.00  0.00    +0.030 A 
ENDBRANCH   3   5
BRANCH   1  14
ATOM     14  C3  UNL     1       8.279  11.941  27.420  0.00  0.00    +0.129 C 
BRANCH  14  16
ATOM     15  C1  UNL     1       7.877  13.614  29.283  0.00  0.00    +0.029 C 
ATOM     16  C2  UNL     1       8.922  12.756  28.561  0.00  0.00    +0.087 C 
BRANCH  16  17
ATOM     17  N3  UNL     1       9.984  13.615  28.026  0.00  0.00    -0.311 N 
ATOM     18  C13 UNL     1      11.064  14.097  28.840  0.00  0.00    +0.216 C 
ATOM     19  O2  UNL     1      11.205  13.672  30.020  0.00  0.00    -0.276 OA
ATOM     20  H14 UNL     1       9.974  13.875  27.014  0.00  0.00    +0.149 HD
BRANCH  18  21
ATOM     21  C14 UNL     1      12.086  15.037  28.249  0.00  0.00    +0.075 C 
ATOM     22  C15 UNL     1      13.523  14.714  28.661  0.00  0.00    +0.013 C 
ATOM     23  C16 UNL     1      13.888  14.462  27.206  0.00  0.00    +0.001 C 
ATOM     24  C17 UNL     1      12.454  14.759  26.790  0.00  0.00    +0.013 C 
ENDBRANCH  18  21
ENDBRANCH  16  17
ENDBRANCH  14  16
ENDBRANCH   1  14
TORSDOF 5
ENDMDL
MODEL 9
REMARK VINA RESULT:    -5.379      2.816      7.481
REMARK INTER + INTRA:          -7.841
REMARK INTER:                  -6.852
REMARK INTRA:                  -0.989
REMARK UNBOUND:                -0.891
REMARK  Name = /home/qwerty/github/datacon2025hack/step_04_hit_selection/docking/ligands/lig_103.pdb
REMARK  7 active torsions:
REMARK  status: ('A' for Active; 'I' for Inactive)
REMARK    1  A    between atoms: C1_1  and  C2_2
REMARK    2  A    between atoms: C2_2  and  C3_3
REMARK    3  A    between atoms: C2_2  and  N3_17
REMARK    4  A    between atoms: C3_3  and  N1_4
REMARK    5  A    between atoms: N1_4  and  C4_5
REMARK    6  A    between atoms: C5_6  and  C6_8
REMARK    7  A    between atoms: C13_18  and  C14_20
REMARK                            x       y       z     vdW  Elec       q    Type
REMARK                         _______ _______ _______ _____ _____    ______ ____
ROOT
ATOM      1  N1  UNL     1      21.870  15.507  21.057  0.00  0.00    -0.299 N 
ATOM      2  C4  UNL     1      22.927  16.494  21.299  0.00  0.00    +0.132 C 
ATOM      3  C5  UNL     1      21.718  14.975  19.725  0.00  0.00    +0.246 C 
ATOM      4  O1  UNL     1      21.965  15.710  18.732  0.00  0.00    -0.270 OA
ENDROOT
BRANCH   3   5
ATOM      5  C6  UNL     1      21.269  13.587  19.491  0.00  0.00    +0.038 A 
ATOM      6  C7  UNL     1      19.906  13.323  19.212  0.00  0.00    +0.015 A 
ATOM      7  C8  UNL     1      19.463  12.011  18.976  0.00  0.00    +0.029 A 
ATOM      8  C9  UNL     1      20.392  10.972  19.011  0.00  0.00    +0.078 A 
ATOM      9  N2  UNL     1      20.091   9.666  18.797  0.00  0.00    -0.247 NA
ATOM     10  C10 UNL     1      21.197   8.886  18.885  0.00  0.00    +0.157 A 
ATOM     11  S1  UNL     1      22.583   9.795  19.230  0.00  0.00    -0.075 S 
ATOM     12  C11 UNL     1      21.726  11.236  19.269  0.00  0.00    +0.040 A 
ATOM     13  C12 UNL     1      22.195  12.524  19.504  0.00  0.00    +0.030 A 
ENDBRANCH   3   5
BRANCH   1  14
ATOM     14  C3  UNL     1      20.927  15.150  22.133  0.00  0.00    +0.129 C 
BRANCH  14  16
ATOM     15  C1  UNL     1      20.374  12.897  23.158  0.00  0.00    +0.029 C 
ATOM     16  C2  UNL     1      21.451  13.974  22.980  0.00  0.00    +0.087 C 
BRANCH  16  17
ATOM     17  N3  UNL     1      21.888  14.458  24.295  0.00  0.00    -0.311 N 
ATOM     18  C13 UNL     1      23.271  14.501  24.676  0.00  0.00    +0.216 C 
ATOM     19  O2  UNL     1      24.169  14.251  23.826  0.00  0.00    -0.276 OA
ATOM     20  H14 UNL     1      21.176  14.805  24.976  0.00  0.00    +0.149 HD
BRANCH  18  21
ATOM     21  C14 UNL     1      23.651  14.941  26.069  0.00  0.00    +0.075 C 
ATOM     22  C15 UNL     1      22.529  15.672  26.806  0.00  0.00    +0.013 C 
ATOM     23  C16 UNL     1      22.512  14.584  27.869  0.00  0.00    +0.001 C 
ATOM     24  C17 UNL     1      23.613  13.838  27.129  0.00  0.00    +0.013 C 
ENDBRANCH  18  21
ENDBRANCH  16  17
ENDBRANCH  14  16
ENDBRANCH   1  14
TORSDOF 5
ENDMDL
