MODEL 1
REMARK VINA RESULT:    -5.768      0.000      0.000
REMARK INTER + INTRA:          -7.278
REMARK INTER:                  -6.780
REMARK INTRA:                  -0.498
REMARK UNBOUND:                -0.498
REMARK  Name = /home/qwerty/github/datacon2025hack/step_04_hit_selection/docking/ligands/lig_471.pdb
REMARK  4 active torsions:
REMARK  status: ('A' for Active; 'I' for Inactive)
REMARK    1  A    between atoms: C1_1  and  N1_2
REMARK    2  A    between atoms: C4_5  and  N2_6
REMARK    3  A    between atoms: C7_9  and  N3_10
REMARK    4  A    between atoms: C8_11  and  C9_13
REMARK                            x       y       z     vdW  Elec       q    Type
REMARK                         _______ _______ _______ _____ _____    ______ ____
ROOT
ATOM      1  N2  UNL     1      23.301   7.175  33.141  0.00  0.00    -0.297 NA
ATOM      2  C5  UNL     1      22.460   7.888  32.161  0.00  0.00    +0.086 C 
ATOM      3  C6  UNL     1      21.761   6.852  31.289  0.00  0.00    +0.039 C 
ATOM      4  C7  UNL     1      21.885   5.552  32.057  0.00  0.00    +0.088 C 
ATOM      5  C15 UNL     1      23.160   5.735  32.869  0.00  0.00    +0.107 C 
ENDROOT
BRANCH   1  10
ATOM      6  C1  UNL     1      20.397   6.854  37.076  0.00  0.00    +0.104 C 
ATOM      7  N1  UNL     1      21.635   7.652  37.129  0.00  0.00    -0.305 NA
ATOM      8  C2  UNL     1      21.602   8.819  36.221  0.00  0.00    +0.085 C 
ATOM      9  C3  UNL     1      21.762   8.429  34.743  0.00  0.00    +0.034 C 
ATOM     10  C4  UNL     1      23.052   7.598  34.546  0.00  0.00    +0.059 C 
ATOM     11  C16 UNL     1      23.057   6.383  35.488  0.00  0.00    +0.034 C 
ATOM     12  C17 UNL     1      22.849   6.828  36.946  0.00  0.00    +0.085 C 
ENDBRANCH   1  10
BRANCH   4  13
ATOM     13  N3  UNL     1      21.953   4.393  31.161  0.00  0.00    -0.307 N 
ATOM     14  C8  UNL     1      21.838   3.048  31.658  0.00  0.00    +0.244 C 
ATOM     15  O1  UNL     1      21.529   2.853  32.865  0.00  0.00    -0.270 OA
ATOM     16  H14 UNL     1      22.093   4.546  30.137  0.00  0.00    +0.149 HD
BRANCH  14  17
ATOM     17  C9  UNL     1      22.057   1.882  30.769  0.00  0.00    +0.037 A 
ATOM     18  C10 UNL     1      23.266   1.757  30.059  0.00  0.00    +0.016 A 
ATOM     19  C11 UNL     1      23.482   0.664  29.214  0.00  0.00    +0.039 A 
ATOM     20  C12 UNL     1      22.493  -0.310  29.062  0.00  0.00    +0.123 A 
ATOM     21  F1  UNL     1      22.704  -1.369  28.240  0.00  0.00    -0.205 F 
ATOM     22  C13 UNL     1      21.284  -0.190  29.750  0.00  0.00    +0.039 A 
ATOM     23  C14 UNL     1      21.062   0.900  30.597  0.00  0.00    +0.016 A 
ENDBRANCH  14  17
ENDBRANCH   4  13
TORSDOF 3
ENDMDL
MODEL 2
REMARK VINA RESULT:    -5.699      6.971      9.748
REMARK INTER + INTRA:          -7.196
REMARK INTER:                  -6.632
REMARK INTRA:                  -0.564
REMARK UNBOUND:                -0.498
REMARK  Name = /home/qwerty/github/datacon2025hack/step_04_hit_selection/docking/ligands/lig_471.pdb
REMARK  4 active torsions:
REMARK  status: ('A' for Active; 'I' for Inactive)
REMARK    1  A    between atoms: C1_1  and  N1_2
REMARK    2  A    between atoms: C4_5  and  N2_6
REMARK    3  A    between atoms: C7_9  and  N3_10
REMARK    4  A    between atoms: C8_11  and  C9_13
REMARK                            x       y       z     vdW  Elec       q    Type
REMARK                         _______ _______ _______ _____ _____    ______ ____
ROOT
ATOM      1  N2  UNL     1      19.067   2.366  28.000  0.00  0.00    -0.297 NA
ATOM      2  C5  UNL     1      17.982   1.529  28.547  0.00  0.00    +0.086 C 
ATOM      3  C6  UNL     1      17.302   0.814  27.386  0.00  0.00    +0.039 C 
ATOM      4  C7  UNL     1      18.280   0.926  26.235  0.00  0.00    +0.088 C 
ATOM      5  C15 UNL     1      19.045   2.207  26.537  0.00  0.00    +0.107 C 
ENDROOT
BRANCH   1  10
ATOM      6  C1  UNL     1      22.738  -0.771  28.838  0.00  0.00    +0.104 C 
ATOM      7  N1  UNL     1      22.799   0.603  29.366  0.00  0.00    -0.305 NA
ATOM      8  C2  UNL     1      21.752   0.875  30.376  0.00  0.00    +0.085 C 
ATOM      9  C3  UNL     1      20.355   1.037  29.756  0.00  0.00    +0.034 C 
ATOM     10  C4  UNL     1      20.379   2.130  28.660  0.00  0.00    +0.059 C 
ATOM     11  C16 UNL     1      21.465   1.818  27.616  0.00  0.00    +0.034 C 
ATOM     12  C17 UNL     1      22.830   1.623  28.296  0.00  0.00    +0.085 C 
ENDBRANCH   1  10
BRANCH   4  13
ATOM     13  N3  UNL     1      17.594   0.976  24.938  0.00  0.00    -0.307 N 
ATOM     14  C8  UNL     1      17.554  -0.164  24.062  0.00  0.00    +0.244 C 
ATOM     15  O1  UNL     1      17.991  -1.277  24.464  0.00  0.00    -0.270 OA
ATOM     16  H14 UNL     1      17.126   1.861  24.642  0.00  0.00    +0.149 HD
BRANCH  14  17
ATOM     17  C9  UNL     1      16.991  -0.060  22.695  0.00  0.00    +0.037 A 
ATOM     18  C10 UNL     1      17.064  -1.159  21.819  0.00  0.00    +0.016 A 
ATOM     19  C11 UNL     1      16.540  -1.071  20.525  0.00  0.00    +0.039 A 
ATOM     20  C12 UNL     1      15.946   0.115  20.089  0.00  0.00    +0.123 A 
ATOM     21  F1  UNL     1      15.441   0.199  18.834  0.00  0.00    -0.205 F 
ATOM     22  C13 UNL     1      15.880   1.218  20.944  0.00  0.00    +0.039 A 
ATOM     23  C14 UNL     1      16.401   1.135  22.239  0.00  0.00    +0.016 A 
ENDBRANCH  14  17
ENDBRANCH   4  13
TORSDOF 3
ENDMDL
MODEL 3
REMARK VINA RESULT:    -5.658     16.192     18.418
REMARK INTER + INTRA:          -7.149
REMARK INTER:                  -6.550
REMARK INTRA:                  -0.599
REMARK UNBOUND:                -0.498
REMARK  Name = /home/qwerty/github/datacon2025hack/step_04_hit_selection/docking/ligands/lig_471.pdb
REMARK  4 active torsions:
REMARK  status: ('A' for Active; 'I' for Inactive)
REMARK    1  A    between atoms: C1_1  and  N1_2
REMARK    2  A    between atoms: C4_5  and  N2_6
REMARK    3  A    between atoms: C7_9  and  N3_10
REMARK    4  A    between atoms: C8_11  and  C9_13
REMARK                            x       y       z     vdW  Elec       q    Type
REMARK                         _______ _______ _______ _____ _____    ______ ____
ROOT
ATOM      1  N2  UNL     1       9.048   8.983  21.546  0.00  0.00    -0.297 NA
ATOM      2  C5  UNL     1      10.487   9.073  21.857  0.00  0.00    +0.086 C 
ATOM      3  C6  UNL     1      10.635   9.568  23.291  0.00  0.00    +0.039 C 
ATOM      4  C7  UNL     1       9.274   9.348  23.919  0.00  0.00    +0.088 C 
ATOM      5  C15 UNL     1       8.316   9.440  22.739  0.00  0.00    +0.107 C 
ENDROOT
BRANCH   1  10
ATOM      6  C1  UNL     1       7.582   4.414  22.543  0.00  0.00    +0.104 C 
ATOM      7  N1  UNL     1       7.709   4.866  21.146  0.00  0.00    -0.305 NA
ATOM      8  C2  UNL     1       9.105   5.179  20.772  0.00  0.00    +0.085 C 
ATOM      9  C3  UNL     1       9.604   6.499  21.380  0.00  0.00    +0.034 C 
ATOM     10  C4  UNL     1       8.647   7.656  21.006  0.00  0.00    +0.059 C 
ATOM     11  C16 UNL     1       7.206   7.314  21.418  0.00  0.00    +0.034 C 
ATOM     12  C17 UNL     1       6.776   5.965  20.818  0.00  0.00    +0.085 C 
ENDBRANCH   1  10
BRANCH   4  13
ATOM     13  N3  UNL     1       8.983  10.346  24.955  0.00  0.00    -0.307 N 
ATOM     14  C8  UNL     1       8.973  10.002  26.351  0.00  0.00    +0.244 C 
ATOM     15  O1  UNL     1       9.359   8.858  26.715  0.00  0.00    -0.270 OA
ATOM     16  H14 UNL     1       8.775  11.330  24.672  0.00  0.00    +0.149 HD
BRANCH  14  17
ATOM     17  C9  UNL     1       8.534  10.977  27.377  0.00  0.00    +0.037 A 
ATOM     18  C10 UNL     1       8.521  12.354  27.079  0.00  0.00    +0.016 A 
ATOM     19  C11 UNL     1       8.113  13.283  28.040  0.00  0.00    +0.039 A 
ATOM     20  C12 UNL     1       7.722  12.853  29.309  0.00  0.00    +0.123 A 
ATOM     21  F1  UNL     1       7.328  13.757  30.241  0.00  0.00    -0.205 F 
ATOM     22  C13 UNL     1       7.743  11.492  29.622  0.00  0.00    +0.039 A 
ATOM     23  C14 UNL     1       8.149  10.557  28.664  0.00  0.00    +0.016 A 
ENDBRANCH  14  17
ENDBRANCH   4  13
TORSDOF 3
ENDMDL
MODEL 4
REMARK VINA RESULT:    -5.651     12.087     14.283
REMARK INTER + INTRA:          -7.140
REMARK INTER:                  -6.542
REMARK INTRA:                  -0.598
REMARK UNBOUND:                -0.498
REMARK  Name = /home/qwerty/github/datacon2025hack/step_04_hit_selection/docking/ligands/lig_471.pdb
REMARK  4 active torsions:
REMARK  status: ('A' for Active; 'I' for Inactive)
REMARK    1  A    between atoms: C1_1  and  N1_2
REMARK    2  A    between atoms: C4_5  and  N2_6
REMARK    3  A    between atoms: C7_9  and  N3_10
REMARK    4  A    between atoms: C8_11  and  C9_13
REMARK                            x       y       z     vdW  Elec       q    Type
REMARK                         _______ _______ _______ _____ _____    ______ ____
ROOT
ATOM      1  N2  UNL     1      11.956  13.040  35.899  0.00  0.00    -0.297 NA
ATOM      2  C5  UNL     1      11.690  11.590  35.855  0.00  0.00    +0.086 C 
ATOM      3  C6  UNL     1      11.286  11.222  34.432  0.00  0.00    +0.039 C 
ATOM      4  C7  UNL     1      11.736  12.395  33.586  0.00  0.00    +0.088 C 
ATOM      5  C15 UNL     1      11.693  13.572  34.551  0.00  0.00    +0.107 C 
ENDROOT
BRANCH   1  10
ATOM      6  C1  UNL     1      16.779  13.483  35.152  0.00  0.00    +0.104 C 
ATOM      7  N1  UNL     1      16.196  13.817  36.463  0.00  0.00    -0.305 NA
ATOM      8  C2  UNL     1      15.612  12.641  37.144  0.00  0.00    +0.085 C 
ATOM      9  C3  UNL     1      14.280  12.193  36.522  0.00  0.00    +0.034 C 
ATOM     10  C4  UNL     1      13.283  13.376  36.482  0.00  0.00    +0.059 C 
ATOM     11  C16 UNL     1      13.907  14.580  35.757  0.00  0.00    +0.034 C 
ATOM     12  C17 UNL     1      15.255  14.956  36.394  0.00  0.00    +0.085 C 
ENDBRANCH   1  10
BRANCH   4  13
ATOM     13  N3  UNL     1      10.867  12.595  32.421  0.00  0.00    -0.307 N 
ATOM     14  C8  UNL     1      11.401  12.945  31.133  0.00  0.00    +0.244 C 
ATOM     15  O1  UNL     1      12.650  12.946  30.954  0.00  0.00    -0.270 OA
ATOM     16  H14 UNL     1       9.834  12.482  32.530  0.00  0.00    +0.149 HD
BRANCH  14  17
ATOM     17  C9  UNL     1      10.508  13.290  30.001  0.00  0.00    +0.037 A 
ATOM     18  C10 UNL     1       9.116  13.115  30.126  0.00  0.00    +0.016 A 
ATOM     19  C11 UNL     1       8.264  13.433  29.064  0.00  0.00    +0.039 A 
ATOM     20  C12 UNL     1       8.789  13.918  27.865  0.00  0.00    +0.123 A 
ATOM     21  F1  UNL     1       7.960  14.223  26.836  0.00  0.00    -0.205 F 
ATOM     22  C13 UNL     1      10.169  14.081  27.724  0.00  0.00    +0.039 A 
ATOM     23  C14 UNL     1      11.026  13.768  28.783  0.00  0.00    +0.016 A 
ENDBRANCH  14  17
ENDBRANCH   4  13
TORSDOF 3
ENDMDL
MODEL 5
REMARK VINA RESULT:    -5.621      5.732      8.648
REMARK INTER + INTRA:          -7.105
REMARK INTER:                  -6.839
REMARK INTRA:                  -0.265
REMARK UNBOUND:                -0.498
REMARK  Name = /home/qwerty/github/datacon2025hack/step_04_hit_selection/docking/ligands/lig_471.pdb
REMARK  4 active torsions:
REMARK  status: ('A' for Active; 'I' for Inactive)
REMARK    1  A    between atoms: C1_1  and  N1_2
REMARK    2  A    between atoms: C4_5  and  N2_6
REMARK    3  A    between atoms: C7_9  and  N3_10
REMARK    4  A    between atoms: C8_11  and  C9_13
REMARK                            x       y       z     vdW  Elec       q    Type
REMARK                         _______ _______ _______ _____ _____    ______ ____
ROOT
ATOM      1  N2  UNL     1      16.716  10.543  36.690  0.00  0.00    -0.297 NA
ATOM      2  C5  UNL     1      16.698   9.996  38.060  0.00  0.00    +0.086 C 
ATOM      3  C6  UNL     1      18.077   9.423  38.362  0.00  0.00    +0.039 C 
ATOM      4  C7  UNL     1      18.987  10.029  37.313  0.00  0.00    +0.088 C 
ATOM      5  C15 UNL     1      18.056  10.288  36.137  0.00  0.00    +0.107 C 
ENDROOT
BRANCH   1  10
ATOM      6  C1  UNL     1      13.811  13.777  34.426  0.00  0.00    +0.104 C 
ATOM      7  N1  UNL     1      14.620  14.189  35.587  0.00  0.00    -0.305 NA
ATOM      8  C2  UNL     1      16.074  14.120  35.323  0.00  0.00    +0.085 C 
ATOM      9  C3  UNL     1      16.607  12.679  35.300  0.00  0.00    +0.034 C 
ATOM     10  C4  UNL     1      16.237  11.949  36.613  0.00  0.00    +0.059 C 
ATOM     11  C16 UNL     1      14.721  12.022  36.858  0.00  0.00    +0.034 C 
ATOM     12  C17 UNL     1      14.236  13.481  36.827  0.00  0.00    +0.085 C 
ENDBRANCH   1  10
BRANCH   4  13
ATOM     13  N3  UNL     1      20.093   9.130  36.964  0.00  0.00    -0.307 N 
ATOM     14  C8  UNL     1      21.083   9.496  35.987  0.00  0.00    +0.244 C 
ATOM     15  O1  UNL     1      21.093  10.667  35.517  0.00  0.00    -0.270 OA
ATOM     16  H14 UNL     1      20.162   8.200  37.434  0.00  0.00    +0.149 HD
BRANCH  14  17
ATOM     17  C9  UNL     1      22.107   8.526  35.534  0.00  0.00    +0.037 A 
ATOM     18  C10 UNL     1      22.654   8.634  34.240  0.00  0.00    +0.016 A 
ATOM     19  C11 UNL     1      23.617   7.722  33.800  0.00  0.00    +0.039 A 
ATOM     20  C12 UNL     1      24.039   6.688  34.638  0.00  0.00    +0.123 A 
ATOM     21  F1  UNL     1      24.972   5.803  34.208  0.00  0.00    -0.205 F 
ATOM     22  C13 UNL     1      23.493   6.561  35.918  0.00  0.00    +0.039 A 
ATOM     23  C14 UNL     1      22.531   7.472  36.365  0.00  0.00    +0.016 A 
ENDBRANCH  14  17
ENDBRANCH   4  13
TORSDOF 3
ENDMDL
MODEL 6
REMARK VINA RESULT:    -5.583      3.713      8.355
REMARK INTER + INTRA:          -7.060
REMARK INTER:                  -6.489
REMARK INTRA:                  -0.571
REMARK UNBOUND:                -0.498
REMARK  Name = /home/qwerty/github/datacon2025hack/step_04_hit_selection/docking/ligands/lig_471.pdb
REMARK  4 active torsions:
REMARK  status: ('A' for Active; 'I' for Inactive)
REMARK    1  A    between atoms: C1_1  and  N1_2
REMARK    2  A    between atoms: C4_5  and  N2_6
REMARK    3  A    between atoms: C7_9  and  N3_10
REMARK    4  A    between atoms: C8_11  and  C9_13
REMARK                            x       y       z     vdW  Elec       q    Type
REMARK                         _______ _______ _______ _____ _____    ______ ____
ROOT
ATOM      1  N2  UNL     1      22.124   0.953  29.620  0.00  0.00    -0.297 NA
ATOM      2  C5  UNL     1      21.016   0.296  30.337  0.00  0.00    +0.086 C 
ATOM      3  C6  UNL     1      20.627   1.174  31.521  0.00  0.00    +0.039 C 
ATOM      4  C7  UNL     1      21.237   2.526  31.217  0.00  0.00    +0.088 C 
ATOM      5  C15 UNL     1      22.444   2.189  30.353  0.00  0.00    +0.107 C 
ENDROOT
BRANCH   1  10
ATOM      6  C1  UNL     1      20.038   3.618  26.076  0.00  0.00    +0.104 C 
ATOM      7  N1  UNL     1      20.833   2.424  25.738  0.00  0.00    -0.305 NA
ATOM      8  C2  UNL     1      20.225   1.173  26.241  0.00  0.00    +0.085 C 
ATOM      9  C3  UNL     1      20.379   1.004  27.760  0.00  0.00    +0.034 C 
ATOM     10  C4  UNL     1      21.869   1.108  28.162  0.00  0.00    +0.059 C 
ATOM     11  C16 UNL     1      22.475   2.423  27.642  0.00  0.00    +0.034 C 
ATOM     12  C17 UNL     1      22.253   2.558  26.126  0.00  0.00    +0.085 C 
ENDBRANCH   1  10
BRANCH   4  13
ATOM     13  N3  UNL     1      21.609   3.245  32.441  0.00  0.00    -0.307 N 
ATOM     14  C8  UNL     1      21.642   4.682  32.491  0.00  0.00    +0.244 C 
ATOM     15  O1  UNL     1      21.209   5.351  31.513  0.00  0.00    -0.270 OA
ATOM     16  H14 UNL     1      21.858   2.701  33.297  0.00  0.00    +0.149 HD
BRANCH  14  17
ATOM     17  C9  UNL     1      22.161   5.395  33.682  0.00  0.00    +0.037 A 
ATOM     18  C10 UNL     1      23.531   5.706  33.774  0.00  0.00    +0.016 A 
ATOM     19  C11 UNL     1      24.033   6.374  34.895  0.00  0.00    +0.039 A 
ATOM     20  C12 UNL     1      23.177   6.732  35.939  0.00  0.00    +0.123 A 
ATOM     21  F1  UNL     1      23.666   7.378  37.026  0.00  0.00    -0.205 F 
ATOM     22  C13 UNL     1      21.818   6.416  35.866  0.00  0.00    +0.039 A 
ATOM     23  C14 UNL     1      21.310   5.750  34.747  0.00  0.00    +0.016 A 
ENDBRANCH  14  17
ENDBRANCH   4  13
TORSDOF 3
ENDMDL
MODEL 7
REMARK VINA RESULT:    -5.554     14.837     15.838
REMARK INTER + INTRA:          -7.026
REMARK INTER:                  -6.454
REMARK INTRA:                  -0.573
REMARK UNBOUND:                -0.498
REMARK  Name = /home/qwerty/github/datacon2025hack/step_04_hit_selection/docking/ligands/lig_471.pdb
REMARK  4 active torsions:
REMARK  status: ('A' for Active; 'I' for Inactive)
REMARK    1  A    between atoms: C1_1  and  N1_2
REMARK    2  A    between atoms: C4_5  and  N2_6
REMARK    3  A    between atoms: C7_9  and  N3_10
REMARK    4  A    between atoms: C8_11  and  C9_13
REMARK                            x       y       z     vdW  Elec       q    Type
REMARK                         _______ _______ _______ _____ _____    ______ ____
ROOT
ATOM      1  N2  UNL     1       8.281  12.629  28.405  0.00  0.00    -0.297 NA
ATOM      2  C5  UNL     1       7.931  11.498  29.285  0.00  0.00    +0.086 C 
ATOM      3  C6  UNL     1       7.952  10.222  28.452  0.00  0.00    +0.039 C 
ATOM      4  C7  UNL     1       8.726  10.587  27.203  0.00  0.00    +0.088 C 
ATOM      5  C15 UNL     1       8.481  12.083  27.053  0.00  0.00    +0.107 C 
ENDROOT
BRANCH   1  10
ATOM      6  C1  UNL     1      13.106  13.074  29.138  0.00  0.00    +0.104 C 
ATOM      7  N1  UNL     1      12.193  14.164  29.521  0.00  0.00    -0.305 NA
ATOM      8  C2  UNL     1      11.266  13.777  30.607  0.00  0.00    +0.085 C 
ATOM      9  C3  UNL     1      10.149  12.836  30.130  0.00  0.00    +0.034 C 
ATOM     10  C4  UNL     1       9.390  13.466  28.938  0.00  0.00    +0.059 C 
ATOM     11  C16 UNL     1      10.372  13.846  27.817  0.00  0.00    +0.034 C 
ATOM     12  C17 UNL     1      11.490  14.751  28.360  0.00  0.00    +0.085 C 
ENDBRANCH   1  10
BRANCH   4  13
ATOM     13  N3  UNL     1       8.268   9.826  26.035  0.00  0.00    -0.307 N 
ATOM     14  C8  UNL     1       9.158   8.968  25.298  0.00  0.00    +0.244 C 
ATOM     15  O1  UNL     1      10.319   8.747  25.738  0.00  0.00    -0.270 OA
ATOM     16  H14 UNL     1       7.274   9.910  25.728  0.00  0.00    +0.149 HD
BRANCH  14  17
ATOM     17  C9  UNL     1       8.727   8.321  24.036  0.00  0.00    +0.037 A 
ATOM     18  C10 UNL     1       8.812   6.922  23.899  0.00  0.00    +0.016 A 
ATOM     19  C11 UNL     1       8.413   6.301  22.711  0.00  0.00    +0.039 A 
ATOM     20  C12 UNL     1       7.935   7.067  21.646  0.00  0.00    +0.123 A 
ATOM     21  F1  UNL     1       7.551   6.462  20.495  0.00  0.00    -0.205 F 
ATOM     22  C13 UNL     1       7.860   8.456  21.765  0.00  0.00    +0.039 A 
ATOM     23  C14 UNL     1       8.255   9.083  22.951  0.00  0.00    +0.016 A 
ENDBRANCH  14  17
ENDBRANCH   4  13
TORSDOF 3
ENDMDL
MODEL 8
REMARK VINA RESULT:    -5.471      7.082     11.575
REMARK INTER + INTRA:          -6.928
REMARK INTER:                  -6.349
REMARK INTRA:                  -0.579
REMARK UNBOUND:                -0.498
REMARK  Name = /home/qwerty/github/datacon2025hack/step_04_hit_selection/docking/ligands/lig_471.pdb
REMARK  4 active torsions:
REMARK  status: ('A' for Active; 'I' for Inactive)
REMARK    1  A    between atoms: C1_1  and  N1_2
REMARK    2  A    between atoms: C4_5  and  N2_6
REMARK    3  A    between atoms: C7_9  and  N3_10
REMARK    4  A    between atoms: C8_11  and  C9_13
REMARK                            x       y       z     vdW  Elec       q    Type
REMARK                         _______ _______ _______ _____ _____    ______ ____
ROOT
ATOM      1  N2  UNL     1      16.276  -1.167  24.851  0.00  0.00    -0.297 NA
ATOM      2  C5  UNL     1      15.438  -0.461  25.838  0.00  0.00    +0.086 C 
ATOM      3  C6  UNL     1      16.350   0.381  26.722  0.00  0.00    +0.039 C 
ATOM      4  C7  UNL     1      17.654   0.472  25.957  0.00  0.00    +0.088 C 
ATOM      5  C15 UNL     1      17.675  -0.806  25.130  0.00  0.00    +0.107 C 
ENDROOT
BRANCH   1  10
ATOM      6  C1  UNL     1      16.313   1.713  20.886  0.00  0.00    +0.104 C 
ATOM      7  N1  UNL     1      15.624   0.411  20.852  0.00  0.00    -0.305 NA
ATOM      8  C2  UNL     1      14.466   0.354  21.770  0.00  0.00    +0.085 C 
ATOM      9  C3  UNL     1      14.880   0.242  23.246  0.00  0.00    +0.034 C 
ATOM     10  C4  UNL     1      15.821  -0.970  23.448  0.00  0.00    +0.059 C 
ATOM     11  C16 UNL     1      17.023  -0.880  22.494  0.00  0.00    +0.034 C 
ATOM     12  C17 UNL     1      16.551  -0.726  21.038  0.00  0.00    +0.085 C 
ENDBRANCH   1  10
BRANCH   4  13
ATOM     13  N3  UNL     1      18.809   0.574  26.857  0.00  0.00    -0.307 N 
ATOM     14  C8  UNL     1      20.051   1.157  26.426  0.00  0.00    +0.244 C 
ATOM     15  O1  UNL     1      20.118   1.723  25.300  0.00  0.00    -0.270 OA
ATOM     16  H14 UNL     1      18.729   0.213  27.833  0.00  0.00    +0.149 HD
BRANCH  14  17
ATOM     17  C9  UNL     1      21.255   1.121  27.290  0.00  0.00    +0.037 A 
ATOM     18  C10 UNL     1      21.518  -0.013  28.082  0.00  0.00    +0.016 A 
ATOM     19  C11 UNL     1      22.648  -0.056  28.904  0.00  0.00    +0.039 A 
ATOM     20  C12 UNL     1      23.521   1.032  28.954  0.00  0.00    +0.123 A 
ATOM     21  F1  UNL     1      24.615   0.989  29.755  0.00  0.00    -0.205 F 
ATOM     22  C13 UNL     1      23.263   2.169  28.185  0.00  0.00    +0.039 A 
ATOM     23  C14 UNL     1      22.136   2.218  27.358  0.00  0.00    +0.016 A 
ENDBRANCH  14  17
ENDBRANCH   4  13
TORSDOF 3
ENDMDL
MODEL 9
REMARK VINA RESULT:    -5.443     13.316     16.261
REMARK INTER + INTRA:          -6.895
REMARK INTER:                  -6.435
REMARK INTRA:                  -0.460
REMARK UNBOUND:                -0.498
REMARK  Name = /home/qwerty/github/datacon2025hack/step_04_hit_selection/docking/ligands/lig_471.pdb
REMARK  4 active torsions:
REMARK  status: ('A' for Active; 'I' for Inactive)
REMARK    1  A    between atoms: C1_1  and  N1_2
REMARK    2  A    between atoms: C4_5  and  N2_6
REMARK    3  A    between atoms: C7_9  and  N3_10
REMARK    4  A    between atoms: C8_11  and  C9_13
REMARK                            x       y       z     vdW  Elec       q    Type
REMARK                         _______ _______ _______ _____ _____    ______ ____
ROOT
ATOM      1  N2  UNL     1      14.524   0.662  21.038  0.00  0.00    -0.297 NA
ATOM      2  C5  UNL     1      15.094   1.582  20.035  0.00  0.00    +0.086 C 
ATOM      3  C6  UNL     1      14.156   2.776  19.898  0.00  0.00    +0.039 C 
ATOM      4  C7  UNL     1      13.280   2.725  21.132  0.00  0.00    +0.088 C 
ATOM      5  C15 UNL     1      13.250   1.246  21.490  0.00  0.00    +0.107 C 
ENDROOT
BRANCH   1  10
ATOM      6  C1  UNL     1      15.842  -2.624  24.426  0.00  0.00    +0.104 C 
ATOM      7  N1  UNL     1      16.657  -1.417  24.205  0.00  0.00    -0.305 NA
ATOM      8  C2  UNL     1      15.941  -0.171  24.556  0.00  0.00    +0.085 C 
ATOM      9  C3  UNL     1      14.866   0.208  23.525  0.00  0.00    +0.034 C 
ATOM     10  C4  UNL     1      15.488   0.295  22.111  0.00  0.00    +0.059 C 
ATOM     11  C16 UNL     1      16.214  -1.016  21.763  0.00  0.00    +0.034 C 
ATOM     12  C17 UNL     1      17.245  -1.368  22.849  0.00  0.00    +0.085 C 
ENDBRANCH   1  10
BRANCH   4  13
ATOM     13  N3  UNL     1      11.940   3.265  20.873  0.00  0.00    -0.307 N 
ATOM     14  C8  UNL     1      11.623   4.646  21.120  0.00  0.00    +0.244 C 
ATOM     15  O1  UNL     1      12.542   5.452  21.431  0.00  0.00    -0.270 OA
ATOM     16  H14 UNL     1      11.197   2.631  20.503  0.00  0.00    +0.149 HD
BRANCH  14  17
ATOM     17  C9  UNL     1      10.233   5.146  20.998  0.00  0.00    +0.037 A 
ATOM     18  C10 UNL     1       9.150   4.274  21.218  0.00  0.00    +0.016 A 
ATOM     19  C11 UNL     1       7.835   4.733  21.101  0.00  0.00    +0.039 A 
ATOM     20  C12 UNL     1       7.585   6.063  20.755  0.00  0.00    +0.123 A 
ATOM     21  F1  UNL     1       6.308   6.505  20.640  0.00  0.00    -0.205 F 
ATOM     22  C13 UNL     1       8.651   6.934  20.519  0.00  0.00    +0.039 A 
ATOM     23  C14 UNL     1       9.969   6.481  20.636  0.00  0.00    +0.016 A 
ENDBRANCH  14  17
ENDBRANCH   4  13
TORSDOF 3
ENDMDL
