REMARK  Name = /home/qwerty/github/datacon2025hack/step_04_hit_selection/docking/ligands/lig_715.pdb
REMARK  5 active torsions:
REMARK  status: ('A' for Active; 'I' for Inactive)
REMARK    1  A    between atoms: C1_1  and  O1_2
REMARK    2  A    between atoms: O1_2  and  C2_3
REMARK    3  A    between atoms: C4_5  and  C5_6
REMARK    4  A    between atoms: C6_9  and  C7_10
REMARK    5  A    between atoms: N3_19  and  C14_20
REMARK                            x       y       z     vdW  Elec       q    Type
REMARK                         _______ _______ _______ _____ _____    ______ ____
ROOT
ATOM      1  C5  UNL     1      -2.227  -0.246   0.219  0.00  0.00    +0.202 A 
ATOM      2  N1  UNL     1      -2.176  -1.143   1.225  0.00  0.00    -0.056 NA
ATOM      3  O2  UNL     1      -0.912  -1.288   1.482  0.00  0.00    -0.332 OA
ATOM      4  C6  UNL     1      -0.207  -0.525   0.683  0.00  0.00    +0.260 A 
ATOM      5  N4  UNL     1      -0.999   0.173  -0.155  0.00  0.00    -0.187 NA
ENDROOT
BRANCH   4   6
ATOM      6  C7  UNL     1       1.266  -0.440   0.700  0.00  0.00    +0.061 A 
ATOM      7  C8  UNL     1       2.012  -1.203   1.612  0.00  0.00    +0.126 A 
ATOM      8  N2  UNL     1       3.370  -1.130   1.620  0.00  0.00    -0.236 NA
ATOM      9  C9  UNL     1       4.049  -0.319   0.762  0.00  0.00    +0.163 A 
ATOM     10  C10 UNL     1       3.342   0.477  -0.148  0.00  0.00    +0.161 A 
ATOM     11  C11 UNL     1       1.949   0.405  -0.188  0.00  0.00    +0.064 A 
ATOM     12  O3  UNL     1       4.039   1.331  -1.008  0.00  0.00    -0.487 OA
ATOM     13  C12 UNL     1       5.419   1.632  -0.796  0.00  0.00    +0.248 C 
ATOM     14  C13 UNL     1       6.182   0.376  -0.359  0.00  0.00    +0.147 C 
ATOM     15  N3  UNL     1       5.488  -0.279   0.760  0.00  0.00    -0.312 N 
ATOM     16  C14 UNL     1       6.248  -0.967   1.806  0.00  0.00    +0.131 C 
ENDBRANCH   4   6
BRANCH   1  19
ATOM     17  C2  UNL     1      -5.924   0.191  -0.549  0.00  0.00    +0.156 A 
ATOM     18  C3  UNL     1      -4.726  -0.258   0.043  0.00  0.00    +0.060 A 
ATOM     19  C4  UNL     1      -3.483   0.226  -0.403  0.00  0.00    +0.026 A 
ATOM     20  C15 UNL     1      -3.448   1.164  -1.448  0.00  0.00    +0.015 A 
ATOM     21  C16 UNL     1      -4.634   1.610  -2.036  0.00  0.00    +0.043 A 
ATOM     22  C17 UNL     1      -5.866   1.126  -1.589  0.00  0.00    +0.165 A 
ATOM     23  F1  UNL     1      -7.009   1.569  -2.169  0.00  0.00    -0.202 F 
BRANCH  17  25
ATOM     24  C1  UNL     1      -7.395  -1.214   0.909  0.00  0.00    +0.277 C 
ATOM     25  O1  UNL     1      -7.184  -0.267  -0.133  0.00  0.00    -0.492 OA
ENDBRANCH  17  25
ENDBRANCH   1  19
TORSDOF 3
