MODEL 1
REMARK VINA RESULT:    -6.106      0.000      0.000
REMARK INTER + INTRA:          -7.962
REMARK INTER:                  -7.356
REMARK INTRA:                  -0.607
REMARK UNBOUND:                -0.607
REMARK  Name = /home/qwerty/github/datacon2025hack/step_04_hit_selection/docking/ligands/lig_125.pdb
REMARK  7 active torsions:
REMARK  status: ('A' for Active; 'I' for Inactive)
REMARK    1  A    between atoms: C1_1  and  C2_2
REMARK    2  A    between atoms: C4_4  and  C5_5
REMARK    3  A    between atoms: C8_10  and  N2_11
REMARK    4  A    between atoms: C9_12  and  C10_14
REMARK    5  A    between atoms: C14_19  and  O3_20
REMARK    6  A    between atoms: C16_22  and  C17_23
REMARK    7  A    between atoms: N4_24  and  C18_25
REMARK                            x       y       z     vdW  Elec       q    Type
REMARK                         _______ _______ _______ _____ _____    ______ ____
ROOT
ATOM      1  C5  UNL     1      18.359   3.189  34.306  0.00  0.00    +0.248 C 
ATOM      2  O1  UNL     1      18.582   4.424  34.430  0.00  0.00    -0.270 OA
ATOM      3  N1  UNL     1      19.279   2.372  33.560  0.00  0.00    -0.295 N 
ATOM      4  C6  UNL     1      20.727   2.571  33.716  0.00  0.00    +0.110 C 
ATOM      5  C7  UNL     1      21.396   2.592  32.340  0.00  0.00    +0.044 C 
ATOM      6  C8  UNL     1      21.121   1.299  31.528  0.00  0.00    +0.105 C 
ATOM      7  C14 UNL     1      19.862   0.524  31.997  0.00  0.00    +0.152 C 
ATOM      8  C15 UNL     1      18.766   1.475  32.511  0.00  0.00    +0.141 C 
ENDROOT
BRANCH   1  12
ATOM      9  C1  UNL     1      13.508   2.154  35.167  0.00  0.00    +0.063 C 
ATOM     10  C2  UNL     1      15.001   2.172  35.284  0.00  0.00    +0.016 A 
ATOM     11  C3  UNL     1      15.850   2.868  34.445  0.00  0.00    +0.035 A 
ATOM     12  C4  UNL     1      17.132   2.623  34.898  0.00  0.00    +0.058 A 
ATOM     13  C16 UNL     1      17.013   1.810  36.021  0.00  0.00    +0.028 A 
ATOM     14  C17 UNL     1      18.131   1.362  36.920  0.00  0.00    +0.064 C 
ATOM     15  N4  UNL     1      15.710   1.509  36.227  0.00  0.00    -0.350 N 
ATOM     16  C18 UNL     1      15.163   0.729  37.337  0.00  0.00    +0.149 C 
ENDBRANCH   1  12
BRANCH   6  17
ATOM     17  N2  UNL     1      20.999   1.627  30.103  0.00  0.00    -0.306 N 
ATOM     18  C9  UNL     1      22.103   1.521  29.189  0.00  0.00    +0.246 C 
ATOM     19  O2  UNL     1      23.226   1.116  29.599  0.00  0.00    -0.270 OA
ATOM     20  H10 UNL     1      20.039   1.768  29.716  0.00  0.00    +0.149 HD
BRANCH  18  21
ATOM     21  C10 UNL     1      21.947   1.873  27.764  0.00  0.00    +0.054 A 
ATOM     22  C11 UNL     1      22.631   2.874  27.098  0.00  0.00    +0.032 A 
ATOM     23  C12 UNL     1      22.165   2.862  25.798  0.00  0.00    +0.083 A 
ATOM     24  N3  UNL     1      21.233   1.904  25.651  0.00  0.00    -0.366 N 
ATOM     25  C13 UNL     1      21.091   1.296  26.843  0.00  0.00    +0.095 A 
ATOM     26  H13 UNL     1      20.712   1.677  24.776  0.00  0.00    +0.165 HD
ENDBRANCH  18  21
ENDBRANCH   6  17
BRANCH   7  27
ATOM     27  O3  UNL     1      20.222  -0.377  33.016  0.00  0.00    -0.388 OA
ATOM     28  H16 UNL     1      21.213  -0.367  33.073  0.00  0.00    +0.210 HD
ENDBRANCH   7  27
TORSDOF 4
ENDMDL
MODEL 2
REMARK VINA RESULT:    -6.065     13.064     15.738
REMARK INTER + INTRA:          -7.913
REMARK INTER:                  -7.311
REMARK INTRA:                  -0.602
REMARK UNBOUND:                -0.607
REMARK  Name = /home/qwerty/github/datacon2025hack/step_04_hit_selection/docking/ligands/lig_125.pdb
REMARK  7 active torsions:
REMARK  status: ('A' for Active; 'I' for Inactive)
REMARK    1  A    between atoms: C1_1  and  C2_2
REMARK    2  A    between atoms: C4_4  and  C5_5
REMARK    3  A    between atoms: C8_10  and  N2_11
REMARK    4  A    between atoms: C9_12  and  C10_14
REMARK    5  A    between atoms: C14_19  and  O3_20
REMARK    6  A    between atoms: C16_22  and  C17_23
REMARK    7  A    between atoms: N4_24  and  C18_25
REMARK                            x       y       z     vdW  Elec       q    Type
REMARK                         _______ _______ _______ _____ _____    ______ ____
ROOT
ATOM      1  C5  UNL     1      15.287  13.991  29.842  0.00  0.00    +0.248 C 
ATOM      2  O1  UNL     1      15.600  13.527  30.971  0.00  0.00    -0.270 OA
ATOM      3  N1  UNL     1      13.907  14.268  29.545  0.00  0.00    -0.295 N 
ATOM      4  C6  UNL     1      13.052  14.897  30.561  0.00  0.00    +0.110 C 
ATOM      5  C7  UNL     1      11.711  14.163  30.635  0.00  0.00    +0.044 C 
ATOM      6  C8  UNL     1      10.978  14.130  29.268  0.00  0.00    +0.105 C 
ATOM      7  C14 UNL     1      11.916  14.342  28.051  0.00  0.00    +0.152 C 
ATOM      8  C15 UNL     1      13.315  13.750  28.300  0.00  0.00    +0.141 C 
ENDROOT
BRANCH   1  12
ATOM      9  C1  UNL     1      18.876  13.089  26.428  0.00  0.00    +0.063 C 
ATOM     10  C2  UNL     1      17.930  13.806  27.342  0.00  0.00    +0.016 A 
ATOM     11  C3  UNL     1      17.008  13.187  28.165  0.00  0.00    +0.035 A 
ATOM     12  C4  UNL     1      16.347  14.198  28.837  0.00  0.00    +0.058 A 
ATOM     13  C16 UNL     1      16.917  15.397  28.420  0.00  0.00    +0.028 A 
ATOM     14  C17 UNL     1      16.600  16.767  28.951  0.00  0.00    +0.064 C 
ATOM     15  N4  UNL     1      17.857  15.149  27.479  0.00  0.00    -0.350 N 
ATOM     16  C18 UNL     1      18.723  16.137  26.835  0.00  0.00    +0.149 C 
ENDBRANCH   1  12
BRANCH   6  17
ATOM     17  N2  UNL     1      10.259  12.858  29.124  0.00  0.00    -0.306 N 
ATOM     18  C9  UNL     1       8.968  12.767  28.498  0.00  0.00    +0.246 C 
ATOM     19  O2  UNL     1       8.418  13.802  28.033  0.00  0.00    -0.270 OA
ATOM     20  H10 UNL     1      10.785  11.977  29.321  0.00  0.00    +0.149 HD
BRANCH  18  21
ATOM     21  C10 UNL     1       8.270  11.472  28.383  0.00  0.00    +0.054 A 
ATOM     22  C11 UNL     1       7.653  10.791  29.417  0.00  0.00    +0.032 A 
ATOM     23  C12 UNL     1       7.146   9.630  28.867  0.00  0.00    +0.083 A 
ATOM     24  N3  UNL     1       7.430   9.579  27.554  0.00  0.00    -0.366 N 
ATOM     25  C13 UNL     1       8.116  10.696  27.248  0.00  0.00    +0.095 A 
ATOM     26  H13 UNL     1       7.172   8.813  26.894  0.00  0.00    +0.165 HD
ENDBRANCH  18  21
ENDBRANCH   6  17
BRANCH   7  27
ATOM     27  O3  UNL     1      12.027  15.719  27.784  0.00  0.00    -0.388 OA
ATOM     28  H16 UNL     1      11.754  16.197  28.610  0.00  0.00    +0.210 HD
ENDBRANCH   7  27
TORSDOF 4
ENDMDL
MODEL 3
REMARK VINA RESULT:    -6.036      5.396      9.279
REMARK INTER + INTRA:          -7.878
REMARK INTER:                  -7.509
REMARK INTRA:                  -0.369
REMARK UNBOUND:                -0.607
REMARK  Name = /home/qwerty/github/datacon2025hack/step_04_hit_selection/docking/ligands/lig_125.pdb
REMARK  7 active torsions:
REMARK  status: ('A' for Active; 'I' for Inactive)
REMARK    1  A    between atoms: C1_1  and  C2_2
REMARK    2  A    between atoms: C4_4  and  C5_5
REMARK    3  A    between atoms: C8_10  and  N2_11
REMARK    4  A    between atoms: C9_12  and  C10_14
REMARK    5  A    between atoms: C14_19  and  O3_20
REMARK    6  A    between atoms: C16_22  and  C17_23
REMARK    7  A    between atoms: N4_24  and  C18_25
REMARK                            x       y       z     vdW  Elec       q    Type
REMARK                         _______ _______ _______ _____ _____    ______ ____
ROOT
ATOM      1  C5  UNL     1      20.650   2.024  25.707  0.00  0.00    +0.248 C 
ATOM      2  O1  UNL     1      20.168   1.080  25.024  0.00  0.00    -0.270 OA
ATOM      3  N1  UNL     1      20.747   3.339  25.133  0.00  0.00    -0.295 N 
ATOM      4  C6  UNL     1      19.641   3.868  24.323  0.00  0.00    +0.110 C 
ATOM      5  C7  UNL     1      20.194   4.505  23.046  0.00  0.00    +0.044 C 
ATOM      6  C8  UNL     1      21.221   5.630  23.343  0.00  0.00    +0.105 C 
ATOM      7  C14 UNL     1      21.864   5.531  24.750  0.00  0.00    +0.152 C 
ATOM      8  C15 UNL     1      22.024   4.069  25.203  0.00  0.00    +0.141 C 
ENDROOT
BRANCH   1  12
ATOM      9  C1  UNL     1      23.735   1.084  29.574  0.00  0.00    +0.063 C 
ATOM     10  C2  UNL     1      22.493   1.319  28.769  0.00  0.00    +0.016 A 
ATOM     11  C3  UNL     1      22.472   1.599  27.416  0.00  0.00    +0.035 A 
ATOM     12  C4  UNL     1      21.142   1.740  27.069  0.00  0.00    +0.058 A 
ATOM     13  C16 UNL     1      20.399   1.506  28.222  0.00  0.00    +0.028 A 
ATOM     14  C17 UNL     1      18.901   1.445  28.320  0.00  0.00    +0.064 C 
ATOM     15  N4  UNL     1      21.235   1.287  29.263  0.00  0.00    -0.350 N 
ATOM     16  C18 UNL     1      20.847   0.945  30.632  0.00  0.00    +0.149 C 
ENDBRANCH   1  12
BRANCH   6  17
ATOM     17  N2  UNL     1      22.270   5.623  22.316  0.00  0.00    -0.306 N 
ATOM     18  C9  UNL     1      22.505   6.742  21.445  0.00  0.00    +0.246 C 
ATOM     19  O2  UNL     1      21.807   7.787  21.557  0.00  0.00    -0.270 OA
ATOM     20  H10 UNL     1      22.976   4.854  22.347  0.00  0.00    +0.149 HD
BRANCH  18  21
ATOM     21  C10 UNL     1      23.561   6.694  20.415  0.00  0.00    +0.054 A 
ATOM     22  C11 UNL     1      24.887   7.044  20.598  0.00  0.00    +0.032 A 
ATOM     23  C12 UNL     1      25.507   6.861  19.379  0.00  0.00    +0.083 A 
ATOM     24  N3  UNL     1      24.619   6.419  18.471  0.00  0.00    -0.366 N 
ATOM     25  C13 UNL     1      23.430   6.315  19.090  0.00  0.00    +0.095 A 
ATOM     26  H13 UNL     1      24.815   6.203  17.469  0.00  0.00    +0.165 HD
ENDBRANCH  18  21
ENDBRANCH   6  17
BRANCH   7  27
ATOM     27  O3  UNL     1      21.067   6.228  25.677  0.00  0.00    -0.388 OA
ATOM     28  H16 UNL     1      20.222   5.715  25.774  0.00  0.00    +0.210 HD
ENDBRANCH   7  27
TORSDOF 4
ENDMDL
MODEL 4
REMARK VINA RESULT:    -6.012      4.261     10.397
REMARK INTER + INTRA:          -7.849
REMARK INTER:                  -7.242
REMARK INTRA:                  -0.607
REMARK UNBOUND:                -0.607
REMARK  Name = /home/qwerty/github/datacon2025hack/step_04_hit_selection/docking/ligands/lig_125.pdb
REMARK  7 active torsions:
REMARK  status: ('A' for Active; 'I' for Inactive)
REMARK    1  A    between atoms: C1_1  and  C2_2
REMARK    2  A    between atoms: C4_4  and  C5_5
REMARK    3  A    between atoms: C8_10  and  N2_11
REMARK    4  A    between atoms: C9_12  and  C10_14
REMARK    5  A    between atoms: C14_19  and  O3_20
REMARK    6  A    between atoms: C16_22  and  C17_23
REMARK    7  A    between atoms: N4_24  and  C18_25
REMARK                            x       y       z     vdW  Elec       q    Type
REMARK                         _______ _______ _______ _____ _____    ______ ____
ROOT
ATOM      1  C5  UNL     1      19.493   4.598  23.814  0.00  0.00    +0.248 C 
ATOM      2  O1  UNL     1      18.312   4.184  23.665  0.00  0.00    -0.270 OA
ATOM      3  N1  UNL     1      20.440   3.797  24.543  0.00  0.00    -0.295 N 
ATOM      4  C6  UNL     1      20.478   2.342  24.340  0.00  0.00    +0.110 C 
ATOM      5  C7  UNL     1      20.552   1.634  25.694  0.00  0.00    +0.044 C 
ATOM      6  C8  UNL     1      21.777   2.086  26.533  0.00  0.00    +0.105 C 
ATOM      7  C14 UNL     1      22.343   3.468  26.114  0.00  0.00    +0.152 C 
ATOM      8  C15 UNL     1      21.233   4.413  25.620  0.00  0.00    +0.141 C 
ENDROOT
BRANCH   1  12
ATOM      9  C1  UNL     1      19.734   9.578  23.110  0.00  0.00    +0.063 C 
ATOM     10  C2  UNL     1      19.963   8.106  22.951  0.00  0.00    +0.016 A 
ATOM     11  C3  UNL     1      19.401   7.129  23.751  0.00  0.00    +0.035 A 
ATOM     12  C4  UNL     1      19.860   5.919  23.268  0.00  0.00    +0.058 A 
ATOM     13  C16 UNL     1      20.661   6.204  22.167  0.00  0.00    +0.028 A 
ATOM     14  C17 UNL     1      21.300   5.202  21.246  0.00  0.00    +0.064 C 
ATOM     15  N4  UNL     1      20.747   7.544  22.003  0.00  0.00    -0.350 N 
ATOM     16  C18 UNL     1      21.446   8.245  20.925  0.00  0.00    +0.149 C 
ENDBRANCH   1  12
BRANCH   6  17
ATOM     17  N2  UNL     1      21.419   2.107  27.956  0.00  0.00    -0.306 N 
ATOM     18  C9  UNL     1      21.778   1.047  28.858  0.00  0.00    +0.246 C 
ATOM     19  O2  UNL     1      22.439   0.058  28.439  0.00  0.00    -0.270 OA
ATOM     20  H10 UNL     1      21.053   3.001  28.353  0.00  0.00    +0.149 HD
BRANCH  18  21
ATOM     21  C10 UNL     1      21.389   1.096  30.281  0.00  0.00    +0.054 A 
ATOM     22  C11 UNL     1      20.493   0.247  30.905  0.00  0.00    +0.032 A 
ATOM     23  C12 UNL     1      20.420   0.660  32.220  0.00  0.00    +0.083 A 
ATOM     24  N3  UNL     1      21.228   1.717  32.417  0.00  0.00    -0.366 N 
ATOM     25  C13 UNL     1      21.822   1.993  31.242  0.00  0.00    +0.095 A 
ATOM     26  H13 UNL     1      21.364   2.233  33.314  0.00  0.00    +0.165 HD
ENDBRANCH  18  21
ENDBRANCH   6  17
BRANCH   7  27
ATOM     27  O3  UNL     1      23.300   3.291  25.098  0.00  0.00    -0.388 OA
ATOM     28  H16 UNL     1      22.815   3.340  24.233  0.00  0.00    +0.210 HD
ENDBRANCH   7  27
TORSDOF 4
ENDMDL
MODEL 5
REMARK VINA RESULT:    -5.923      8.334     11.604
REMARK INTER + INTRA:          -7.742
REMARK INTER:                  -7.121
REMARK INTRA:                  -0.621
REMARK UNBOUND:                -0.607
REMARK  Name = /home/qwerty/github/datacon2025hack/step_04_hit_selection/docking/ligands/lig_125.pdb
REMARK  7 active torsions:
REMARK  status: ('A' for Active; 'I' for Inactive)
REMARK    1  A    between atoms: C1_1  and  C2_2
REMARK    2  A    between atoms: C4_4  and  C5_5
REMARK    3  A    between atoms: C8_10  and  N2_11
REMARK    4  A    between atoms: C9_12  and  C10_14
REMARK    5  A    between atoms: C14_19  and  O3_20
REMARK    6  A    between atoms: C16_22  and  C17_23
REMARK    7  A    between atoms: N4_24  and  C18_25
REMARK                            x       y       z     vdW  Elec       q    Type
REMARK                         _______ _______ _______ _____ _____    ______ ____
ROOT
ATOM      1  C5  UNL     1      18.569   7.811  37.207  0.00  0.00    +0.248 C 
ATOM      2  O1  UNL     1      17.681   7.002  37.588  0.00  0.00    -0.270 OA
ATOM      3  N1  UNL     1      18.309   9.226  37.252  0.00  0.00    -0.295 N 
ATOM      4  C6  UNL     1      17.615   9.806  38.411  0.00  0.00    +0.110 C 
ATOM      5  C7  UNL     1      16.527  10.770  37.933  0.00  0.00    +0.044 C 
ATOM      6  C8  UNL     1      17.092  11.899  37.030  0.00  0.00    +0.105 C 
ATOM      7  C14 UNL     1      18.454  11.552  36.376  0.00  0.00    +0.152 C 
ATOM      8  C15 UNL     1      18.569  10.050  36.060  0.00  0.00    +0.141 C 
ENDROOT
BRANCH   1  12
ATOM      9  C1  UNL     1      23.457   6.687  36.771  0.00  0.00    +0.063 C 
ATOM     10  C2  UNL     1      21.990   6.790  36.485  0.00  0.00    +0.016 A 
ATOM     11  C3  UNL     1      21.066   7.398  37.314  0.00  0.00    +0.035 A 
ATOM     12  C4  UNL     1      19.842   7.279  36.684  0.00  0.00    +0.058 A 
ATOM     13  C16 UNL     1      20.073   6.631  35.476  0.00  0.00    +0.028 A 
ATOM     14  C17 UNL     1      19.060   6.368  34.397  0.00  0.00    +0.064 C 
ATOM     15  N4  UNL     1      21.382   6.303  35.380  0.00  0.00    -0.350 N 
ATOM     16  C18 UNL     1      22.037   5.664  34.237  0.00  0.00    +0.149 C 
ENDBRANCH   1  12
BRANCH   6  17
ATOM     17  N2  UNL     1      16.113  12.234  35.989  0.00  0.00    -0.306 N 
ATOM     18  C9  UNL     1      15.451  13.509  35.934  0.00  0.00    +0.246 C 
ATOM     19  O2  UNL     1      15.715  14.395  36.791  0.00  0.00    -0.270 OA
ATOM     20  H10 UNL     1      16.035  11.593  35.169  0.00  0.00    +0.149 HD
BRANCH  18  21
ATOM     21  C10 UNL     1      14.462  13.806  34.880  0.00  0.00    +0.054 A 
ATOM     22  C11 UNL     1      14.502  13.340  33.577  0.00  0.00    +0.032 A 
ATOM     23  C12 UNL     1      13.398  13.872  32.942  0.00  0.00    +0.083 A 
ATOM     24  N3  UNL     1      12.697  14.637  33.797  0.00  0.00    -0.366 N 
ATOM     25  C13 UNL     1      13.336  14.605  34.980  0.00  0.00    +0.095 A 
ATOM     26  H13 UNL     1      11.822  15.163  33.582  0.00  0.00    +0.165 HD
ENDBRANCH  18  21
ENDBRANCH   6  17
BRANCH   7  27
ATOM     27  O3  UNL     1      19.496  11.933  37.240  0.00  0.00    -0.388 OA
ATOM     28  H16 UNL     1      19.517  11.269  37.979  0.00  0.00    +0.210 HD
ENDBRANCH   7  27
TORSDOF 4
ENDMDL
MODEL 6
REMARK VINA RESULT:    -5.829      4.292     10.012
REMARK INTER + INTRA:          -7.628
REMARK INTER:                  -7.004
REMARK INTRA:                  -0.624
REMARK UNBOUND:                -0.607
REMARK  Name = /home/qwerty/github/datacon2025hack/step_04_hit_selection/docking/ligands/lig_125.pdb
REMARK  7 active torsions:
REMARK  status: ('A' for Active; 'I' for Inactive)
REMARK    1  A    between atoms: C1_1  and  C2_2
REMARK    2  A    between atoms: C4_4  and  C5_5
REMARK    3  A    between atoms: C8_10  and  N2_11
REMARK    4  A    between atoms: C9_12  and  C10_14
REMARK    5  A    between atoms: C14_19  and  O3_20
REMARK    6  A    between atoms: C16_22  and  C17_23
REMARK    7  A    between atoms: N4_24  and  C18_25
REMARK                            x       y       z     vdW  Elec       q    Type
REMARK                         _______ _______ _______ _____ _____    ______ ____
ROOT
ATOM      1  C5  UNL     1      18.896   3.275  23.892  0.00  0.00    +0.248 C 
ATOM      2  O1  UNL     1      17.796   2.662  23.942  0.00  0.00    -0.270 OA
ATOM      3  N1  UNL     1      20.004   2.810  24.683  0.00  0.00    -0.295 N 
ATOM      4  C6  UNL     1      20.277   1.369  24.786  0.00  0.00    +0.110 C 
ATOM      5  C7  UNL     1      20.546   0.997  26.246  0.00  0.00    +0.044 C 
ATOM      6  C8  UNL     1      21.721   1.806  26.856  0.00  0.00    +0.105 C 
ATOM      7  C14 UNL     1      22.020   3.131  26.108  0.00  0.00    +0.152 C 
ATOM      8  C15 UNL     1      20.741   3.762  25.531  0.00  0.00    +0.141 C 
ENDROOT
BRANCH   1  12
ATOM      9  C1  UNL     1      20.122   6.377  20.121  0.00  0.00    +0.063 C 
ATOM     10  C2  UNL     1      19.546   5.851  21.400  0.00  0.00    +0.016 A 
ATOM     11  C3  UNL     1      19.665   4.546  21.840  0.00  0.00    +0.035 A 
ATOM     12  C4  UNL     1      19.003   4.482  23.052  0.00  0.00    +0.058 A 
ATOM     13  C16 UNL     1      18.533   5.764  23.320  0.00  0.00    +0.028 A 
ATOM     14  C17 UNL     1      17.840   6.214  24.576  0.00  0.00    +0.064 C 
ATOM     15  N4  UNL     1      18.838   6.584  22.289  0.00  0.00    -0.350 N 
ATOM     16  C18 UNL     1      18.570   8.021  22.212  0.00  0.00    +0.149 C 
ENDBRANCH   1  12
BRANCH   6  17
ATOM     17  N2  UNL     1      21.445   2.086  28.270  0.00  0.00    -0.306 N 
ATOM     18  C9  UNL     1      21.880   1.216  29.329  0.00  0.00    +0.246 C 
ATOM     19  O2  UNL     1      22.540   0.175  29.059  0.00  0.00    -0.270 OA
ATOM     20  H10 UNL     1      21.081   3.033  28.517  0.00  0.00    +0.149 HD
BRANCH  18  21
ATOM     21  C10 UNL     1      21.573   1.524  30.739  0.00  0.00    +0.054 A 
ATOM     22  C11 UNL     1      22.043   2.612  31.451  0.00  0.00    +0.032 A 
ATOM     23  C12 UNL     1      21.521   2.497  32.724  0.00  0.00    +0.083 A 
ATOM     24  N3  UNL     1      20.762   1.391  32.813  0.00  0.00    -0.366 N 
ATOM     25  C13 UNL     1      20.787   0.789  31.610  0.00  0.00    +0.095 A 
ATOM     26  H13 UNL     1      20.252   1.057  33.660  0.00  0.00    +0.165 HD
ENDBRANCH  18  21
ENDBRANCH   6  17
BRANCH   7  27
ATOM     27  O3  UNL     1      22.935   2.882  25.069  0.00  0.00    -0.388 OA
ATOM     28  H16 UNL     1      23.269   3.765  24.759  0.00  0.00    +0.210 HD
ENDBRANCH   7  27
TORSDOF 4
ENDMDL
MODEL 7
REMARK VINA RESULT:    -5.794     12.963     14.194
REMARK INTER + INTRA:          -7.586
REMARK INTER:                  -6.953
REMARK INTRA:                  -0.633
REMARK UNBOUND:                -0.607
REMARK  Name = /home/qwerty/github/datacon2025hack/step_04_hit_selection/docking/ligands/lig_125.pdb
REMARK  7 active torsions:
REMARK  status: ('A' for Active; 'I' for Inactive)
REMARK    1  A    between atoms: C1_1  and  C2_2
REMARK    2  A    between atoms: C4_4  and  C5_5
REMARK    3  A    between atoms: C8_10  and  N2_11
REMARK    4  A    between atoms: C9_12  and  C10_14
REMARK    5  A    between atoms: C14_19  and  O3_20
REMARK    6  A    between atoms: C16_22  and  C17_23
REMARK    7  A    between atoms: N4_24  and  C18_25
REMARK                            x       y       z     vdW  Elec       q    Type
REMARK                         _______ _______ _______ _____ _____    ______ ____
ROOT
ATOM      1  C5  UNL     1       7.987   9.949  24.761  0.00  0.00    +0.248 C 
ATOM      2  O1  UNL     1       6.916  10.034  24.101  0.00  0.00    -0.270 OA
ATOM      3  N1  UNL     1       9.209   9.595  24.089  0.00  0.00    -0.295 N 
ATOM      4  C6  UNL     1       9.517  10.175  22.775  0.00  0.00    +0.110 C 
ATOM      5  C7  UNL     1      10.009   9.079  21.828  0.00  0.00    +0.044 C 
ATOM      6  C8  UNL     1      11.250   8.330  22.383  0.00  0.00    +0.105 C 
ATOM      7  C14 UNL     1      11.412   8.446  23.921  0.00  0.00    +0.152 C 
ATOM      8  C15 UNL     1      10.050   8.515  24.634  0.00  0.00    +0.141 C 
ENDROOT
BRANCH   1  12
ATOM      9  C1  UNL     1       8.519  12.110  29.277  0.00  0.00    +0.063 C 
ATOM     10  C2  UNL     1       8.186  11.118  28.205  0.00  0.00    +0.016 A 
ATOM     11  C3  UNL     1       8.373  11.326  26.852  0.00  0.00    +0.035 A 
ATOM     12  C4  UNL     1       7.946  10.174  26.218  0.00  0.00    +0.058 A 
ATOM     13  C16 UNL     1       7.545   9.292  27.216  0.00  0.00    +0.028 A 
ATOM     14  C17 UNL     1       7.100   7.870  27.022  0.00  0.00    +0.064 C 
ATOM     15  N4  UNL     1       7.660   9.891  28.424  0.00  0.00    -0.350 N 
ATOM     16  C18 UNL     1       7.394   9.279  29.726  0.00  0.00    +0.149 C 
ENDBRANCH   1  12
BRANCH   6  17
ATOM     17  N2  UNL     1      11.186   6.915  21.996  0.00  0.00    -0.306 N 
ATOM     18  C9  UNL     1      12.329   6.199  21.498  0.00  0.00    +0.246 C 
ATOM     19  O2  UNL     1      13.443   6.781  21.396  0.00  0.00    -0.270 OA
ATOM     20  H10 UNL     1      10.333   6.376  22.263  0.00  0.00    +0.149 HD
BRANCH  18  21
ATOM     21  C10 UNL     1      12.224   4.780  21.107  0.00  0.00    +0.054 A 
ATOM     22  C11 UNL     1      13.262   3.866  21.091  0.00  0.00    +0.032 A 
ATOM     23  C12 UNL     1      12.721   2.674  20.650  0.00  0.00    +0.083 A 
ATOM     24  N3  UNL     1      11.410   2.828  20.398  0.00  0.00    -0.366 N 
ATOM     25  C13 UNL     1      11.096   4.107  20.671  0.00  0.00    +0.095 A 
ATOM     26  H13 UNL     1      10.757   2.093  20.049  0.00  0.00    +0.165 HD
ENDBRANCH  18  21
ENDBRANCH   6  17
BRANCH   7  27
ATOM     27  O3  UNL     1      12.163   9.596  24.224  0.00  0.00    -0.388 OA
ATOM     28  H16 UNL     1      12.666   9.402  25.058  0.00  0.00    +0.210 HD
ENDBRANCH   7  27
TORSDOF 4
ENDMDL
MODEL 8
REMARK VINA RESULT:    -5.772      2.002      2.582
REMARK INTER + INTRA:          -7.560
REMARK INTER:                  -6.970
REMARK INTRA:                  -0.590
REMARK UNBOUND:                -0.607
REMARK  Name = /home/qwerty/github/datacon2025hack/step_04_hit_selection/docking/ligands/lig_125.pdb
REMARK  7 active torsions:
REMARK  status: ('A' for Active; 'I' for Inactive)
REMARK    1  A    between atoms: C1_1  and  C2_2
REMARK    2  A    between atoms: C4_4  and  C5_5
REMARK    3  A    between atoms: C8_10  and  N2_11
REMARK    4  A    between atoms: C9_12  and  C10_14
REMARK    5  A    between atoms: C14_19  and  O3_20
REMARK    6  A    between atoms: C16_22  and  C17_23
REMARK    7  A    between atoms: N4_24  and  C18_25
REMARK                            x       y       z     vdW  Elec       q    Type
REMARK                         _______ _______ _______ _____ _____    ______ ____
ROOT
ATOM      1  C5  UNL     1      19.933   2.173  33.866  0.00  0.00    +0.248 C 
ATOM      2  O1  UNL     1      21.083   2.212  34.382  0.00  0.00    -0.270 OA
ATOM      3  N1  UNL     1      19.787   1.798  32.485  0.00  0.00    -0.295 N 
ATOM      4  C6  UNL     1      20.580   0.688  31.939  0.00  0.00    +0.110 C 
ATOM      5  C7  UNL     1      21.176   1.094  30.589  0.00  0.00    +0.044 C 
ATOM      6  C8  UNL     1      20.090   1.524  29.568  0.00  0.00    +0.105 C 
ATOM      7  C14 UNL     1      18.755   1.962  30.225  0.00  0.00    +0.152 C 
ATOM      8  C15 UNL     1      18.986   2.645  31.585  0.00  0.00    +0.141 C 
ENDROOT
BRANCH   1  12
ATOM      9  C1  UNL     1      16.882   4.775  36.910  0.00  0.00    +0.063 C 
ATOM     10  C2  UNL     1      17.429   3.692  36.031  0.00  0.00    +0.016 A 
ATOM     11  C3  UNL     1      18.646   3.745  35.380  0.00  0.00    +0.035 A 
ATOM     12  C4  UNL     1      18.769   2.555  34.688  0.00  0.00    +0.058 A 
ATOM     13  C16 UNL     1      17.632   1.806  34.973  0.00  0.00    +0.028 A 
ATOM     14  C17 UNL     1      17.360   0.395  34.532  0.00  0.00    +0.064 C 
ATOM     15  N4  UNL     1      16.802   2.524  35.764  0.00  0.00    -0.350 N 
ATOM     16  C18 UNL     1      15.532   2.068  36.331  0.00  0.00    +0.149 C 
ENDBRANCH   1  12
BRANCH   6  17
ATOM     17  N2  UNL     1      20.607   2.609  28.725  0.00  0.00    -0.306 N 
ATOM     18  C9  UNL     1      21.276   2.364  27.476  0.00  0.00    +0.246 C 
ATOM     19  O2  UNL     1      21.423   1.183  27.059  0.00  0.00    -0.270 OA
ATOM     20  H10 UNL     1      20.319   3.585  28.957  0.00  0.00    +0.149 HD
BRANCH  18  21
ATOM     21  C10 UNL     1      21.795   3.480  26.662  0.00  0.00    +0.054 A 
ATOM     22  C11 UNL     1      22.656   3.364  25.585  0.00  0.00    +0.032 A 
ATOM     23  C12 UNL     1      22.888   4.648  25.135  0.00  0.00    +0.083 A 
ATOM     24  N3  UNL     1      22.210   5.531  25.889  0.00  0.00    -0.366 N 
ATOM     25  C13 UNL     1      21.542   4.831  26.823  0.00  0.00    +0.095 A 
ATOM     26  H13 UNL     1      22.207   6.568  25.775  0.00  0.00    +0.165 HD
ENDBRANCH  18  21
ENDBRANCH   6  17
BRANCH   7  27
ATOM     27  O3  UNL     1      17.929   0.837  30.395  0.00  0.00    -0.388 OA
ATOM     28  H16 UNL     1      17.995   0.571  31.350  0.00  0.00    +0.210 HD
ENDBRANCH   7  27
TORSDOF 4
ENDMDL
MODEL 9
REMARK VINA RESULT:    -5.731      7.208     11.613
REMARK INTER + INTRA:          -7.511
REMARK INTER:                  -6.958
REMARK INTRA:                  -0.552
REMARK UNBOUND:                -0.607
REMARK  Name = /home/qwerty/github/datacon2025hack/step_04_hit_selection/docking/ligands/lig_125.pdb
REMARK  7 active torsions:
REMARK  status: ('A' for Active; 'I' for Inactive)
REMARK    1  A    between atoms: C1_1  and  C2_2
REMARK    2  A    between atoms: C4_4  and  C5_5
REMARK    3  A    between atoms: C8_10  and  N2_11
REMARK    4  A    between atoms: C9_12  and  C10_14
REMARK    5  A    between atoms: C14_19  and  O3_20
REMARK    6  A    between atoms: C16_22  and  C17_23
REMARK    7  A    between atoms: N4_24  and  C18_25
REMARK                            x       y       z     vdW  Elec       q    Type
REMARK                         _______ _______ _______ _____ _____    ______ ____
ROOT
ATOM      1  C5  UNL     1      19.877   8.161  36.446  0.00  0.00    +0.248 C 
ATOM      2  O1  UNL     1      19.993   7.283  37.343  0.00  0.00    -0.270 OA
ATOM      3  N1  UNL     1      18.916   9.220  36.608  0.00  0.00    -0.295 N 
ATOM      4  C6  UNL     1      18.752   9.865  37.918  0.00  0.00    +0.110 C 
ATOM      5  C7  UNL     1      17.263   9.998  38.246  0.00  0.00    +0.044 C 
ATOM      6  C8  UNL     1      16.486  10.790  37.161  0.00  0.00    +0.105 C 
ATOM      7  C14 UNL     1      17.196  10.819  35.782  0.00  0.00    +0.152 C 
ATOM      8  C15 UNL     1      17.976   9.519  35.515  0.00  0.00    +0.141 C 
ENDROOT
BRANCH   1  12
ATOM      9  C1  UNL     1      23.124   9.281  32.764  0.00  0.00    +0.063 C 
ATOM     10  C2  UNL     1      22.127   8.546  33.607  0.00  0.00    +0.016 A 
ATOM     11  C3  UNL     1      21.571   9.032  34.775  0.00  0.00    +0.035 A 
ATOM     12  C4  UNL     1      20.707   8.055  35.231  0.00  0.00    +0.058 A 
ATOM     13  C16 UNL     1      20.745   7.020  34.301  0.00  0.00    +0.028 A 
ATOM     14  C17 UNL     1      19.894   5.781  34.311  0.00  0.00    +0.064 C 
ATOM     15  N4  UNL     1      21.643   7.313  33.333  0.00  0.00    -0.350 N 
ATOM     16  C18 UNL     1      21.933   6.510  32.145  0.00  0.00    +0.149 C 
ENDBRANCH   1  12
BRANCH   6  17
ATOM     17  N2  UNL     1      15.137  10.232  37.014  0.00  0.00    -0.306 N 
ATOM     18  C9  UNL     1      13.983  11.055  36.778  0.00  0.00    +0.246 C 
ATOM     19  O2  UNL     1      14.109  12.306  36.675  0.00  0.00    -0.270 OA
ATOM     20  H10 UNL     1      15.048   9.198  36.898  0.00  0.00    +0.149 HD
BRANCH  18  21
ATOM     21  C10 UNL     1      12.639  10.459  36.648  0.00  0.00    +0.054 A 
ATOM     22  C11 UNL     1      11.552  10.727  37.461  0.00  0.00    +0.032 A 
ATOM     23  C12 UNL     1      10.515   9.946  36.992  0.00  0.00    +0.083 A 
ATOM     24  N3  UNL     1      10.926   9.219  35.938  0.00  0.00    -0.366 N 
ATOM     25  C13 UNL     1      12.219   9.522  35.720  0.00  0.00    +0.095 A 
ATOM     26  H13 UNL     1      10.351   8.540  35.392  0.00  0.00    +0.165 HD
ENDBRANCH  18  21
ENDBRANCH   6  17
BRANCH   7  27
ATOM     27  O3  UNL     1      18.075  11.916  35.734  0.00  0.00    -0.388 OA
ATOM     28  H16 UNL     1      18.241  12.195  36.672  0.00  0.00    +0.210 HD
ENDBRANCH   7  27
TORSDOF 4
ENDMDL
