MODEL 1
REMARK VINA RESULT:    -7.028      0.000      0.000
REMARK INTER + INTRA:          -9.582
REMARK INTER:                  -8.671
REMARK INTRA:                  -0.911
REMARK UNBOUND:                -0.911
REMARK  Name = /home/qwerty/github/datacon2025hack/step_04_hit_selection/docking/ligands/lig_289.pdb
REMARK  6 active torsions:
REMARK  status: ('A' for Active; 'I' for Inactive)
REMARK    1  A    between atoms: C1_1  and  C2_2
REMARK    2  A    between atoms: C4_4  and  C5_5
REMARK    3  A    between atoms: C6_6  and  N1_7
REMARK    4  A    between atoms: C7_8  and  C8_10
REMARK    5  A    between atoms: C13_16  and  C14_17
REMARK    6  A    between atoms: N4_21  and  C17_22
REMARK                            x       y       z     vdW  Elec       q    Type
REMARK                         _______ _______ _______ _____ _____    ______ ____
ROOT
ATOM      1  C8  UNL     1      21.266   4.511  31.308  0.00  0.00    +0.056 A 
ATOM      2  C9  UNL     1      20.936   4.174  32.652  0.00  0.00    +0.126 A 
ATOM      3  N2  UNL     1      21.369   4.946  33.694  0.00  0.00    -0.235 NA
ATOM      4  C10 UNL     1      22.140   6.031  33.433  0.00  0.00    +0.164 A 
ATOM      5  C11 UNL     1      22.475   6.395  32.167  0.00  0.00    +0.043 A 
ATOM      6  C12 UNL     1      22.059   5.655  31.066  0.00  0.00    +0.028 A 
ATOM      7  C13 UNL     1      23.187   7.566  32.308  0.00  0.00    +0.076 A 
ATOM      8  N3  UNL     1      23.242   7.887  33.625  0.00  0.00    -0.169 NA
ATOM      9  N4  UNL     1      22.613   6.937  34.313  0.00  0.00    -0.214 N 
ENDROOT
BRANCH   9  10
ATOM     10  C17 UNL     1      22.461   6.957  35.745  0.00  0.00    +0.068 A 
ATOM     11  C18 UNL     1      23.529   6.557  36.566  0.00  0.00    +0.028 A 
ATOM     12  C19 UNL     1      23.394   6.563  37.958  0.00  0.00    +0.002 A 
ATOM     13  C20 UNL     1      22.188   6.957  38.543  0.00  0.00    +0.000 A 
ATOM     14  C21 UNL     1      21.115   7.341  37.737  0.00  0.00    +0.002 A 
ATOM     15  C22 UNL     1      21.245   7.337  36.345  0.00  0.00    +0.028 A 
ENDBRANCH   9  10
BRANCH   1  17
ATOM     16  N1  UNL     1      21.708   3.280  29.131  0.00  0.00    -0.280 N 
ATOM     17  C7  UNL     1      20.804   3.674  30.175  0.00  0.00    +0.250 C 
ATOM     18  O1  UNL     1      19.605   3.285  30.140  0.00  0.00    -0.270 OA
ATOM     19  H8  UNL     1      22.731   3.238  29.338  0.00  0.00    +0.155 HD
BRANCH  16  25
ATOM     20  C1  UNL     1      19.786   0.873  24.274  0.00  0.00    +0.044 C 
ATOM     21  C2  UNL     1      20.328   1.504  25.522  0.00  0.00    -0.049 A 
ATOM     22  C3  UNL     1      20.432   2.899  25.619  0.00  0.00    +0.008 A 
ATOM     23  C4  UNL     1      20.915   3.502  26.791  0.00  0.00    -0.028 A 
ATOM     24  C5  UNL     1      21.051   5.000  26.839  0.00  0.00    +0.046 C 
ATOM     25  C6  UNL     1      21.243   2.694  27.905  0.00  0.00    +0.055 A 
ATOM     26  C23 UNL     1      21.140   1.294  27.801  0.00  0.00    +0.063 A 
ATOM     27 CL1  UNL     1      21.542   0.252  29.160  0.00  0.00    -0.082 Cl
ATOM     28  C24 UNL     1      20.676   0.709  26.620  0.00  0.00    +0.025 A 
ENDBRANCH  16  25
ENDBRANCH   1  17
BRANCH   7  29
ATOM     29  C14 UNL     1      23.721   8.429  31.206  0.00  0.00    +0.040 C 
ATOM     30  C15 UNL     1      24.376   9.719  31.675  0.00  0.00    +0.010 C 
ATOM     31  C16 UNL     1      22.999   9.757  31.033  0.00  0.00    +0.010 C 
ENDBRANCH   7  29
TORSDOF 4
ENDMDL
MODEL 2
REMARK VINA RESULT:    -6.929     12.070     14.536
REMARK INTER + INTRA:          -9.460
REMARK INTER:                  -8.735
REMARK INTRA:                  -0.724
REMARK UNBOUND:                -0.911
REMARK  Name = /home/qwerty/github/datacon2025hack/step_04_hit_selection/docking/ligands/lig_289.pdb
REMARK  6 active torsions:
REMARK  status: ('A' for Active; 'I' for Inactive)
REMARK    1  A    between atoms: C1_1  and  C2_2
REMARK    2  A    between atoms: C4_4  and  C5_5
REMARK    3  A    between atoms: C6_6  and  N1_7
REMARK    4  A    between atoms: C7_8  and  C8_10
REMARK    5  A    between atoms: C13_16  and  C14_17
REMARK    6  A    between atoms: N4_21  and  C17_22
REMARK                            x       y       z     vdW  Elec       q    Type
REMARK                         _______ _______ _______ _____ _____    ______ ____
ROOT
ATOM      1  C8  UNL     1      16.969   6.147  20.623  0.00  0.00    +0.056 A 
ATOM      2  C9  UNL     1      17.829   5.091  21.038  0.00  0.00    +0.126 A 
ATOM      3  N2  UNL     1      17.381   3.800  21.085  0.00  0.00    -0.235 NA
ATOM      4  C10 UNL     1      16.093   3.538  20.751  0.00  0.00    +0.164 A 
ATOM      5  C11 UNL     1      15.238   4.513  20.343  0.00  0.00    +0.043 A 
ATOM      6  C12 UNL     1      15.636   5.842  20.266  0.00  0.00    +0.028 A 
ATOM      7  C13 UNL     1      14.069   3.853  20.028  0.00  0.00    +0.076 A 
ATOM      8  N3  UNL     1      14.251   2.524  20.226  0.00  0.00    -0.169 NA
ATOM      9  N4  UNL     1      15.488   2.335  20.683  0.00  0.00    -0.214 N 
ENDROOT
BRANCH   9  10
ATOM     10  C17 UNL     1      16.036   1.040  20.991  0.00  0.00    +0.068 A 
ATOM     11  C18 UNL     1      16.333   0.705  22.323  0.00  0.00    +0.028 A 
ATOM     12  C19 UNL     1      16.874  -0.546  22.637  0.00  0.00    +0.002 A 
ATOM     13  C20 UNL     1      17.132  -1.471  21.622  0.00  0.00    +0.000 A 
ATOM     14  C21 UNL     1      16.856  -1.144  20.293  0.00  0.00    +0.002 A 
ATOM     15  C22 UNL     1      16.315   0.105  19.975  0.00  0.00    +0.028 A 
ENDBRANCH   9  10
BRANCH   1  17
ATOM     16  N1  UNL     1      17.545   8.254  19.328  0.00  0.00    -0.280 N 
ATOM     17  C7  UNL     1      17.448   7.549  20.575  0.00  0.00    +0.250 C 
ATOM     18  O1  UNL     1      17.754   8.137  21.649  0.00  0.00    -0.270 OA
ATOM     19  H8  UNL     1      16.944   7.954  18.530  0.00  0.00    +0.155 HD
BRANCH  16  25
ATOM     20  C1  UNL     1      20.369  13.238  18.802  0.00  0.00    +0.044 C 
ATOM     21  C2  UNL     1      19.633  11.944  18.984  0.00  0.00    -0.049 A 
ATOM     22  C3  UNL     1      18.242  11.941  19.154  0.00  0.00    +0.008 A 
ATOM     23  C4  UNL     1      17.539  10.735  19.301  0.00  0.00    -0.028 A 
ATOM     24  C5  UNL     1      16.051  10.779  19.524  0.00  0.00    +0.046 C 
ATOM     25  C6  UNL     1      18.238   9.508  19.216  0.00  0.00    +0.055 A 
ATOM     26  C23 UNL     1      19.635   9.515  19.047  0.00  0.00    +0.063 A 
ATOM     27 CL1  UNL     1      20.543   8.013  18.941  0.00  0.00    -0.082 Cl
ATOM     28  C24 UNL     1      20.322  10.727  18.923  0.00  0.00    +0.025 A 
ENDBRANCH  16  25
ENDBRANCH   1  17
BRANCH   7  29
ATOM     29  C14 UNL     1      12.828   4.458  19.448  0.00  0.00    +0.040 C 
ATOM     30  C15 UNL     1      12.255   5.617  20.250  0.00  0.00    +0.010 C 
ATOM     31  C16 UNL     1      11.574   4.259  20.287  0.00  0.00    +0.010 C 
ENDBRANCH   7  29
TORSDOF 4
ENDMDL
MODEL 3
REMARK VINA RESULT:    -6.927      3.148      8.908
REMARK INTER + INTRA:          -9.458
REMARK INTER:                  -8.830
REMARK INTRA:                  -0.628
REMARK UNBOUND:                -0.911
REMARK  Name = /home/qwerty/github/datacon2025hack/step_04_hit_selection/docking/ligands/lig_289.pdb
REMARK  6 active torsions:
REMARK  status: ('A' for Active; 'I' for Inactive)
REMARK    1  A    between atoms: C1_1  and  C2_2
REMARK    2  A    between atoms: C4_4  and  C5_5
REMARK    3  A    between atoms: C6_6  and  N1_7
REMARK    4  A    between atoms: C7_8  and  C8_10
REMARK    5  A    between atoms: C13_16  and  C14_17
REMARK    6  A    between atoms: N4_21  and  C17_22
REMARK                            x       y       z     vdW  Elec       q    Type
REMARK                         _______ _______ _______ _____ _____    ______ ____
ROOT
ATOM      1  C8  UNL     1      21.236   4.785  31.834  0.00  0.00    +0.056 A 
ATOM      2  C9  UNL     1      21.901   3.592  32.234  0.00  0.00    +0.126 A 
ATOM      3  N2  UNL     1      22.272   2.654  31.310  0.00  0.00    -0.235 NA
ATOM      4  C10 UNL     1      21.979   2.864  30.004  0.00  0.00    +0.164 A 
ATOM      5  C11 UNL     1      21.351   3.992  29.574  0.00  0.00    +0.043 A 
ATOM      6  C12 UNL     1      20.955   4.985  30.463  0.00  0.00    +0.028 A 
ATOM      7  C13 UNL     1      21.300   3.872  28.202  0.00  0.00    +0.076 A 
ATOM      8  N3  UNL     1      21.906   2.713  27.843  0.00  0.00    -0.169 NA
ATOM      9  N4  UNL     1      22.308   2.090  28.949  0.00  0.00    -0.214 N 
ENDROOT
BRANCH   9  10
ATOM     10  C17 UNL     1      23.007   0.832  28.948  0.00  0.00    +0.068 A 
ATOM     11  C18 UNL     1      22.298  -0.362  28.729  0.00  0.00    +0.028 A 
ATOM     12  C19 UNL     1      22.961  -1.592  28.733  0.00  0.00    +0.002 A 
ATOM     13  C20 UNL     1      24.338  -1.645  28.967  0.00  0.00    +0.000 A 
ATOM     14  C21 UNL     1      25.051  -0.468  29.202  0.00  0.00    +0.002 A 
ATOM     15  C22 UNL     1      24.391   0.765  29.198  0.00  0.00    +0.028 A 
ENDBRANCH   9  10
BRANCH   1  17
ATOM     16  N1  UNL     1      21.068   5.603  34.232  0.00  0.00    -0.280 N 
ATOM     17  C7  UNL     1      20.826   5.803  32.831  0.00  0.00    +0.250 C 
ATOM     18  O1  UNL     1      20.276   6.868  32.439  0.00  0.00    -0.270 OA
ATOM     19  H8  UNL     1      21.843   4.968  34.525  0.00  0.00    +0.155 HD
BRANCH  16  25
ATOM     20  C1  UNL     1      18.665   9.022  38.185  0.00  0.00    +0.044 C 
ATOM     21  C2  UNL     1      19.308   8.105  37.187  0.00  0.00    -0.049 A 
ATOM     22  C3  UNL     1      18.667   6.919  36.805  0.00  0.00    +0.008 A 
ATOM     23  C4  UNL     1      19.248   6.065  35.854  0.00  0.00    -0.028 A 
ATOM     24  C5  UNL     1      18.547   4.779  35.503  0.00  0.00    +0.046 C 
ATOM     25  C6  UNL     1      20.463   6.437  35.234  0.00  0.00    +0.055 A 
ATOM     26  C23 UNL     1      21.104   7.628  35.623  0.00  0.00    +0.063 A 
ATOM     27 CL1  UNL     1      22.619   8.127  34.881  0.00  0.00    -0.082 Cl
ATOM     28  C24 UNL     1      20.523   8.457  36.587  0.00  0.00    +0.025 A 
ENDBRANCH  16  25
ENDBRANCH   1  17
BRANCH   7  29
ATOM     29  C14 UNL     1      20.777   4.886  27.233  0.00  0.00    +0.040 C 
ATOM     30  C15 UNL     1      20.365   4.317  25.883  0.00  0.00    +0.010 C 
ATOM     31  C16 UNL     1      21.656   5.109  26.011  0.00  0.00    +0.010 C 
ENDBRANCH   7  29
TORSDOF 4
ENDMDL
MODEL 4
REMARK VINA RESULT:    -6.895     12.717     15.030
REMARK INTER + INTRA:          -9.418
REMARK INTER:                  -8.745
REMARK INTRA:                  -0.674
REMARK UNBOUND:                -0.911
REMARK  Name = /home/qwerty/github/datacon2025hack/step_04_hit_selection/docking/ligands/lig_289.pdb
REMARK  6 active torsions:
REMARK  status: ('A' for Active; 'I' for Inactive)
REMARK    1  A    between atoms: C1_1  and  C2_2
REMARK    2  A    between atoms: C4_4  and  C5_5
REMARK    3  A    between atoms: C6_6  and  N1_7
REMARK    4  A    between atoms: C7_8  and  C8_10
REMARK    5  A    between atoms: C13_16  and  C14_17
REMARK    6  A    between atoms: N4_21  and  C17_22
REMARK                            x       y       z     vdW  Elec       q    Type
REMARK                         _______ _______ _______ _____ _____    ______ ____
ROOT
ATOM      1  C8  UNL     1      13.017   3.945  22.068  0.00  0.00    +0.056 A 
ATOM      2  C9  UNL     1      13.393   5.247  21.631  0.00  0.00    +0.126 A 
ATOM      3  N2  UNL     1      12.446   6.194  21.356  0.00  0.00    -0.235 NA
ATOM      4  C10 UNL     1      11.136   5.871  21.484  0.00  0.00    +0.164 A 
ATOM      5  C11 UNL     1      10.729   4.644  21.905  0.00  0.00    +0.043 A 
ATOM      6  C12 UNL     1      11.643   3.641  22.206  0.00  0.00    +0.028 A 
ATOM      7  C13 UNL     1       9.355   4.728  21.977  0.00  0.00    +0.076 A 
ATOM      8  N3  UNL     1       8.976   5.983  21.630  0.00  0.00    -0.169 NA
ATOM      9  N4  UNL     1      10.068   6.677  21.314  0.00  0.00    -0.214 N 
ENDROOT
BRANCH   9  10
ATOM     10  C17 UNL     1      10.046   8.059  20.912  0.00  0.00    +0.068 A 
ATOM     11  C18 UNL     1       9.072   8.925  21.439  0.00  0.00    +0.028 A 
ATOM     12  C19 UNL     1       9.032  10.268  21.052  0.00  0.00    +0.002 A 
ATOM     13  C20 UNL     1       9.957  10.758  20.126  0.00  0.00    +0.000 A 
ATOM     14  C21 UNL     1      10.919   9.904  19.584  0.00  0.00    +0.002 A 
ATOM     15  C22 UNL     1      10.963   8.560  19.968  0.00  0.00    +0.028 A 
ENDBRANCH   9  10
BRANCH   1  17
ATOM     16  N1  UNL     1      13.883   1.564  21.889  0.00  0.00    -0.280 N 
ATOM     17  C7  UNL     1      14.038   2.912  22.361  0.00  0.00    +0.250 C 
ATOM     18  O1  UNL     1      15.069   3.227  23.016  0.00  0.00    -0.270 OA
ATOM     19  H8  UNL     1      13.290   1.389  21.048  0.00  0.00    +0.155 HD
BRANCH  16  25
ATOM     20  C1  UNL     1      17.287  -2.671  23.777  0.00  0.00    +0.044 C 
ATOM     21  C2  UNL     1      16.371  -1.598  23.267  0.00  0.00    -0.049 A 
ATOM     22  C3  UNL     1      15.233  -1.235  23.999  0.00  0.00    +0.008 A 
ATOM     23  C4  UNL     1      14.382  -0.215  23.545  0.00  0.00    -0.028 A 
ATOM     24  C5  UNL     1      13.147   0.114  24.339  0.00  0.00    +0.046 C 
ATOM     25  C6  UNL     1      14.713   0.492  22.365  0.00  0.00    +0.055 A 
ATOM     26  C23 UNL     1      15.856   0.123  21.632  0.00  0.00    +0.063 A 
ATOM     27 CL1  UNL     1      16.301   0.973  20.158  0.00  0.00    -0.082 Cl
ATOM     28  C24 UNL     1      16.681  -0.909  22.088  0.00  0.00    +0.025 A 
ENDBRANCH  16  25
ENDBRANCH   1  17
BRANCH   7  29
ATOM     29  C14 UNL     1       8.417   3.668  22.467  0.00  0.00    +0.040 C 
ATOM     30  C15 UNL     1       7.159   4.198  23.138  0.00  0.00    +0.010 C 
ATOM     31  C16 UNL     1       8.273   3.598  23.980  0.00  0.00    +0.010 C 
ENDBRANCH   7  29
TORSDOF 4
ENDMDL
MODEL 5
REMARK VINA RESULT:    -6.805      4.503     11.952
REMARK INTER + INTRA:          -9.307
REMARK INTER:                  -8.427
REMARK INTRA:                  -0.880
REMARK UNBOUND:                -0.911
REMARK  Name = /home/qwerty/github/datacon2025hack/step_04_hit_selection/docking/ligands/lig_289.pdb
REMARK  6 active torsions:
REMARK  status: ('A' for Active; 'I' for Inactive)
REMARK    1  A    between atoms: C1_1  and  C2_2
REMARK    2  A    between atoms: C4_4  and  C5_5
REMARK    3  A    between atoms: C6_6  and  N1_7
REMARK    4  A    between atoms: C7_8  and  C8_10
REMARK    5  A    between atoms: C13_16  and  C14_17
REMARK    6  A    between atoms: N4_21  and  C17_22
REMARK                            x       y       z     vdW  Elec       q    Type
REMARK                         _______ _______ _______ _____ _____    ______ ____
ROOT
ATOM      1  C8  UNL     1      18.643   1.411  26.640  0.00  0.00    +0.056 A 
ATOM      2  C9  UNL     1      18.977   1.698  25.286  0.00  0.00    +0.126 A 
ATOM      3  N2  UNL     1      18.251   1.165  24.257  0.00  0.00    -0.235 NA
ATOM      4  C10 UNL     1      17.215   0.338  24.542  0.00  0.00    +0.164 A 
ATOM      5  C11 UNL     1      16.855   0.040  25.819  0.00  0.00    +0.043 A 
ATOM      6  C12 UNL     1      17.549   0.556  26.907  0.00  0.00    +0.028 A 
ATOM      7  C13 UNL     1      15.735  -0.754  25.699  0.00  0.00    +0.076 A 
ATOM      8  N3  UNL     1      15.439  -0.893  24.382  0.00  0.00    -0.169 NA
ATOM      9  N4  UNL     1      16.356  -0.236  23.675  0.00  0.00    -0.214 N 
ENDROOT
BRANCH   9  10
ATOM     10  C17 UNL     1      16.347  -0.153  22.238  0.00  0.00    +0.068 A 
ATOM     11  C18 UNL     1      16.866  -1.214  21.475  0.00  0.00    +0.028 A 
ATOM     12  C19 UNL     1      16.872  -1.145  20.078  0.00  0.00    +0.002 A 
ATOM     13  C20 UNL     1      16.372  -0.013  19.430  0.00  0.00    +0.000 A 
ATOM     14  C21 UNL     1      15.869   1.053  20.178  0.00  0.00    +0.002 A 
ATOM     15  C22 UNL     1      15.860   0.989  21.575  0.00  0.00    +0.028 A 
ENDBRANCH   9  10
BRANCH   1  17
ATOM     16  N1  UNL     1      19.749   1.190  28.915  0.00  0.00    -0.280 N 
ATOM     17  C7  UNL     1      19.431   1.980  27.759  0.00  0.00    +0.250 C 
ATOM     18  O1  UNL     1      19.844   3.169  27.684  0.00  0.00    -0.270 OA
ATOM     19  H8  UNL     1      19.778   0.150  28.824  0.00  0.00    +0.155 HD
BRANCH  16  25
ATOM     20  C1  UNL     1      21.812   3.490  33.767  0.00  0.00    +0.044 C 
ATOM     21  C2  UNL     1      21.283   2.929  32.480  0.00  0.00    -0.049 A 
ATOM     22  C3  UNL     1      22.163   2.401  31.526  0.00  0.00    +0.008 A 
ATOM     23  C4  UNL     1      21.678   1.851  30.329  0.00  0.00    -0.028 A 
ATOM     24  C5  UNL     1      22.660   1.334  29.312  0.00  0.00    +0.046 C 
ATOM     25  C6  UNL     1      20.282   1.777  30.114  0.00  0.00    +0.055 A 
ATOM     26  C23 UNL     1      19.402   2.310  31.074  0.00  0.00    +0.063 A 
ATOM     27 CL1  UNL     1      17.659   2.243  30.843  0.00  0.00    -0.082 Cl
ATOM     28  C24 UNL     1      19.903   2.873  32.251  0.00  0.00    +0.025 A 
ENDBRANCH  16  25
ENDBRANCH   1  17
BRANCH   7  29
ATOM     29  C14 UNL     1      14.893  -1.291  26.815  0.00  0.00    +0.040 C 
ATOM     30  C15 UNL     1      13.744  -2.182  26.367  0.00  0.00    +0.010 C 
ATOM     31  C16 UNL     1      13.466  -0.766  26.842  0.00  0.00    +0.010 C 
ENDBRANCH   7  29
TORSDOF 4
ENDMDL
MODEL 6
REMARK VINA RESULT:    -6.752     12.562     15.158
REMARK INTER + INTRA:          -9.241
REMARK INTER:                  -8.360
REMARK INTRA:                  -0.881
REMARK UNBOUND:                -0.911
REMARK  Name = /home/qwerty/github/datacon2025hack/step_04_hit_selection/docking/ligands/lig_289.pdb
REMARK  6 active torsions:
REMARK  status: ('A' for Active; 'I' for Inactive)
REMARK    1  A    between atoms: C1_1  and  C2_2
REMARK    2  A    between atoms: C4_4  and  C5_5
REMARK    3  A    between atoms: C6_6  and  N1_7
REMARK    4  A    between atoms: C7_8  and  C8_10
REMARK    5  A    between atoms: C13_16  and  C14_17
REMARK    6  A    between atoms: N4_21  and  C17_22
REMARK                            x       y       z     vdW  Elec       q    Type
REMARK                         _______ _______ _______ _____ _____    ______ ____
ROOT
ATOM      1  C8  UNL     1      12.877   5.546  21.569  0.00  0.00    +0.056 A 
ATOM      2  C9  UNL     1      12.810   4.207  22.051  0.00  0.00    +0.126 A 
ATOM      3  N2  UNL     1      13.793   3.305  21.754  0.00  0.00    -0.235 NA
ATOM      4  C10 UNL     1      14.829   3.695  20.972  0.00  0.00    +0.164 A 
ATOM      5  C11 UNL     1      14.940   4.963  20.494  0.00  0.00    +0.043 A 
ATOM      6  C12 UNL     1      13.978   5.928  20.767  0.00  0.00    +0.028 A 
ATOM      7  C13 UNL     1      16.141   4.987  19.819  0.00  0.00    +0.076 A 
ATOM      8  N3  UNL     1      16.725   3.767  19.924  0.00  0.00    -0.169 NA
ATOM      9  N4  UNL     1      15.912   2.973  20.618  0.00  0.00    -0.214 N 
ENDROOT
BRANCH   9  10
ATOM     10  C17 UNL     1      16.217   1.603  20.939  0.00  0.00    +0.068 A 
ATOM     11  C18 UNL     1      16.215   0.631  19.923  0.00  0.00    +0.028 A 
ATOM     12  C19 UNL     1      16.501  -0.706  20.220  0.00  0.00    +0.002 A 
ATOM     13  C20 UNL     1      16.781  -1.086  21.535  0.00  0.00    +0.000 A 
ATOM     14  C21 UNL     1      16.770  -0.133  22.555  0.00  0.00    +0.002 A 
ATOM     15  C22 UNL     1      16.485   1.205  22.262  0.00  0.00    +0.028 A 
ENDBRANCH   9  10
BRANCH   1  17
ATOM     16  N1  UNL     1      10.864   6.933  20.883  0.00  0.00    -0.280 N 
ATOM     17  C7  UNL     1      11.812   6.526  21.883  0.00  0.00    +0.250 C 
ATOM     18  O1  UNL     1      11.723   6.994  23.051  0.00  0.00    -0.270 OA
ATOM     19  H8  UNL     1      10.669   6.292  20.082  0.00  0.00    +0.155 HD
BRANCH  16  25
ATOM     20  C1  UNL     1       7.351  11.403  21.754  0.00  0.00    +0.044 C 
ATOM     21  C2  UNL     1       8.251  10.234  21.485  0.00  0.00    -0.049 A 
ATOM     22  C3  UNL     1       9.474  10.422  20.828  0.00  0.00    +0.008 A 
ATOM     23  C4  UNL     1      10.336   9.339  20.592  0.00  0.00    -0.028 A 
ATOM     24  C5  UNL     1      11.621   9.578  19.844  0.00  0.00    +0.046 C 
ATOM     25  C6  UNL     1       9.990   8.056  21.076  0.00  0.00    +0.055 A 
ATOM     26  C23 UNL     1       8.759   7.872  21.735  0.00  0.00    +0.063 A 
ATOM     27 CL1  UNL     1       8.288   6.292  22.349  0.00  0.00    -0.082 Cl
ATOM     28  C24 UNL     1       7.903   8.957  21.943  0.00  0.00    +0.025 A 
ENDBRANCH  16  25
ENDBRANCH   1  17
BRANCH   7  29
ATOM     29  C14 UNL     1      16.781   6.175  19.170  0.00  0.00    +0.040 C 
ATOM     30  C15 UNL     1      18.302   6.154  19.171  0.00  0.00    +0.010 C 
ATOM     31  C16 UNL     1      17.555   7.077  20.119  0.00  0.00    +0.010 C 
ENDBRANCH   7  29
TORSDOF 4
ENDMDL
MODEL 7
REMARK VINA RESULT:    -6.729     13.982     16.614
REMARK INTER + INTRA:          -9.213
REMARK INTER:                  -8.448
REMARK INTRA:                  -0.765
REMARK UNBOUND:                -0.911
REMARK  Name = /home/qwerty/github/datacon2025hack/step_04_hit_selection/docking/ligands/lig_289.pdb
REMARK  6 active torsions:
REMARK  status: ('A' for Active; 'I' for Inactive)
REMARK    1  A    between atoms: C1_1  and  C2_2
REMARK    2  A    between atoms: C4_4  and  C5_5
REMARK    3  A    between atoms: C6_6  and  N1_7
REMARK    4  A    between atoms: C7_8  and  C8_10
REMARK    5  A    between atoms: C13_16  and  C14_17
REMARK    6  A    between atoms: N4_21  and  C17_22
REMARK                            x       y       z     vdW  Elec       q    Type
REMARK                         _______ _______ _______ _____ _____    ______ ____
ROOT
ATOM      1  C8  UNL     1       8.038   1.413  26.252  0.00  0.00    +0.056 A 
ATOM      2  C9  UNL     1       7.349   2.645  26.070  0.00  0.00    +0.126 A 
ATOM      3  N2  UNL     1       7.622   3.449  24.998  0.00  0.00    -0.235 NA
ATOM      4  C10 UNL     1       8.578   3.067  24.116  0.00  0.00    +0.164 A 
ATOM      5  C11 UNL     1       9.257   1.896  24.245  0.00  0.00    +0.043 A 
ATOM      6  C12 UNL     1       9.020   1.033  25.308  0.00  0.00    +0.028 A 
ATOM      7  C13 UNL     1      10.072   1.831  23.135  0.00  0.00    +0.076 A 
ATOM      8  N3  UNL     1       9.852   2.928  22.368  0.00  0.00    -0.169 NA
ATOM      9  N4  UNL     1       8.947   3.691  22.978  0.00  0.00    -0.214 N 
ENDROOT
BRANCH   9  10
ATOM     10  C17 UNL     1       8.458   4.933  22.441  0.00  0.00    +0.068 A 
ATOM     11  C18 UNL     1       7.408   4.925  21.506  0.00  0.00    +0.028 A 
ATOM     12  C19 UNL     1       6.927   6.123  20.968  0.00  0.00    +0.002 A 
ATOM     13  C20 UNL     1       7.496   7.340  21.351  0.00  0.00    +0.000 A 
ATOM     14  C21 UNL     1       8.549   7.360  22.267  0.00  0.00    +0.002 A 
ATOM     15  C22 UNL     1       9.034   6.165  22.807  0.00  0.00    +0.028 A 
ENDBRANCH   9  10
BRANCH   1  17
ATOM     16  N1  UNL     1       8.266   0.854  28.719  0.00  0.00    -0.280 N 
ATOM     17  C7  UNL     1       7.751   0.540  27.415  0.00  0.00    +0.250 C 
ATOM     18  O1  UNL     1       7.024  -0.479  27.261  0.00  0.00    -0.270 OA
ATOM     19  H8  UNL     1       8.503   1.845  28.943  0.00  0.00    +0.155 HD
BRANCH  16  25
ATOM     20  C1  UNL     1       7.993  -2.940  33.034  0.00  0.00    +0.044 C 
ATOM     21  C2  UNL     1       8.096  -1.928  31.932  0.00  0.00    -0.049 A 
ATOM     22  C3  UNL     1       9.100  -2.043  30.960  0.00  0.00    +0.008 A 
ATOM     23  C4  UNL     1       9.191  -1.117  29.910  0.00  0.00    -0.028 A 
ATOM     24  C5  UNL     1      10.310  -1.252  28.911  0.00  0.00    +0.046 C 
ATOM     25  C6  UNL     1       8.223  -0.091  29.800  0.00  0.00    +0.055 A 
ATOM     26  C23 UNL     1       7.218   0.022  30.779  0.00  0.00    +0.063 A 
ATOM     27 CL1  UNL     1       5.997   1.285  30.683  0.00  0.00    -0.082 Cl
ATOM     28  C24 UNL     1       7.154  -0.897  31.830  0.00  0.00    +0.025 A 
ENDBRANCH  16  25
ENDBRANCH   1  17
BRANCH   7  29
ATOM     29  C14 UNL     1      10.973   0.699  22.750  0.00  0.00    +0.040 C 
ATOM     30  C15 UNL     1      12.235   0.581  23.590  0.00  0.00    +0.010 C 
ATOM     31  C16 UNL     1      12.315   1.124  22.173  0.00  0.00    +0.010 C 
ENDBRANCH   7  29
TORSDOF 4
ENDMDL
MODEL 8
REMARK VINA RESULT:    -6.516      5.072      6.850
REMARK INTER + INTRA:          -8.951
REMARK INTER:                  -7.991
REMARK INTRA:                  -0.960
REMARK UNBOUND:                -0.911
REMARK  Name = /home/qwerty/github/datacon2025hack/step_04_hit_selection/docking/ligands/lig_289.pdb
REMARK  6 active torsions:
REMARK  status: ('A' for Active; 'I' for Inactive)
REMARK    1  A    between atoms: C1_1  and  C2_2
REMARK    2  A    between atoms: C4_4  and  C5_5
REMARK    3  A    between atoms: C6_6  and  N1_7
REMARK    4  A    between atoms: C7_8  and  C8_10
REMARK    5  A    between atoms: C13_16  and  C14_17
REMARK    6  A    between atoms: N4_21  and  C17_22
REMARK                            x       y       z     vdW  Elec       q    Type
REMARK                         _______ _______ _______ _____ _____    ______ ____
ROOT
ATOM      1  C8  UNL     1      18.839   1.447  32.172  0.00  0.00    +0.056 A 
ATOM      2  C9  UNL     1      18.103   0.270  32.490  0.00  0.00    +0.126 A 
ATOM      3  N2  UNL     1      17.514   0.122  33.715  0.00  0.00    -0.235 NA
ATOM      4  C10 UNL     1      17.656   1.105  34.637  0.00  0.00    +0.164 A 
ATOM      5  C11 UNL     1      18.343   2.249  34.377  0.00  0.00    +0.043 A 
ATOM      6  C12 UNL     1      18.959   2.462  33.149  0.00  0.00    +0.028 A 
ATOM      7  C13 UNL     1      18.202   3.018  35.512  0.00  0.00    +0.076 A 
ATOM      8  N3  UNL     1      17.429   2.344  36.401  0.00  0.00    -0.169 NA
ATOM      9  N4  UNL     1      17.109   1.167  35.868  0.00  0.00    -0.214 N 
ENDROOT
BRANCH   9  10
ATOM     10  C17 UNL     1      16.280   0.192  36.528  0.00  0.00    +0.068 A 
ATOM     11  C18 UNL     1      14.889   0.385  36.592  0.00  0.00    +0.028 A 
ATOM     12  C19 UNL     1      14.072  -0.548  37.237  0.00  0.00    +0.002 A 
ATOM     13  C20 UNL     1      14.636  -1.679  37.832  0.00  0.00    +0.000 A 
ATOM     14  C21 UNL     1      16.018  -1.875  37.789  0.00  0.00    +0.002 A 
ATOM     15  C22 UNL     1      16.839  -0.944  37.146  0.00  0.00    +0.028 A 
ENDBRANCH   9  10
BRANCH   1  17
ATOM     16  N1  UNL     1      20.772   2.237  30.727  0.00  0.00    -0.280 N 
ATOM     17  C7  UNL     1      19.485   1.610  30.849  0.00  0.00    +0.250 C 
ATOM     18  O1  UNL     1      18.906   1.173  29.817  0.00  0.00    -0.270 OA
ATOM     19  H8  UNL     1      21.416   2.230  31.549  0.00  0.00    +0.155 HD
BRANCH  16  25
ATOM     20  C1  UNL     1      22.931   3.929  25.671  0.00  0.00    +0.044 C 
ATOM     21  C2  UNL     1      22.336   3.465  26.968  0.00  0.00    -0.049 A 
ATOM     22  C3  UNL     1      22.654   2.199  27.477  0.00  0.00    +0.008 A 
ATOM     23  C4  UNL     1      22.122   1.763  28.701  0.00  0.00    -0.028 A 
ATOM     24  C5  UNL     1      22.456   0.379  29.190  0.00  0.00    +0.046 C 
ATOM     25  C6  UNL     1      21.305   2.637  29.455  0.00  0.00    +0.055 A 
ATOM     26  C23 UNL     1      20.987   3.908  28.939  0.00  0.00    +0.063 A 
ATOM     27 CL1  UNL     1      19.970   5.024  29.841  0.00  0.00    -0.082 Cl
ATOM     28  C24 UNL     1      21.508   4.318  27.708  0.00  0.00    +0.025 A 
ENDBRANCH  16  25
ENDBRANCH   1  17
BRANCH   7  29
ATOM     29  C14 UNL     1      18.702   4.414  35.717  0.00  0.00    +0.040 C 
ATOM     30  C15 UNL     1      18.073   5.145  36.894  0.00  0.00    +0.010 C 
ATOM     31  C16 UNL     1      17.667   5.502  35.474  0.00  0.00    +0.010 C 
ENDBRANCH   7  29
TORSDOF 4
ENDMDL
MODEL 9
REMARK VINA RESULT:    -6.514      5.930      8.369
REMARK INTER + INTRA:          -8.948
REMARK INTER:                  -8.265
REMARK INTRA:                  -0.683
REMARK UNBOUND:                -0.911
REMARK  Name = /home/qwerty/github/datacon2025hack/step_04_hit_selection/docking/ligands/lig_289.pdb
REMARK  6 active torsions:
REMARK  status: ('A' for Active; 'I' for Inactive)
REMARK    1  A    between atoms: C1_1  and  C2_2
REMARK    2  A    between atoms: C4_4  and  C5_5
REMARK    3  A    between atoms: C6_6  and  N1_7
REMARK    4  A    between atoms: C7_8  and  C8_10
REMARK    5  A    between atoms: C13_16  and  C14_17
REMARK    6  A    between atoms: N4_21  and  C17_22
REMARK                            x       y       z     vdW  Elec       q    Type
REMARK                         _______ _______ _______ _____ _____    ______ ____
ROOT
ATOM      1  C8  UNL     1      18.248   1.591  26.278  0.00  0.00    +0.056 A 
ATOM      2  C9  UNL     1      19.532   1.142  25.858  0.00  0.00    +0.126 A 
ATOM      3  N2  UNL     1      20.506   0.852  26.773  0.00  0.00    -0.235 NA
ATOM      4  C10 UNL     1      20.241   1.017  28.092  0.00  0.00    +0.164 A 
ATOM      5  C11 UNL     1      19.028   1.436  28.540  0.00  0.00    +0.043 A 
ATOM      6  C12 UNL     1      17.995   1.740  27.661  0.00  0.00    +0.028 A 
ATOM      7  C13 UNL     1      19.125   1.407  29.915  0.00  0.00    +0.076 A 
ATOM      8  N3  UNL     1      20.359   0.958  30.255  0.00  0.00    -0.169 NA
ATOM      9  N4  UNL     1      21.046   0.734  29.136  0.00  0.00    -0.214 N 
ENDROOT
BRANCH   9  10
ATOM     10  C17 UNL     1      22.395   0.233  29.115  0.00  0.00    +0.068 A 
ATOM     11  C18 UNL     1      22.630  -1.133  28.881  0.00  0.00    +0.028 A 
ATOM     12  C19 UNL     1      23.934  -1.636  28.866  0.00  0.00    +0.002 A 
ATOM     13  C20 UNL     1      25.017  -0.783  29.095  0.00  0.00    +0.000 A 
ATOM     14  C21 UNL     1      24.795   0.573  29.344  0.00  0.00    +0.002 A 
ATOM     15  C22 UNL     1      23.493   1.081  29.360  0.00  0.00    +0.028 A 
ENDBRANCH   9  10
BRANCH   1  17
ATOM     16  N1  UNL     1      17.243   1.391  23.955  0.00  0.00    -0.280 N 
ATOM     17  C7  UNL     1      17.190   1.913  25.292  0.00  0.00    +0.250 C 
ATOM     18  O1  UNL     1      16.218   2.638  25.639  0.00  0.00    -0.270 OA
ATOM     19  H8  UNL     1      17.775   0.510  23.778  0.00  0.00    +0.155 HD
BRANCH  16  25
ATOM     20  C1  UNL     1      13.728   3.350  19.845  0.00  0.00    +0.044 C 
ATOM     21  C2  UNL     1      14.669   2.818  20.885  0.00  0.00    -0.049 A 
ATOM     22  C3  UNL     1      15.885   3.467  21.134  0.00  0.00    +0.008 A 
ATOM     23  C4  UNL     1      16.762   2.993  22.122  0.00  0.00    -0.028 A 
ATOM     24  C5  UNL     1      18.078   3.694  22.329  0.00  0.00    +0.046 C 
ATOM     25  C6  UNL     1      16.385   1.882  22.912  0.00  0.00    +0.055 A 
ATOM     26  C23 UNL     1      15.163   1.231  22.657  0.00  0.00    +0.063 A 
ATOM     27 CL1  UNL     1      14.657  -0.156  23.613  0.00  0.00    -0.082 Cl
ATOM     28  C24 UNL     1      14.310   1.705  21.655  0.00  0.00    +0.025 A 
ENDBRANCH  16  25
ENDBRANCH   1  17
BRANCH   7  29
ATOM     29  C14 UNL     1      18.034   1.701  30.897  0.00  0.00    +0.040 C 
ATOM     30  C15 UNL     1      17.277   2.994  30.633  0.00  0.00    +0.010 C 
ATOM     31  C16 UNL     1      18.279   2.921  31.772  0.00  0.00    +0.010 C 
ENDBRANCH   7  29
TORSDOF 4
ENDMDL
