MODEL 1
REMARK VINA RESULT:    -5.793      0.000      0.000
REMARK INTER + INTRA:          -8.431
REMARK INTER:                  -7.656
REMARK INTRA:                  -0.775
REMARK UNBOUND:                -0.775
REMARK  Name = /home/qwerty/github/datacon2025hack/step_04_hit_selection/docking/ligands/lig_467.pdb
REMARK  9 active torsions:
REMARK  status: ('A' for Active; 'I' for Inactive)
REMARK    1  A    between atoms: C1_1  and  C2_2
REMARK    2  A    between atoms: C2_2  and  C3_3
REMARK    3  A    between atoms: C3_3  and  N1_4
REMARK    4  A    between atoms: C3_3  and  C12_16
REMARK    5  A    between atoms: C7_10  and  C8_11
REMARK    6  A    between atoms: C10_13  and  C11_14
REMARK    7  A    between atoms: C11_14  and  N3_15
REMARK    8  A    between atoms: C16_20  and  O2_21
REMARK    9  A    between atoms: O2_21  and  C17_22
REMARK                            x       y       z     vdW  Elec       q    Type
REMARK                         _______ _______ _______ _____ _____    ______ ____
ROOT
ATOM      1  N1  UNL     1      11.988  13.213  31.715  0.00  0.00    -0.292 N 
ATOM      2  C4  UNL     1      11.632  13.660  33.035  0.00  0.00    +0.303 C 
ATOM      3  O1  UNL     1      10.915  14.690  33.166  0.00  0.00    -0.253 OA
ATOM      4  N2  UNL     1      12.081  12.942  34.206  0.00  0.00    -0.281 N 
ATOM      5  C5  UNL     1      12.537  11.546  34.067  0.00  0.00    +0.110 C 
ATOM      6  C6  UNL     1      12.530  10.792  35.402  0.00  0.00    +0.022 C 
ATOM      7  C7  UNL     1      11.370  11.277  36.277  0.00  0.00    -0.011 C 
ATOM      8  C8  UNL     1      11.225  10.403  37.529  0.00  0.00    +0.007 C 
ATOM      9  C9  UNL     1      11.571  12.759  36.660  0.00  0.00    +0.027 C 
ATOM     10  C10 UNL     1      12.158  13.631  35.513  0.00  0.00    +0.091 C 
ATOM     11  H7  UNL     1      12.730  12.487  31.605  0.00  0.00    +0.151 HD
ENDROOT
BRANCH   1  12
ATOM     12  C3  UNL     1      11.332  13.747  30.515  0.00  0.00    +0.105 C 
BRANCH  12  13
ATOM     13  C12 UNL     1      10.135  12.887  30.161  0.00  0.00    -0.024 A 
ATOM     14  C13 UNL     1       8.961  13.479  29.669  0.00  0.00    +0.006 A 
ATOM     15  C14 UNL     1       7.860  12.687  29.336  0.00  0.00    +0.004 A 
ATOM     16  C15 UNL     1       7.918  11.299  29.486  0.00  0.00    +0.045 A 
ATOM     17  C16 UNL     1       9.090  10.689  29.972  0.00  0.00    +0.120 A 
ATOM     18  C18 UNL     1      10.191  11.489  30.303  0.00  0.00    +0.051 A 
BRANCH  17  19
ATOM     19  O2  UNL     1       9.200   9.301  30.140  0.00  0.00    -0.495 OA
ATOM     20  C17 UNL     1       8.097   8.401  30.147  0.00  0.00    +0.277 C 
ENDBRANCH  17  19
ENDBRANCH  12  13
BRANCH  12  22
ATOM     21  C1  UNL     1      12.003  14.941  28.361  0.00  0.00    +0.006 C 
ATOM     22  C2  UNL     1      12.333  13.818  29.344  0.00  0.00    +0.024 C 
ENDBRANCH  12  22
ENDBRANCH   1  12
BRANCH  10  23
ATOM     23  C11 UNL     1      13.611  14.056  35.806  0.00  0.00    +0.100 C 
BRANCH  23  24
ATOM     24  N3  UNL     1      14.023  13.607  37.134  0.00  0.00    -0.328 NA
ATOM     25  H21 UNL     1      14.834  12.955  37.023  0.00  0.00    +0.118 HD
ATOM     26  H22 UNL     1      13.244  13.035  37.533  0.00  0.00    +0.118 HD
ENDBRANCH  23  24
ENDBRANCH  10  23
TORSDOF 6
ENDMDL
MODEL 2
REMARK VINA RESULT:    -5.734     14.319     16.818
REMARK INTER + INTRA:          -8.353
REMARK INTER:                  -7.572
REMARK INTRA:                  -0.781
REMARK UNBOUND:                -0.775
REMARK  Name = /home/qwerty/github/datacon2025hack/step_04_hit_selection/docking/ligands/lig_467.pdb
REMARK  9 active torsions:
REMARK  status: ('A' for Active; 'I' for Inactive)
REMARK    1  A    between atoms: C1_1  and  C2_2
REMARK    2  A    between atoms: C2_2  and  C3_3
REMARK    3  A    between atoms: C3_3  and  N1_4
REMARK    4  A    between atoms: C3_3  and  C12_16
REMARK    5  A    between atoms: C7_10  and  C8_11
REMARK    6  A    between atoms: C10_13  and  C11_14
REMARK    7  A    between atoms: C11_14  and  N3_15
REMARK    8  A    between atoms: C16_20  and  O2_21
REMARK    9  A    between atoms: O2_21  and  C17_22
REMARK                            x       y       z     vdW  Elec       q    Type
REMARK                         _______ _______ _______ _____ _____    ______ ____
ROOT
ATOM      1  N1  UNL     1      19.317   1.279  25.704  0.00  0.00    -0.292 N 
ATOM      2  C4  UNL     1      18.902  -0.035  25.292  0.00  0.00    +0.303 C 
ATOM      3  O1  UNL     1      19.766  -0.946  25.170  0.00  0.00    -0.253 OA
ATOM      4  N2  UNL     1      17.511  -0.323  25.024  0.00  0.00    -0.281 N 
ATOM      5  C5  UNL     1      16.471   0.575  25.560  0.00  0.00    +0.110 C 
ATOM      6  C6  UNL     1      15.089  -0.088  25.600  0.00  0.00    +0.022 C 
ATOM      7  C7  UNL     1      15.228  -1.584  25.899  0.00  0.00    -0.011 C 
ATOM      8  C8  UNL     1      13.856  -2.224  26.139  0.00  0.00    +0.007 C 
ATOM      9  C9  UNL     1      15.975  -2.292  24.749  0.00  0.00    +0.027 C 
ATOM     10  C10 UNL     1      17.145  -1.460  24.151  0.00  0.00    +0.091 C 
ATOM     11  H7  UNL     1      18.646   2.075  25.621  0.00  0.00    +0.151 HD
ENDROOT
BRANCH   1  12
ATOM     12  C3  UNL     1      20.657   1.532  26.245  0.00  0.00    +0.105 C 
BRANCH  12  13
ATOM     13  C12 UNL     1      20.701   1.139  27.709  0.00  0.00    -0.024 A 
ATOM     14  C13 UNL     1      21.827   0.481  28.230  0.00  0.00    +0.006 A 
ATOM     15  C14 UNL     1      21.872   0.125  29.579  0.00  0.00    +0.004 A 
ATOM     16  C15 UNL     1      20.799   0.424  30.423  0.00  0.00    +0.045 A 
ATOM     17  C16 UNL     1      19.666   1.090  29.918  0.00  0.00    +0.120 A 
ATOM     18  C18 UNL     1      19.628   1.444  28.564  0.00  0.00    +0.051 A 
BRANCH  17  19
ATOM     19  O2  UNL     1      18.564   1.413  30.723  0.00  0.00    -0.495 OA
ATOM     20  C17 UNL     1      18.601   1.492  32.144  0.00  0.00    +0.277 C 
ENDBRANCH  17  19
ENDBRANCH  12  13
BRANCH  12  22
ATOM     21  C1  UNL     1      22.538   3.201  25.801  0.00  0.00    +0.006 C 
ATOM     22  C2  UNL     1      21.041   3.013  26.053  0.00  0.00    +0.024 C 
ENDBRANCH  12  22
ENDBRANCH   1  12
BRANCH  10  23
ATOM     23  C11 UNL     1      16.819  -0.957  22.730  0.00  0.00    +0.100 C 
BRANCH  23  24
ATOM     24  N3  UNL     1      15.561  -1.528  22.256  0.00  0.00    -0.328 NA
ATOM     25  H21 UNL     1      14.776  -1.069  22.773  0.00  0.00    +0.118 HD
ATOM     26  H22 UNL     1      15.542  -2.536  22.536  0.00  0.00    +0.118 HD
ENDBRANCH  23  24
ENDBRANCH  10  23
TORSDOF 6
ENDMDL
MODEL 3
REMARK VINA RESULT:    -5.707      6.629     10.830
REMARK INTER + INTRA:          -8.316
REMARK INTER:                  -7.625
REMARK INTRA:                  -0.692
REMARK UNBOUND:                -0.775
REMARK  Name = /home/qwerty/github/datacon2025hack/step_04_hit_selection/docking/ligands/lig_467.pdb
REMARK  9 active torsions:
REMARK  status: ('A' for Active; 'I' for Inactive)
REMARK    1  A    between atoms: C1_1  and  C2_2
REMARK    2  A    between atoms: C2_2  and  C3_3
REMARK    3  A    between atoms: C3_3  and  N1_4
REMARK    4  A    between atoms: C3_3  and  C12_16
REMARK    5  A    between atoms: C7_10  and  C8_11
REMARK    6  A    between atoms: C10_13  and  C11_14
REMARK    7  A    between atoms: C11_14  and  N3_15
REMARK    8  A    between atoms: C16_20  and  O2_21
REMARK    9  A    between atoms: O2_21  and  C17_22
REMARK                            x       y       z     vdW  Elec       q    Type
REMARK                         _______ _______ _______ _____ _____    ______ ____
ROOT
ATOM      1  N1  UNL     1       8.658   9.388  25.533  0.00  0.00    -0.292 N 
ATOM      2  C4  UNL     1       8.291   9.620  24.162  0.00  0.00    +0.303 C 
ATOM      3  O1  UNL     1       7.188  10.177  23.903  0.00  0.00    -0.253 OA
ATOM      4  N2  UNL     1       9.169   9.229  23.083  0.00  0.00    -0.281 N 
ATOM      5  C5  UNL     1      10.595   8.982  23.365  0.00  0.00    +0.110 C 
ATOM      6  C6  UNL     1      11.461   9.039  22.102  0.00  0.00    +0.022 C 
ATOM      7  C7  UNL     1      10.904  10.081  21.125  0.00  0.00    -0.011 C 
ATOM      8  C8  UNL     1      11.862  10.295  19.948  0.00  0.00    +0.007 C 
ATOM      9  C9  UNL     1       9.506   9.654  20.629  0.00  0.00    +0.027 C 
ATOM     10  C10 UNL     1       8.621   8.999  21.728  0.00  0.00    +0.091 C 
ATOM     11  H7  UNL     1       9.467   8.762  25.745  0.00  0.00    +0.151 HD
ENDROOT
BRANCH   1  12
ATOM     12  C3  UNL     1       7.931  10.012  26.644  0.00  0.00    +0.105 C 
BRANCH  12  13
ATOM     13  C12 UNL     1       8.787  11.093  27.273  0.00  0.00    -0.024 A 
ATOM     14  C13 UNL     1      10.120  11.265  26.867  0.00  0.00    +0.006 A 
ATOM     15  C14 UNL     1      10.907  12.265  27.441  0.00  0.00    +0.004 A 
ATOM     16  C15 UNL     1      10.374  13.106  28.421  0.00  0.00    +0.045 A 
ATOM     17  C16 UNL     1       9.038  12.951  28.836  0.00  0.00    +0.120 A 
ATOM     18  C18 UNL     1       8.253  11.947  28.255  0.00  0.00    +0.051 A 
BRANCH  17  19
ATOM     19  O2  UNL     1       8.456  13.770  29.815  0.00  0.00    -0.495 OA
ATOM     20  C17 UNL     1       7.078  14.125  29.851  0.00  0.00    +0.277 C 
ENDBRANCH  17  19
ENDBRANCH  12  13
BRANCH  12  22
ATOM     21  C1  UNL     1       7.148   7.614  27.036  0.00  0.00    +0.006 C 
ATOM     22  C2  UNL     1       7.524   8.947  27.683  0.00  0.00    +0.024 C 
ENDBRANCH  12  22
ENDBRANCH   1  12
BRANCH  10  23
ATOM     23  C11 UNL     1       8.429   7.490  21.480  0.00  0.00    +0.100 C 
BRANCH  23  24
ATOM     24  N3  UNL     1       8.960   7.108  20.173  0.00  0.00    -0.328 NA
ATOM     25  H21 UNL     1       9.803   6.507  20.323  0.00  0.00    +0.118 HD
ATOM     26  H22 UNL     1       9.303   7.977  19.703  0.00  0.00    +0.118 HD
ENDBRANCH  23  24
ENDBRANCH  10  23
TORSDOF 6
ENDMDL
MODEL 4
REMARK VINA RESULT:    -5.508     12.809     14.264
REMARK INTER + INTRA:          -8.054
REMARK INTER:                  -7.249
REMARK INTRA:                  -0.805
REMARK UNBOUND:                -0.775
REMARK  Name = /home/qwerty/github/datacon2025hack/step_04_hit_selection/docking/ligands/lig_467.pdb
REMARK  9 active torsions:
REMARK  status: ('A' for Active; 'I' for Inactive)
REMARK    1  A    between atoms: C1_1  and  C2_2
REMARK    2  A    between atoms: C2_2  and  C3_3
REMARK    3  A    between atoms: C3_3  and  N1_4
REMARK    4  A    between atoms: C3_3  and  C12_16
REMARK    5  A    between atoms: C7_10  and  C8_11
REMARK    6  A    between atoms: C10_13  and  C11_14
REMARK    7  A    between atoms: C11_14  and  N3_15
REMARK    8  A    between atoms: C16_20  and  O2_21
REMARK    9  A    between atoms: O2_21  and  C17_22
REMARK                            x       y       z     vdW  Elec       q    Type
REMARK                         _______ _______ _______ _____ _____    ______ ____
ROOT
ATOM      1  N1  UNL     1      20.946   4.329  31.850  0.00  0.00    -0.292 N 
ATOM      2  C4  UNL     1      22.145   4.571  32.606  0.00  0.00    +0.303 C 
ATOM      3  O1  UNL     1      22.859   3.593  32.961  0.00  0.00    -0.253 OA
ATOM      4  N2  UNL     1      22.542   5.916  32.956  0.00  0.00    -0.281 N 
ATOM      5  C5  UNL     1      21.976   7.054  32.208  0.00  0.00    +0.110 C 
ATOM      6  C6  UNL     1      22.812   8.330  32.363  0.00  0.00    +0.022 C 
ATOM      7  C7  UNL     1      24.299   7.978  32.477  0.00  0.00    -0.011 C 
ATOM      8  C8  UNL     1      25.166   9.242  32.434  0.00  0.00    +0.007 C 
ATOM      9  C9  UNL     1      24.560   7.174  33.769  0.00  0.00    +0.027 C 
ATOM     10  C10 UNL     1      23.442   6.146  34.108  0.00  0.00    +0.091 C 
ATOM     11  H7  UNL     1      20.259   5.105  31.721  0.00  0.00    +0.151 HD
ENDROOT
BRANCH   1  12
ATOM     12  C3  UNL     1      20.663   3.022  31.247  0.00  0.00    +0.105 C 
BRANCH  12  13
ATOM     13  C12 UNL     1      21.350   2.919  29.900  0.00  0.00    -0.024 A 
ATOM     14  C13 UNL     1      22.133   1.795  29.590  0.00  0.00    +0.006 A 
ATOM     15  C14 UNL     1      22.761   1.696  28.348  0.00  0.00    +0.004 A 
ATOM     16  C15 UNL     1      22.613   2.712  27.400  0.00  0.00    +0.045 A 
ATOM     17  C16 UNL     1      21.827   3.843  27.692  0.00  0.00    +0.120 A 
ATOM     18  C18 UNL     1      21.199   3.935  28.940  0.00  0.00    +0.051 A 
BRANCH  17  19
ATOM     19  O2  UNL     1      21.646   4.889  26.775  0.00  0.00    -0.495 OA
ATOM     20  C17 UNL     1      22.258   4.949  25.492  0.00  0.00    +0.277 C 
ENDBRANCH  17  19
ENDBRANCH  12  13
BRANCH  12  22
ATOM     21  C1  UNL     1      18.733   1.352  31.313  0.00  0.00    +0.006 C 
ATOM     22  C2  UNL     1      19.140   2.812  31.114  0.00  0.00    +0.024 C 
ENDBRANCH  12  22
ENDBRANCH   1  12
BRANCH  10  23
ATOM     23  C11 UNL     1      22.626   6.578  35.343  0.00  0.00    +0.100 C 
BRANCH  23  24
ATOM     24  N3  UNL     1      23.297   7.666  36.051  0.00  0.00    -0.328 NA
ATOM     25  H21 UNL     1      24.207   7.306  36.421  0.00  0.00    +0.118 HD
ATOM     26  H22 UNL     1      22.718   7.906  36.888  0.00  0.00    +0.118 HD
ENDBRANCH  23  24
ENDBRANCH  10  23
TORSDOF 6
ENDMDL
MODEL 5
REMARK VINA RESULT:    -5.451     13.052     14.585
REMARK INTER + INTRA:          -7.978
REMARK INTER:                  -7.302
REMARK INTRA:                  -0.676
REMARK UNBOUND:                -0.775
REMARK  Name = /home/qwerty/github/datacon2025hack/step_04_hit_selection/docking/ligands/lig_467.pdb
REMARK  9 active torsions:
REMARK  status: ('A' for Active; 'I' for Inactive)
REMARK    1  A    between atoms: C1_1  and  C2_2
REMARK    2  A    between atoms: C2_2  and  C3_3
REMARK    3  A    between atoms: C3_3  and  N1_4
REMARK    4  A    between atoms: C3_3  and  C12_16
REMARK    5  A    between atoms: C7_10  and  C8_11
REMARK    6  A    between atoms: C10_13  and  C11_14
REMARK    7  A    between atoms: C11_14  and  N3_15
REMARK    8  A    between atoms: C16_20  and  O2_21
REMARK    9  A    between atoms: O2_21  and  C17_22
REMARK                            x       y       z     vdW  Elec       q    Type
REMARK                         _______ _______ _______ _____ _____    ______ ____
ROOT
ATOM      1  N1  UNL     1      21.611   4.518  32.272  0.00  0.00    -0.292 N 
ATOM      2  C4  UNL     1      22.777   5.298  32.589  0.00  0.00    +0.303 C 
ATOM      3  O1  UNL     1      23.839   4.710  32.934  0.00  0.00    -0.253 OA
ATOM      4  N2  UNL     1      22.748   6.741  32.512  0.00  0.00    -0.281 N 
ATOM      5  C5  UNL     1      21.690   7.401  31.724  0.00  0.00    +0.110 C 
ATOM      6  C6  UNL     1      22.049   8.845  31.356  0.00  0.00    +0.022 C 
ATOM      7  C7  UNL     1      23.558   8.972  31.122  0.00  0.00    -0.011 C 
ATOM      8  C8  UNL     1      23.911  10.355  30.562  0.00  0.00    +0.007 C 
ATOM      9  C9  UNL     1      24.327   8.694  32.431  0.00  0.00    +0.027 C 
ATOM     10  C10 UNL     1      23.720   7.544  33.285  0.00  0.00    +0.091 C 
ATOM     11  H7  UNL     1      20.688   4.997  32.176  0.00  0.00    +0.151 HD
ENDROOT
BRANCH   1  12
ATOM     12  C3  UNL     1      21.682   3.067  32.074  0.00  0.00    +0.105 C 
BRANCH  12  13
ATOM     13  C12 UNL     1      21.868   2.760  30.601  0.00  0.00    -0.024 A 
ATOM     14  C13 UNL     1      21.417   3.666  29.628  0.00  0.00    +0.006 A 
ATOM     15  C14 UNL     1      21.594   3.388  28.271  0.00  0.00    +0.004 A 
ATOM     16  C15 UNL     1      22.226   2.208  27.870  0.00  0.00    +0.045 A 
ATOM     17  C16 UNL     1      22.690   1.291  28.833  0.00  0.00    +0.120 A 
ATOM     18  C18 UNL     1      22.510   1.577  30.192  0.00  0.00    +0.051 A 
BRANCH  17  19
ATOM     19  O2  UNL     1      23.330   0.094  28.482  0.00  0.00    -0.495 OA
ATOM     20  C17 UNL     1      22.869  -1.202  28.849  0.00  0.00    +0.277 C 
ENDBRANCH  17  19
ENDBRANCH  12  13
BRANCH  12  22
ATOM     21  C1  UNL     1      20.312   2.497  34.151  0.00  0.00    +0.006 C 
ATOM     22  C2  UNL     1      20.414   2.387  32.629  0.00  0.00    +0.024 C 
ENDBRANCH  12  22
ENDBRANCH   1  12
BRANCH  10  23
ATOM     23  C11 UNL     1      23.065   8.078  34.575  0.00  0.00    +0.100 C 
BRANCH  23  24
ATOM     24  N3  UNL     1      23.537   7.334  35.741  0.00  0.00    -0.328 NA
ATOM     25  H21 UNL     1      24.430   7.769  36.069  0.00  0.00    +0.118 HD
ATOM     26  H22 UNL     1      23.784   6.369  35.424  0.00  0.00    +0.118 HD
ENDBRANCH  23  24
ENDBRANCH  10  23
TORSDOF 6
ENDMDL
MODEL 6
REMARK VINA RESULT:    -5.424      6.434     10.611
REMARK INTER + INTRA:          -7.943
REMARK INTER:                  -7.209
REMARK INTRA:                  -0.733
REMARK UNBOUND:                -0.775
REMARK  Name = /home/qwerty/github/datacon2025hack/step_04_hit_selection/docking/ligands/lig_467.pdb
REMARK  9 active torsions:
REMARK  status: ('A' for Active; 'I' for Inactive)
REMARK    1  A    between atoms: C1_1  and  C2_2
REMARK    2  A    between atoms: C2_2  and  C3_3
REMARK    3  A    between atoms: C3_3  and  N1_4
REMARK    4  A    between atoms: C3_3  and  C12_16
REMARK    5  A    between atoms: C7_10  and  C8_11
REMARK    6  A    between atoms: C10_13  and  C11_14
REMARK    7  A    between atoms: C11_14  and  N3_15
REMARK    8  A    between atoms: C16_20  and  O2_21
REMARK    9  A    between atoms: O2_21  and  C17_22
REMARK                            x       y       z     vdW  Elec       q    Type
REMARK                         _______ _______ _______ _____ _____    ______ ____
ROOT
ATOM      1  N1  UNL     1       8.788   9.511  25.696  0.00  0.00    -0.292 N 
ATOM      2  C4  UNL     1       8.563   9.800  24.305  0.00  0.00    +0.303 C 
ATOM      3  O1  UNL     1       7.489  10.364  23.958  0.00  0.00    -0.253 OA
ATOM      4  N2  UNL     1       9.550   9.456  23.307  0.00  0.00    -0.281 N 
ATOM      5  C5  UNL     1      10.941   9.201  23.726  0.00  0.00    +0.110 C 
ATOM      6  C6  UNL     1      11.933   9.314  22.562  0.00  0.00    +0.022 C 
ATOM      7  C7  UNL     1      11.473  10.395  21.578  0.00  0.00    -0.011 C 
ATOM      8  C8  UNL     1      12.545  10.661  20.515  0.00  0.00    +0.007 C 
ATOM      9  C9  UNL     1      10.136   9.986  20.922  0.00  0.00    +0.027 C 
ATOM     10  C10 UNL     1       9.147   9.283  21.895  0.00  0.00    +0.091 C 
ATOM     11  H7  UNL     1       9.574   8.878  25.965  0.00  0.00    +0.151 HD
ENDROOT
BRANCH   1  12
ATOM     12  C3  UNL     1       7.945  10.085  26.751  0.00  0.00    +0.105 C 
BRANCH  12  13
ATOM     13  C12 UNL     1       8.690  11.206  27.447  0.00  0.00    -0.024 A 
ATOM     14  C13 UNL     1       8.090  11.901  28.510  0.00  0.00    +0.006 A 
ATOM     15  C14 UNL     1       8.778  12.929  29.156  0.00  0.00    +0.004 A 
ATOM     16  C15 UNL     1      10.071  13.274  28.754  0.00  0.00    +0.045 A 
ATOM     17  C16 UNL     1      10.690  12.583  27.695  0.00  0.00    +0.120 A 
ATOM     18  C18 UNL     1       9.995  11.552  27.052  0.00  0.00    +0.051 A 
BRANCH  17  19
ATOM     19  O2  UNL     1      11.986  12.890  27.255  0.00  0.00    -0.495 OA
ATOM     20  C17 UNL     1      12.484  14.211  27.075  0.00  0.00    +0.277 C 
ENDBRANCH  17  19
ENDBRANCH  12  13
BRANCH  12  22
ATOM     21  C1  UNL     1       7.150   7.679  27.061  0.00  0.00    +0.006 C 
ATOM     22  C2  UNL     1       7.521   8.991  27.753  0.00  0.00    +0.024 C 
ENDBRANCH  12  22
ENDBRANCH   1  12
BRANCH  10  23
ATOM     23  C11 UNL     1       8.992   7.785  21.565  0.00  0.00    +0.100 C 
BRANCH  23  24
ATOM     24  N3  UNL     1       9.432   7.507  20.200  0.00  0.00    -0.328 NA
ATOM     25  H21 UNL     1      10.434   7.794  20.113  0.00  0.00    +0.118 HD
ATOM     26  H22 UNL     1       8.894   8.134  19.558  0.00  0.00    +0.118 HD
ENDBRANCH  23  24
ENDBRANCH  10  23
TORSDOF 6
ENDMDL
MODEL 7
REMARK VINA RESULT:    -5.326     14.725     16.800
REMARK INTER + INTRA:          -7.813
REMARK INTER:                  -7.192
REMARK INTRA:                  -0.621
REMARK UNBOUND:                -0.775
REMARK  Name = /home/qwerty/github/datacon2025hack/step_04_hit_selection/docking/ligands/lig_467.pdb
REMARK  9 active torsions:
REMARK  status: ('A' for Active; 'I' for Inactive)
REMARK    1  A    between atoms: C1_1  and  C2_2
REMARK    2  A    between atoms: C2_2  and  C3_3
REMARK    3  A    between atoms: C3_3  and  N1_4
REMARK    4  A    between atoms: C3_3  and  C12_16
REMARK    5  A    between atoms: C7_10  and  C8_11
REMARK    6  A    between atoms: C10_13  and  C11_14
REMARK    7  A    between atoms: C11_14  and  N3_15
REMARK    8  A    between atoms: C16_20  and  O2_21
REMARK    9  A    between atoms: O2_21  and  C17_22
REMARK                            x       y       z     vdW  Elec       q    Type
REMARK                         _______ _______ _______ _____ _____    ______ ____
ROOT
ATOM      1  N1  UNL     1      18.574   1.181  25.683  0.00  0.00    -0.292 N 
ATOM      2  C4  UNL     1      17.987  -0.082  25.325  0.00  0.00    +0.303 C 
ATOM      3  O1  UNL     1      18.732  -1.018  24.923  0.00  0.00    -0.253 OA
ATOM      4  N2  UNL     1      16.560  -0.292  25.425  0.00  0.00    -0.281 N 
ATOM      5  C5  UNL     1      15.756   0.609  26.272  0.00  0.00    +0.110 C 
ATOM      6  C6  UNL     1      14.397   0.003  26.646  0.00  0.00    +0.022 C 
ATOM      7  C7  UNL     1      14.523  -1.515  26.812  0.00  0.00    -0.011 C 
ATOM      8  C8  UNL     1      13.229  -2.112  27.376  0.00  0.00    +0.007 C 
ATOM      9  C9  UNL     1      14.893  -2.171  25.465  0.00  0.00    +0.027 C 
ATOM     10  C10 UNL     1      15.908  -1.349  24.621  0.00  0.00    +0.091 C 
ATOM     11  H7  UNL     1      17.953   2.009  25.828  0.00  0.00    +0.151 HD
ENDROOT
BRANCH   1  12
ATOM     12  C3  UNL     1      20.022   1.339  25.855  0.00  0.00    +0.105 C 
BRANCH  12  13
ATOM     13  C12 UNL     1      20.375   1.252  27.327  0.00  0.00    -0.024 A 
ATOM     14  C13 UNL     1      19.369   1.351  28.302  0.00  0.00    +0.006 A 
ATOM     15  C14 UNL     1      19.692   1.264  29.657  0.00  0.00    +0.004 A 
ATOM     16  C15 UNL     1      21.018   1.074  30.055  0.00  0.00    +0.045 A 
ATOM     17  C16 UNL     1      22.037   0.966  29.090  0.00  0.00    +0.120 A 
ATOM     18  C18 UNL     1      21.707   1.053  27.733  0.00  0.00    +0.051 A 
BRANCH  17  19
ATOM     19  O2  UNL     1      23.383   0.774  29.438  0.00  0.00    -0.495 OA
ATOM     20  C17 UNL     1      24.176  -0.328  29.007  0.00  0.00    +0.277 C 
ENDBRANCH  17  19
ENDBRANCH  12  13
BRANCH  12  22
ATOM     21  C1  UNL     1      20.209   2.768  23.747  0.00  0.00    +0.006 C 
ATOM     22  C2  UNL     1      20.491   2.677  25.247  0.00  0.00    +0.024 C 
ENDBRANCH  12  22
ENDBRANCH   1  12
BRANCH  10  23
ATOM     23  C11 UNL     1      15.246  -0.735  23.372  0.00  0.00    +0.100 C 
BRANCH  23  24
ATOM     24  N3  UNL     1      15.597  -1.495  22.174  0.00  0.00    -0.328 NA
ATOM     25  H21 UNL     1      14.757  -1.533  21.551  0.00  0.00    +0.118 HD
ATOM     26  H22 UNL     1      15.785  -2.481  22.467  0.00  0.00    +0.118 HD
ENDBRANCH  23  24
ENDBRANCH  10  23
TORSDOF 6
ENDMDL
MODEL 8
REMARK VINA RESULT:    -5.315     13.259     14.583
REMARK INTER + INTRA:          -7.799
REMARK INTER:                  -7.107
REMARK INTRA:                  -0.692
REMARK UNBOUND:                -0.775
REMARK  Name = /home/qwerty/github/datacon2025hack/step_04_hit_selection/docking/ligands/lig_467.pdb
REMARK  9 active torsions:
REMARK  status: ('A' for Active; 'I' for Inactive)
REMARK    1  A    between atoms: C1_1  and  C2_2
REMARK    2  A    between atoms: C2_2  and  C3_3
REMARK    3  A    between atoms: C3_3  and  N1_4
REMARK    4  A    between atoms: C3_3  and  C12_16
REMARK    5  A    between atoms: C7_10  and  C8_11
REMARK    6  A    between atoms: C10_13  and  C11_14
REMARK    7  A    between atoms: C11_14  and  N3_15
REMARK    8  A    between atoms: C16_20  and  O2_21
REMARK    9  A    between atoms: O2_21  and  C17_22
REMARK                            x       y       z     vdW  Elec       q    Type
REMARK                         _______ _______ _______ _____ _____    ______ ____
ROOT
ATOM      1  N1  UNL     1      21.313   3.573  30.244  0.00  0.00    -0.292 N 
ATOM      2  C4  UNL     1      21.954   3.868  31.497  0.00  0.00    +0.303 C 
ATOM      3  O1  UNL     1      22.314   2.918  32.245  0.00  0.00    -0.253 OA
ATOM      4  N2  UNL     1      22.192   5.234  31.904  0.00  0.00    -0.281 N 
ATOM      5  C5  UNL     1      22.171   6.304  30.890  0.00  0.00    +0.110 C 
ATOM      6  C6  UNL     1      22.881   7.577  31.367  0.00  0.00    +0.022 C 
ATOM      7  C7  UNL     1      24.064   7.216  32.271  0.00  0.00    -0.011 C 
ATOM      8  C8  UNL     1      24.903   8.457  32.597  0.00  0.00    +0.007 C 
ATOM      9  C9  UNL     1      23.562   6.534  33.561  0.00  0.00    +0.027 C 
ATOM     10  C10 UNL     1      22.371   5.560  33.336  0.00  0.00    +0.091 C 
ATOM     11  H7  UNL     1      20.843   4.343  29.717  0.00  0.00    +0.151 HD
ENDROOT
BRANCH   1  12
ATOM     12  C3  UNL     1      21.305   2.218  29.679  0.00  0.00    +0.105 C 
BRANCH  12  13
ATOM     13  C12 UNL     1      21.355   2.294  28.166  0.00  0.00    -0.024 A 
ATOM     14  C13 UNL     1      20.590   1.410  27.389  0.00  0.00    +0.006 A 
ATOM     15  C14 UNL     1      20.630   1.483  25.995  0.00  0.00    +0.004 A 
ATOM     16  C15 UNL     1      21.428   2.440  25.362  0.00  0.00    +0.045 A 
ATOM     17  C16 UNL     1      22.197   3.338  26.127  0.00  0.00    +0.120 A 
ATOM     18  C18 UNL     1      22.151   3.260  27.524  0.00  0.00    +0.051 A 
BRANCH  17  19
ATOM     19  O2  UNL     1      23.013   4.316  25.540  0.00  0.00    -0.495 OA
ATOM     20  C17 UNL     1      22.535   5.379  24.723  0.00  0.00    +0.277 C 
ENDBRANCH  17  19
ENDBRANCH  12  13
BRANCH  12  22
ATOM     21  C1  UNL     1      20.411   0.302  31.110  0.00  0.00    +0.006 C 
ATOM     22  C2  UNL     1      20.059   1.446  30.158  0.00  0.00    +0.024 C 
ENDBRANCH  12  22
ENDBRANCH   1  12
BRANCH  10  23
ATOM     23  C11 UNL     1      21.059   6.118  33.923  0.00  0.00    +0.100 C 
BRANCH  23  24
ATOM     24  N3  UNL     1      20.239   5.042  34.474  0.00  0.00    -0.328 NA
ATOM     25  H21 UNL     1      19.334   5.017  33.949  0.00  0.00    +0.118 HD
ATOM     26  H22 UNL     1      19.996   5.298  35.458  0.00  0.00    +0.118 HD
ENDBRANCH  23  24
ENDBRANCH  10  23
TORSDOF 6
ENDMDL
MODEL 9
REMARK VINA RESULT:    -5.190     12.159     14.578
REMARK INTER + INTRA:          -7.634
REMARK INTER:                  -6.988
REMARK INTRA:                  -0.646
REMARK UNBOUND:                -0.775
REMARK  Name = /home/qwerty/github/datacon2025hack/step_04_hit_selection/docking/ligands/lig_467.pdb
REMARK  9 active torsions:
REMARK  status: ('A' for Active; 'I' for Inactive)
REMARK    1  A    between atoms: C1_1  and  C2_2
REMARK    2  A    between atoms: C2_2  and  C3_3
REMARK    3  A    between atoms: C3_3  and  N1_4
REMARK    4  A    between atoms: C3_3  and  C12_16
REMARK    5  A    between atoms: C7_10  and  C8_11
REMARK    6  A    between atoms: C10_13  and  C11_14
REMARK    7  A    between atoms: C11_14  and  N3_15
REMARK    8  A    between atoms: C16_20  and  O2_21
REMARK    9  A    between atoms: O2_21  and  C17_22
REMARK                            x       y       z     vdW  Elec       q    Type
REMARK                         _______ _______ _______ _____ _____    ______ ____
ROOT
ATOM      1  N1  UNL     1      22.091   5.261  32.677  0.00  0.00    -0.292 N 
ATOM      2  C4  UNL     1      22.320   3.902  32.266  0.00  0.00    +0.303 C 
ATOM      3  O1  UNL     1      23.494   3.440  32.286  0.00  0.00    -0.253 OA
ATOM      4  N2  UNL     1      21.224   3.063  31.836  0.00  0.00    -0.281 N 
ATOM      5  C5  UNL     1      19.844   3.432  32.204  0.00  0.00    +0.110 C 
ATOM      6  C6  UNL     1      18.873   2.251  32.096  0.00  0.00    +0.022 C 
ATOM      7  C7  UNL     1      19.585   0.945  32.466  0.00  0.00    -0.011 C 
ATOM      8  C8  UNL     1      18.587  -0.215  32.556  0.00  0.00    +0.007 C 
ATOM      9  C9  UNL     1      20.700   0.637  31.445  0.00  0.00    +0.027 C 
ATOM     10  C10 UNL     1      21.483   1.894  30.968  0.00  0.00    +0.091 C 
ATOM     11  H7  UNL     1      21.166   5.704  32.481  0.00  0.00    +0.151 HD
ENDROOT
BRANCH   1  12
ATOM     12  C3  UNL     1      23.121   6.042  33.371  0.00  0.00    +0.105 C 
BRANCH  12  13
ATOM     13  C12 UNL     1      22.672   6.335  34.789  0.00  0.00    -0.024 A 
ATOM     14  C13 UNL     1      23.614   6.401  35.829  0.00  0.00    +0.006 A 
ATOM     15  C14 UNL     1      23.203   6.677  37.134  0.00  0.00    +0.004 A 
ATOM     16  C15 UNL     1      21.852   6.894  37.416  0.00  0.00    +0.045 A 
ATOM     17  C16 UNL     1      20.895   6.838  36.384  0.00  0.00    +0.120 A 
ATOM     18  C18 UNL     1      21.315   6.561  35.078  0.00  0.00    +0.051 A 
BRANCH  17  19
ATOM     19  O2  UNL     1      19.528   7.049  36.615  0.00  0.00    -0.495 OA
ATOM     20  C17 UNL     1      18.727   6.256  37.485  0.00  0.00    +0.277 C 
ENDBRANCH  17  19
ENDBRANCH  12  13
BRANCH  12  22
ATOM     21  C1  UNL     1      22.934   7.287  31.150  0.00  0.00    +0.006 C 
ATOM     22  C2  UNL     1      23.416   7.345  32.599  0.00  0.00    +0.024 C 
ENDBRANCH  12  22
ENDBRANCH   1  12
BRANCH  10  23
ATOM     23  C11 UNL     1      21.163   2.240  29.500  0.00  0.00    +0.100 C 
BRANCH  23  24
ATOM     24  N3  UNL     1      22.196   1.717  28.608  0.00  0.00    -0.328 NA
ATOM     25  H21 UNL     1      22.575   2.511  28.043  0.00  0.00    +0.118 HD
ATOM     26  H22 UNL     1      21.733   1.071  27.928  0.00  0.00    +0.118 HD
ENDBRANCH  23  24
ENDBRANCH  10  23
TORSDOF 6
ENDMDL
