REMARK  Name = /home/qwerty/github/datacon2025hack/step_04_hit_selection/docking/ligands/lig_340.pdb
REMARK  3 active torsions:
REMARK  status: ('A' for Active; 'I' for Inactive)
REMARK    1  A    between atoms: C1_2  and  C17_25
REMARK    2  A    between atoms: N1_3  and  C2_4
REMARK    3  A    between atoms: C6_10  and  C7_11
REMARK                            x       y       z     vdW  Elec       q    Type
REMARK                         _______ _______ _______ _____ _____    ______ ____
ROOT
ATOM      1  C2  UNL     1       2.752   1.096   1.099  0.00  0.00    +0.034 A 
ATOM      2  C3  UNL     1       3.175   1.943   2.156  0.00  0.00    +0.025 A 
ATOM      3  C4  UNL     1       2.248   2.473   3.071  0.00  0.00    +0.029 A 
ATOM      4  C5  UNL     1       0.908   2.147   2.896  0.00  0.00    +0.067 A 
ATOM      5  N2  UNL     1      -0.143   2.540   3.631  0.00  0.00    -0.276 N 
ATOM      6  N3  UNL     1      -1.244   2.013   3.109  0.00  0.00    -0.170 NA
ATOM      7  C6  UNL     1      -0.893   1.275   2.027  0.00  0.00    +0.135 A 
ATOM      8  C15 UNL     1       0.483   1.346   1.873  0.00  0.00    +0.032 A 
ATOM      9  C16 UNL     1       1.374   0.805   0.946  0.00  0.00    +0.035 A 
ATOM     10  H4  UNL     1      -0.124   3.159   4.472  0.00  0.00    +0.189 HD
ENDROOT
BRANCH   7  11
ATOM     11  C7  UNL     1      -1.861   0.539   1.197  0.00  0.00    +0.160 A 
ATOM     12  N4  UNL     1      -1.506  -0.213   0.119  0.00  0.00    -0.226 NA
ATOM     13  C8  UNL     1      -2.684  -0.688  -0.319  0.00  0.00    +0.093 A 
ATOM     14  C9  UNL     1      -2.915  -1.529  -1.417  0.00  0.00    +0.079 A 
ATOM     15  C10 UNL     1      -4.257  -1.869  -1.644  0.00  0.00    +0.168 A 
ATOM     16  C11 UNL     1      -5.276  -1.410  -0.846  0.00  0.00    +0.168 A 
ATOM     17  C12 UNL     1      -5.049  -0.568   0.252  0.00  0.00    +0.077 A 
ATOM     18  C13 UNL     1      -3.707  -0.229   0.478  0.00  0.00    +0.070 A 
ATOM     19  N5  UNL     1      -3.197   0.548   1.440  0.00  0.00    -0.336 N 
ATOM     20  O2  UNL     1      -6.477  -1.909  -1.312  0.00  0.00    -0.453 OA
ATOM     21  C14 UNL     1      -6.207  -2.725  -2.462  0.00  0.00    +0.466 C 
ATOM     22  O3  UNL     1      -4.783  -2.672  -2.637  0.00  0.00    -0.453 OA
ATOM     23  H7  UNL     1      -3.711   1.044   2.201  0.00  0.00    +0.167 HD
ENDBRANCH   7  11
BRANCH   1  26
ATOM     24  O1  UNL     1       2.849  -1.563  -0.025  0.00  0.00    -0.275 OA
ATOM     25  C1  UNL     1       3.602  -0.674  -0.504  0.00  0.00    +0.220 C 
ATOM     26  N1  UNL     1       3.727   0.593   0.169  0.00  0.00    -0.285 N 
ATOM     27  H1  UNL     1       4.609   1.141   0.062  0.00  0.00    +0.155 HD
BRANCH  25  28
ATOM     28  C17 UNL     1       4.372  -1.010  -1.761  0.00  0.00    +0.075 C 
ATOM     29  C18 UNL     1       4.916   0.147  -2.586  0.00  0.00    +0.013 C 
ATOM     30  C19 UNL     1       5.859  -0.693  -1.734  0.00  0.00    +0.013 C 
ENDBRANCH  25  28
ENDBRANCH   1  26
TORSDOF 3
