REMARK  Name = /home/qwerty/github/datacon2025hack/step_04_hit_selection/docking/ligands/lig_556.pdb
REMARK  4 active torsions:
REMARK  status: ('A' for Active; 'I' for Inactive)
REMARK    1  A    between atoms: C1_1  and  C2_2
REMARK    2  A    between atoms: C6_7  and  C7_8
REMARK    3  A    between atoms: C10_12  and  C11_13
REMARK    4  A    between atoms: C14_18  and  C15_19
REMARK                            x       y       z     vdW  Elec       q    Type
REMARK                         _______ _______ _______ _____ _____    ______ ____
ROOT
ATOM      1  C7  UNL     1      -3.438  -0.247   0.137  0.00  0.00    +0.139 A 
ATOM      2  N1  UNL     1      -2.581   0.692   0.626  0.00  0.00    -0.228 NA
ATOM      3  C8  UNL     1      -1.390   0.071   0.580  0.00  0.00    +0.090 A 
ATOM      4  C9  UNL     1      -0.151   0.576   0.966  0.00  0.00    +0.043 A 
ATOM      5  C10 UNL     1       0.982  -0.257   0.817  0.00  0.00    +0.039 A 
ATOM      6  C18 UNL     1       0.820  -1.575   0.309  0.00  0.00    +0.015 A 
ATOM      7  C19 UNL     1      -0.449  -2.048  -0.070  0.00  0.00    +0.028 A 
ATOM      8  C20 UNL     1      -1.530  -1.186   0.082  0.00  0.00    +0.067 A 
ATOM      9  N3  UNL     1      -2.818  -1.409  -0.204  0.00  0.00    -0.338 N 
ATOM     10  H21 UNL     1      -3.225  -2.281  -0.608  0.00  0.00    +0.167 HD
ENDROOT
BRANCH   5  11
ATOM     11  C11 UNL     1       2.317   0.234   1.225  0.00  0.00    +0.247 C 
ATOM     12  O1  UNL     1       2.404   1.026   2.203  0.00  0.00    -0.270 OA
ATOM     13  N2  UNL     1       3.516  -0.169   0.535  0.00  0.00    -0.298 N 
ATOM     14  C12 UNL     1       3.515  -0.365  -0.924  0.00  0.00    +0.108 C 
ATOM     15  C13 UNL     1       4.789   0.229  -1.528  0.00  0.00    +0.022 C 
ATOM     16  C14 UNL     1       6.069  -0.411  -0.932  0.00  0.00    -0.011 C 
ATOM     17  C15 UNL     1       7.228   0.594  -0.947  0.00  0.00    +0.007 C 
ATOM     18  C16 UNL     1       5.852  -0.992   0.489  0.00  0.00    +0.022 C 
ATOM     19  C17 UNL     1       4.783  -0.229   1.280  0.00  0.00    +0.108 C 
ENDBRANCH   5  11
BRANCH   1  26
ATOM     20  C1  UNL     1      -7.341   2.896   0.439  0.00  0.00    +0.044 C 
ATOM     21  C2  UNL     1      -6.792   1.537   0.121  0.00  0.00    -0.047 A 
ATOM     22  C3  UNL     1      -7.656   0.497  -0.248  0.00  0.00    +0.041 A 
ATOM     23  C4  UNL     1      -7.149  -0.778  -0.507  0.00  0.00    +0.124 A 
ATOM     24  F1  UNL     1      -7.991  -1.778  -0.868  0.00  0.00    -0.205 F 
ATOM     25  C5  UNL     1      -5.779  -1.028  -0.389  0.00  0.00    +0.050 A 
ATOM     26  C6  UNL     1      -4.896  -0.001  -0.004  0.00  0.00    +0.020 A 
ATOM     27  C21 UNL     1      -5.419   1.280   0.258  0.00  0.00    +0.015 A 
ENDBRANCH   1  26
TORSDOF 2
