REMARK  Name = /home/qwerty/github/datacon2025hack/step_04_hit_selection/docking/ligands/lig_145.pdb
REMARK  10 active torsions:
REMARK  status: ('A' for Active; 'I' for Inactive)
REMARK    1  A    between atoms: C1_1  and  O1_2
REMARK    2  A    between atoms: O1_2  and  C2_3
REMARK    3  A    between atoms: C4_5  and  O2_6
REMARK    4  A    between atoms: O2_6  and  C5_7
REMARK    5  A    between atoms: C7_9  and  O3_10
REMARK    6  A    between atoms: O3_10  and  C8_11
REMARK    7  A    between atoms: C8_11  and  C9_12
REMARK    8  A    between atoms: C9_12  and  N1_13
REMARK    9  A    between atoms: N2_16  and  C11_17
REMARK   10  A    between atoms: C13_19  and  C14_20
REMARK                            x       y       z     vdW  Elec       q    Type
REMARK                         _______ _______ _______ _____ _____    ______ ____
ROOT
ATOM      1  N1  UNL     1      -1.349   0.117  -2.571  0.00  0.00    -0.296 N 
ATOM      2  C10 UNL     1      -2.322  -0.083  -1.536  0.00  0.00    +0.304 C 
ATOM      3  O4  UNL     1      -2.480  -1.227  -1.029  0.00  0.00    -0.253 OA
ATOM      4  N2  UNL     1      -3.090   1.033  -1.061  0.00  0.00    -0.267 N 
ATOM      5  H13 UNL     1      -1.288   1.053  -3.030  0.00  0.00    +0.150 HD
ATOM      6  H14 UNL     1      -2.782   1.989  -1.345  0.00  0.00    +0.156 HD
ENDROOT
BRANCH   4   7
ATOM      7  C11 UNL     1      -4.197   0.908  -0.150  0.00  0.00    +0.072 A 
ATOM      8  C12 UNL     1      -5.125  -0.138  -0.283  0.00  0.00    +0.031 A 
ATOM      9  C13 UNL     1      -6.209  -0.240   0.597  0.00  0.00    -0.030 A 
ATOM     10  C14 UNL     1      -7.222  -1.334   0.435  0.00  0.00    +0.045 C 
ATOM     11  C15 UNL     1      -6.373   0.742   1.582  0.00  0.00    +0.116 A 
ATOM     12  N3  UNL     1      -5.478   1.757   1.688  0.00  0.00    -0.241 NA
ATOM     13  C16 UNL     1      -4.408   1.868   0.857  0.00  0.00    +0.150 A 
ATOM     14 CL1  UNL     1      -3.296   3.207   1.094  0.00  0.00    -0.060 Cl
ENDBRANCH   4   7
BRANCH   1  15
ATOM     15  C9  UNL     1      -0.481  -0.954  -3.056  0.00  0.00    +0.146 C 
BRANCH  15  16
ATOM     16  C8  UNL     1       0.615  -1.267  -2.040  0.00  0.00    +0.247 C 
BRANCH  16  17
ATOM     17  O3  UNL     1       1.389  -0.095  -1.791  0.00  0.00    -0.490 OA
BRANCH  17  22
ATOM     18  C2  UNL     1       4.206   1.322   0.138  0.00  0.00    +0.127 A 
ATOM     19  C3  UNL     1       4.635   0.201   0.873  0.00  0.00    +0.091 A 
ATOM     20  C4  UNL     1       3.982  -1.038   0.726  0.00  0.00    +0.127 A 
ATOM     21  C6  UNL     1       2.903  -1.145  -0.158  0.00  0.00    +0.091 A 
ATOM     22  C7  UNL     1       2.467  -0.030  -0.897  0.00  0.00    +0.128 A 
ATOM     23  C17 UNL     1       3.126   1.193  -0.741  0.00  0.00    +0.091 A 
BRANCH  18  25
ATOM     24  C1  UNL     1       5.931   2.857   1.101  0.00  0.00    +0.277 C 
ATOM     25  O1  UNL     1       4.824   2.577   0.250  0.00  0.00    -0.495 OA
ENDBRANCH  18  25
BRANCH  20  26
ATOM     26  O2  UNL     1       4.373  -2.183   1.437  0.00  0.00    -0.495 OA
ATOM     27  C5  UNL     1       5.450  -2.225   2.368  0.00  0.00    +0.277 C 
ENDBRANCH  20  26
ENDBRANCH  17  22
ENDBRANCH  16  17
ENDBRANCH  15  16
ENDBRANCH   1  15
TORSDOF 7
