REMARK  Name = /home/qwerty/github/datacon2025hack/step_04_hit_selection/docking/ligands/lig_468.pdb
REMARK  12 active torsions:
REMARK  status: ('A' for Active; 'I' for Inactive)
REMARK    1  A    between atoms: C1_1  and  C2_2
REMARK    2  A    between atoms: C2_2  and  C3_3
REMARK    3  A    between atoms: C3_3  and  C4_4
REMARK    4  A    between atoms: C3_3  and  C5_5
REMARK    5  A    between atoms: N4_12  and  C9_13
REMARK    6  A    between atoms: C9_13  and  C10_14
REMARK    7  A    between atoms: N5_20  and  C13_21
REMARK    8  A    between atoms: C13_21  and  C14_22
REMARK    9  A    between atoms: C14_22  and  C15_23
REMARK   10  A    between atoms: C14_22  and  N6_31
REMARK   11  A    between atoms: C18_26  and  O1_27
REMARK   12  A    between atoms: O1_27  and  C19_28
REMARK                            x       y       z     vdW  Elec       q    Type
REMARK                         _______ _______ _______ _____ _____    ______ ____
ROOT
ATOM      1  C5  UNL     1       0.063   2.766   0.397  0.00  0.00    +0.138 A 
ATOM      2  N1  UNL     1       0.852   2.948   1.475  0.00  0.00    -0.132 NA
ATOM      3  N2  UNL     1       1.656   1.902   1.558  0.00  0.00    -0.113 NA
ATOM      4  C6  UNL     1       1.362   1.099   0.519  0.00  0.00    +0.220 A 
ATOM      5  N3  UNL     1       2.037  -0.151   0.296  0.00  0.00    -0.297 N 
ATOM      6  C7  UNL     1       2.283  -1.027   1.445  0.00  0.00    +0.123 C 
ATOM      7  C8  UNL     1       3.087  -2.256   1.027  0.00  0.00    +0.103 C 
ATOM      8  N4  UNL     1       4.315  -1.824   0.335  0.00  0.00    -0.291 NA
ATOM      9  C11 UNL     1       4.054  -0.996  -0.877  0.00  0.00    +0.103 C 
ATOM     10  C12 UNL     1       2.602  -0.494  -1.012  0.00  0.00    +0.123 C 
ATOM     11  N5  UNL     1       0.360   1.606  -0.240  0.00  0.00    -0.297 N 
ENDROOT
BRANCH   1  12
ATOM     12  C3  UNL     1      -0.988   3.770  -0.032  0.00  0.00    +0.054 C 
ATOM     13  C4  UNL     1      -0.344   5.132  -0.320  0.00  0.00    +0.015 C 
BRANCH  12  15
ATOM     14  C1  UNL     1      -1.817   4.473   2.333  0.00  0.00    +0.004 C 
ATOM     15  C2  UNL     1      -2.163   3.863   0.971  0.00  0.00    +0.007 C 
ENDBRANCH  12  15
ENDBRANCH   1  12
BRANCH   8  16
ATOM     16  C9  UNL     1       5.191  -2.982   0.047  0.00  0.00    +0.198 C 
BRANCH  16  17
ATOM     17  C10 UNL     1       6.652  -2.548  -0.115  0.00  0.00    +0.402 C 
ATOM     18  F1  UNL     1       7.459  -3.669  -0.180  0.00  0.00    -0.169 F 
ATOM     19  F2  UNL     1       7.040  -1.780   0.969  0.00  0.00    -0.169 F 
ATOM     20  F3  UNL     1       6.821  -1.815  -1.276  0.00  0.00    -0.169 F 
ENDBRANCH  16  17
ENDBRANCH   8  16
BRANCH  11  21
ATOM     21  C13 UNL     1      -0.331   1.010  -1.395  0.00  0.00    +0.150 C 
BRANCH  21  22
ATOM     22  C14 UNL     1      -1.693   0.395  -0.988  0.00  0.00    +0.107 C 
BRANCH  22  23
ATOM     23  C15 UNL     1      -1.455  -0.727   0.010  0.00  0.00    -0.028 A 
ATOM     24  C16 UNL     1      -0.897  -1.949  -0.406  0.00  0.00    +0.009 A 
ATOM     25  C17 UNL     1      -0.702  -2.986   0.510  0.00  0.00    +0.046 A 
ATOM     26  C18 UNL     1      -1.047  -2.821   1.855  0.00  0.00    +0.120 A 
ATOM     27  C20 UNL     1      -1.594  -1.594   2.278  0.00  0.00    +0.046 A 
ATOM     28  C21 UNL     1      -1.791  -0.557   1.363  0.00  0.00    +0.009 A 
BRANCH  26  29
ATOM     29  O1  UNL     1      -0.822  -3.888   2.737  0.00  0.00    -0.495 OA
ATOM     30  C19 UNL     1      -1.098  -3.849   4.133  0.00  0.00    +0.277 C 
ENDBRANCH  26  29
ENDBRANCH  22  23
BRANCH  22  31
ATOM     31  N6  UNL     1      -2.429  -0.115  -2.176  0.00  0.00    -0.294 NA
ATOM     32  C22 UNL     1      -2.757   0.940  -3.147  0.00  0.00    +0.085 C 
ATOM     33  C23 UNL     1      -4.025   0.515  -3.873  0.00  0.00    +0.017 C 
ATOM     34  C24 UNL     1      -4.610  -0.614  -3.046  0.00  0.00    +0.017 C 
ATOM     35  C25 UNL     1      -3.728  -0.701  -1.815  0.00  0.00    +0.085 C 
ENDBRANCH  22  31
ENDBRANCH  21  22
ENDBRANCH  11  21
TORSDOF 9
