MODEL 1
REMARK VINA RESULT:    -5.659      0.000      0.000
REMARK INTER + INTRA:          -8.163
REMARK INTER:                  -7.313
REMARK INTRA:                  -0.851
REMARK UNBOUND:                -0.851
REMARK  Name = /home/qwerty/github/datacon2025hack/step_04_hit_selection/docking/ligands/lig_666.pdb
REMARK  10 active torsions:
REMARK  status: ('A' for Active; 'I' for Inactive)
REMARK    1  A    between atoms: C1_1  and  C2_2
REMARK    2  A    between atoms: C2_2  and  C3_3
REMARK    3  A    between atoms: C2_2  and  N1_4
REMARK    4  A    between atoms: C6_8  and  N3_9
REMARK    5  A    between atoms: C7_10  and  C8_12
REMARK    6  A    between atoms: C8_12  and  C9_13
REMARK    7  A    between atoms: C8_12  and  N4_14
REMARK    8  A    between atoms: C13_18  and  N5_19
REMARK    9  A    between atoms: N5_19  and  C14_20
REMARK   10  A    between atoms: N5_19  and  C15_21
REMARK                            x       y       z     vdW  Elec       q    Type
REMARK                         _______ _______ _______ _____ _____    ______ ____
ROOT
ATOM      1  N3  UNL     1      22.152   3.103  32.316  0.00  0.00    -0.269 N 
ATOM      2  C7  UNL     1      21.749   4.435  31.962  0.00  0.00    +0.235 C 
ATOM      3  O1  UNL     1      20.610   4.649  31.463  0.00  0.00    -0.274 OA
ATOM      4  H10 UNL     1      23.019   2.987  32.884  0.00  0.00    +0.156 HD
ENDROOT
BRANCH   1   9
ATOM      5  N1  UNL     1      21.556   1.255  30.790  0.00  0.00    -0.248 N 
ATOM      6  N2  UNL     1      20.642   0.298  30.727  0.00  0.00    -0.178 NA
ATOM      7  C4  UNL     1      19.917   0.339  31.863  0.00  0.00    +0.136 A 
ATOM      8  C5  UNL     1      20.370   1.365  32.671  0.00  0.00    +0.065 A 
ATOM      9  C6  UNL     1      21.411   1.925  31.955  0.00  0.00    +0.123 A 
BRANCH   5  11
ATOM     10  C1  UNL     1      22.946   0.279  28.995  0.00  0.00    +0.032 C 
ATOM     11  C2  UNL     1      22.496   1.561  29.704  0.00  0.00    +0.103 C 
ATOM     12  C3  UNL     1      21.849   2.532  28.716  0.00  0.00    +0.032 C 
ENDBRANCH   5  11
ENDBRANCH   1   9
BRANCH   2  13
ATOM     13  C8  UNL     1      22.680   5.600  32.207  0.00  0.00    +0.140 C 
ATOM     14  C9  UNL     1      22.471   6.603  31.056  0.00  0.00    +0.034 C 
BRANCH  13  15
ATOM     15  N4  UNL     1      22.417   6.185  33.555  0.00  0.00    -0.292 NA
ATOM     16  C10 UNL     1      23.668   6.685  34.179  0.00  0.00    +0.085 C 
ATOM     17  C11 UNL     1      23.730   6.211  35.633  0.00  0.00    +0.017 C 
ATOM     18  C12 UNL     1      22.814   7.013  36.566  0.00  0.00    +0.020 C 
ATOM     19  C13 UNL     1      21.330   7.030  36.126  0.00  0.00    +0.057 C 
ATOM     20  C16 UNL     1      21.131   7.944  34.881  0.00  0.00    +0.034 C 
ATOM     21  C17 UNL     1      21.364   7.233  33.528  0.00  0.00    +0.086 C 
BRANCH  19  22
ATOM     22  N5  UNL     1      20.478   7.418  37.284  0.00  0.00    -0.305 NA
ATOM     23  C14 UNL     1      19.426   6.426  37.562  0.00  0.00    +0.104 C 
ATOM     24  C15 UNL     1      19.907   8.776  37.202  0.00  0.00    +0.104 C 
ENDBRANCH  19  22
ENDBRANCH  13  15
ENDBRANCH   2  13
TORSDOF 5
ENDMDL
MODEL 2
REMARK VINA RESULT:    -5.421      6.784     11.717
REMARK INTER + INTRA:          -7.856
REMARK INTER:                  -7.088
REMARK INTRA:                  -0.768
REMARK UNBOUND:                -0.851
REMARK  Name = /home/qwerty/github/datacon2025hack/step_04_hit_selection/docking/ligands/lig_666.pdb
REMARK  10 active torsions:
REMARK  status: ('A' for Active; 'I' for Inactive)
REMARK    1  A    between atoms: C1_1  and  C2_2
REMARK    2  A    between atoms: C2_2  and  C3_3
REMARK    3  A    between atoms: C2_2  and  N1_4
REMARK    4  A    between atoms: C6_8  and  N3_9
REMARK    5  A    between atoms: C7_10  and  C8_12
REMARK    6  A    between atoms: C8_12  and  C9_13
REMARK    7  A    between atoms: C8_12  and  N4_14
REMARK    8  A    between atoms: C13_18  and  N5_19
REMARK    9  A    between atoms: N5_19  and  C14_20
REMARK   10  A    between atoms: N5_19  and  C15_21
REMARK                            x       y       z     vdW  Elec       q    Type
REMARK                         _______ _______ _______ _____ _____    ______ ____
ROOT
ATOM      1  N3  UNL     1      20.000   0.583  25.912  0.00  0.00    -0.269 N 
ATOM      2  C7  UNL     1      18.613   0.853  26.167  0.00  0.00    +0.235 C 
ATOM      3  O1  UNL     1      18.246   1.993  26.568  0.00  0.00    -0.274 OA
ATOM      4  H10 UNL     1      20.243  -0.304  25.417  0.00  0.00    +0.156 HD
ENDROOT
BRANCH   1   9
ATOM      5  N1  UNL     1      21.695   1.474  27.470  0.00  0.00    -0.248 N 
ATOM      6  N2  UNL     1      22.535   2.498  27.517  0.00  0.00    -0.178 NA
ATOM      7  C4  UNL     1      22.460   3.151  26.340  0.00  0.00    +0.136 A 
ATOM      8  C5  UNL     1      21.532   2.537  25.522  0.00  0.00    +0.065 A 
ATOM      9  C6  UNL     1      21.066   1.476  26.274  0.00  0.00    +0.123 A 
BRANCH   5  11
ATOM     10  C1  UNL     1      22.540  -0.515  28.668  0.00  0.00    +0.032 C 
ATOM     11  C2  UNL     1      21.453   0.562  28.596  0.00  0.00    +0.103 C 
ATOM     12  C3  UNL     1      21.384   1.357  29.901  0.00  0.00    +0.032 C 
ENDBRANCH   5  11
ENDBRANCH   1   9
BRANCH   2  13
ATOM     13  C8  UNL     1      17.574  -0.220  25.935  0.00  0.00    +0.140 C 
ATOM     14  C9  UNL     1      16.522  -0.087  27.054  0.00  0.00    +0.034 C 
BRANCH  13  15
ATOM     15  N4  UNL     1      17.000  -0.082  24.565  0.00  0.00    -0.292 NA
ATOM     16  C10 UNL     1      16.727  -1.410  23.958  0.00  0.00    +0.085 C 
ATOM     17  C11 UNL     1      17.253  -1.425  22.521  0.00  0.00    +0.017 C 
ATOM     18  C12 UNL     1      16.347  -0.670  21.542  0.00  0.00    +0.020 C 
ATOM     19  C13 UNL     1      16.078   0.801  21.943  0.00  0.00    +0.057 C 
ATOM     20  C16 UNL     1      15.103   0.877  23.154  0.00  0.00    +0.034 C 
ATOM     21  C17 UNL     1      15.797   0.789  24.533  0.00  0.00    +0.086 C 
BRANCH  19  22
ATOM     22  N5  UNL     1      15.598   1.555  20.752  0.00  0.00    -0.305 NA
ATOM     23  C14 UNL     1      15.279   0.670  19.619  0.00  0.00    +0.104 C 
ATOM     24  C15 UNL     1      16.482   2.656  20.322  0.00  0.00    +0.104 C 
ENDBRANCH  19  22
ENDBRANCH  13  15
ENDBRANCH   2  13
TORSDOF 5
ENDMDL
MODEL 3
REMARK VINA RESULT:    -5.385      6.106     10.982
REMARK INTER + INTRA:          -7.810
REMARK INTER:                  -6.883
REMARK INTRA:                  -0.927
REMARK UNBOUND:                -0.851
REMARK  Name = /home/qwerty/github/datacon2025hack/step_04_hit_selection/docking/ligands/lig_666.pdb
REMARK  10 active torsions:
REMARK  status: ('A' for Active; 'I' for Inactive)
REMARK    1  A    between atoms: C1_1  and  C2_2
REMARK    2  A    between atoms: C2_2  and  C3_3
REMARK    3  A    between atoms: C2_2  and  N1_4
REMARK    4  A    between atoms: C6_8  and  N3_9
REMARK    5  A    between atoms: C7_10  and  C8_12
REMARK    6  A    between atoms: C8_12  and  C9_13
REMARK    7  A    between atoms: C8_12  and  N4_14
REMARK    8  A    between atoms: C13_18  and  N5_19
REMARK    9  A    between atoms: N5_19  and  C14_20
REMARK   10  A    between atoms: N5_19  and  C15_21
REMARK                            x       y       z     vdW  Elec       q    Type
REMARK                         _______ _______ _______ _____ _____    ______ ____
ROOT
ATOM      1  N3  UNL     1      15.208  12.513  37.410  0.00  0.00    -0.269 N 
ATOM      2  C7  UNL     1      16.090  11.592  36.751  0.00  0.00    +0.235 C 
ATOM      3  O1  UNL     1      15.985  11.380  35.511  0.00  0.00    -0.274 OA
ATOM      4  H10 UNL     1      15.436  12.795  38.388  0.00  0.00    +0.156 HD
ENDROOT
BRANCH   1   9
ATOM      5  N1  UNL     1      12.849  12.472  36.682  0.00  0.00    -0.248 N 
ATOM      6  N2  UNL     1      12.040  13.224  35.950  0.00  0.00    -0.178 NA
ATOM      7  C4  UNL     1      12.714  14.337  35.598  0.00  0.00    +0.136 A 
ATOM      8  C5  UNL     1      13.997  14.289  36.105  0.00  0.00    +0.065 A 
ATOM      9  C6  UNL     1      14.047  13.088  36.787  0.00  0.00    +0.123 A 
BRANCH   5  11
ATOM     10  C1  UNL     1      11.054  11.144  37.743  0.00  0.00    +0.032 C 
ATOM     11  C2  UNL     1      12.488  11.145  37.199  0.00  0.00    +0.103 C 
ATOM     12  C3  UNL     1      12.654  10.097  36.099  0.00  0.00    +0.032 C 
ENDBRANCH   5  11
ENDBRANCH   1   9
BRANCH   2  13
ATOM     13  C8  UNL     1      17.171  10.883  37.534  0.00  0.00    +0.140 C 
ATOM     14  C9  UNL     1      16.567   9.567  38.060  0.00  0.00    +0.034 C 
BRANCH  13  15
ATOM     15  N4  UNL     1      18.372  10.678  36.670  0.00  0.00    -0.292 NA
ATOM     16  C10 UNL     1      19.145  11.936  36.515  0.00  0.00    +0.085 C 
ATOM     17  C11 UNL     1      19.504  12.128  35.039  0.00  0.00    +0.017 C 
ATOM     18  C12 UNL     1      20.660  11.231  34.581  0.00  0.00    +0.020 C 
ATOM     19  C13 UNL     1      20.420   9.722  34.828  0.00  0.00    +0.057 C 
ATOM     20  C16 UNL     1      20.543   9.380  36.342  0.00  0.00    +0.034 C 
ATOM     21  C17 UNL     1      19.232   9.563  37.141  0.00  0.00    +0.086 C 
BRANCH  19  22
ATOM     22  N5  UNL     1      21.343   8.930  33.969  0.00  0.00    -0.305 NA
ATOM     23  C14 UNL     1      22.343   8.189  34.755  0.00  0.00    +0.104 C 
ATOM     24  C15 UNL     1      21.990   9.697  32.888  0.00  0.00    +0.104 C 
ENDBRANCH  19  22
ENDBRANCH  13  15
ENDBRANCH   2  13
TORSDOF 5
ENDMDL
MODEL 4
REMARK VINA RESULT:    -5.283      2.026      7.871
REMARK INTER + INTRA:          -7.678
REMARK INTER:                  -6.784
REMARK INTRA:                  -0.895
REMARK UNBOUND:                -0.851
REMARK  Name = /home/qwerty/github/datacon2025hack/step_04_hit_selection/docking/ligands/lig_666.pdb
REMARK  10 active torsions:
REMARK  status: ('A' for Active; 'I' for Inactive)
REMARK    1  A    between atoms: C1_1  and  C2_2
REMARK    2  A    between atoms: C2_2  and  C3_3
REMARK    3  A    between atoms: C2_2  and  N1_4
REMARK    4  A    between atoms: C6_8  and  N3_9
REMARK    5  A    between atoms: C7_10  and  C8_12
REMARK    6  A    between atoms: C8_12  and  C9_13
REMARK    7  A    between atoms: C8_12  and  N4_14
REMARK    8  A    between atoms: C13_18  and  N5_19
REMARK    9  A    between atoms: N5_19  and  C14_20
REMARK   10  A    between atoms: N5_19  and  C15_21
REMARK                            x       y       z     vdW  Elec       q    Type
REMARK                         _______ _______ _______ _____ _____    ______ ____
ROOT
ATOM      1  N3  UNL     1      23.490   4.412  32.980  0.00  0.00    -0.269 N 
ATOM      2  C7  UNL     1      22.304   4.057  32.254  0.00  0.00    +0.235 C 
ATOM      3  O1  UNL     1      21.636   4.939  31.646  0.00  0.00    -0.274 OA
ATOM      4  H10 UNL     1      24.108   3.641  33.317  0.00  0.00    +0.156 HD
ENDROOT
BRANCH   1   9
ATOM      5  N1  UNL     1      23.538   6.468  34.345  0.00  0.00    -0.248 N 
ATOM      6  N2  UNL     1      23.964   7.717  34.215  0.00  0.00    -0.178 NA
ATOM      7  C4  UNL     1      24.605   7.816  33.033  0.00  0.00    +0.136 A 
ATOM      8  C5  UNL     1      24.574   6.599  32.380  0.00  0.00    +0.065 A 
ATOM      9  C6  UNL     1      23.887   5.768  33.244  0.00  0.00    +0.123 A 
BRANCH   5  11
ATOM     10  C1  UNL     1      23.195   6.655  36.786  0.00  0.00    +0.032 C 
ATOM     11  C2  UNL     1      22.739   5.991  35.482  0.00  0.00    +0.103 C 
ATOM     12  C3  UNL     1      21.256   6.260  35.222  0.00  0.00    +0.032 C 
ENDBRANCH   5  11
ENDBRANCH   1   9
BRANCH   2  13
ATOM     13  C8  UNL     1      21.855   2.615  32.190  0.00  0.00    +0.140 C 
ATOM     14  C9  UNL     1      20.735   2.438  33.233  0.00  0.00    +0.034 C 
BRANCH  13  15
ATOM     15  N4  UNL     1      21.428   2.277  30.801  0.00  0.00    -0.292 NA
ATOM     16  C10 UNL     1      22.332   1.272  30.187  0.00  0.00    +0.085 C 
ATOM     17  C11 UNL     1      22.694   1.718  28.769  0.00  0.00    +0.017 C 
ATOM     18  C12 UNL     1      21.566   1.481  27.758  0.00  0.00    +0.020 C 
ATOM     19  C13 UNL     1      20.224   2.148  28.148  0.00  0.00    +0.057 C 
ATOM     20  C16 UNL     1      19.546   1.388  29.325  0.00  0.00    +0.034 C 
ATOM     21  C17 UNL     1      20.007   1.850  30.727  0.00  0.00    +0.086 C 
BRANCH  19  22
ATOM     22  N5  UNL     1      19.359   2.255  26.940  0.00  0.00    -0.305 NA
ATOM     23  C14 UNL     1      18.538   1.051  26.731  0.00  0.00    +0.104 C 
ATOM     24  C15 UNL     1      20.072   2.623  25.702  0.00  0.00    +0.104 C 
ENDBRANCH  19  22
ENDBRANCH  13  15
ENDBRANCH   2  13
TORSDOF 5
ENDMDL
MODEL 5
REMARK VINA RESULT:    -5.281     10.939     13.580
REMARK INTER + INTRA:          -7.675
REMARK INTER:                  -6.977
REMARK INTRA:                  -0.698
REMARK UNBOUND:                -0.851
REMARK  Name = /home/qwerty/github/datacon2025hack/step_04_hit_selection/docking/ligands/lig_666.pdb
REMARK  10 active torsions:
REMARK  status: ('A' for Active; 'I' for Inactive)
REMARK    1  A    between atoms: C1_1  and  C2_2
REMARK    2  A    between atoms: C2_2  and  C3_3
REMARK    3  A    between atoms: C2_2  and  N1_4
REMARK    4  A    between atoms: C6_8  and  N3_9
REMARK    5  A    between atoms: C7_10  and  C8_12
REMARK    6  A    between atoms: C8_12  and  C9_13
REMARK    7  A    between atoms: C8_12  and  N4_14
REMARK    8  A    between atoms: C13_18  and  N5_19
REMARK    9  A    between atoms: N5_19  and  C14_20
REMARK   10  A    between atoms: N5_19  and  C15_21
REMARK                            x       y       z     vdW  Elec       q    Type
REMARK                         _______ _______ _______ _____ _____    ______ ____
ROOT
ATOM      1  N3  UNL     1      11.258  13.126  31.439  0.00  0.00    -0.269 N 
ATOM      2  C7  UNL     1      11.440  13.815  32.685  0.00  0.00    +0.235 C 
ATOM      3  O1  UNL     1      11.483  15.076  32.720  0.00  0.00    -0.274 OA
ATOM      4  H10 UNL     1      11.050  12.103  31.470  0.00  0.00    +0.156 HD
ENDROOT
BRANCH   1   9
ATOM      5  N1  UNL     1      10.315  13.766  29.249  0.00  0.00    -0.248 N 
ATOM      6  N2  UNL     1      10.740  14.342  28.134  0.00  0.00    -0.178 NA
ATOM      7  C4  UNL     1      12.014  14.736  28.330  0.00  0.00    +0.136 A 
ATOM      8  C5  UNL     1      12.423  14.387  29.603  0.00  0.00    +0.065 A 
ATOM      9  C6  UNL     1      11.316  13.771  30.156  0.00  0.00    +0.123 A 
BRANCH   5  11
ATOM     10  C1  UNL     1       7.995  13.751  28.397  0.00  0.00    +0.032 C 
ATOM     11  C2  UNL     1       8.989  13.152  29.398  0.00  0.00    +0.103 C 
ATOM     12  C3  UNL     1       9.096  11.636  29.219  0.00  0.00    +0.032 C 
ENDBRANCH   5  11
ENDBRANCH   1   9
BRANCH   2  13
ATOM     13  C8  UNL     1      11.560  13.035  33.975  0.00  0.00    +0.140 C 
ATOM     14  C9  UNL     1      11.304  11.553  33.637  0.00  0.00    +0.034 C 
BRANCH  13  15
ATOM     15  N4  UNL     1      12.896  13.278  34.593  0.00  0.00    -0.292 NA
ATOM     16  C10 UNL     1      12.785  14.145  35.793  0.00  0.00    +0.085 C 
ATOM     17  C11 UNL     1      13.862  15.230  35.732  0.00  0.00    +0.017 C 
ATOM     18  C12 UNL     1      15.258  14.713  36.100  0.00  0.00    +0.020 C 
ATOM     19  C13 UNL     1      15.730  13.515  35.241  0.00  0.00    +0.057 C 
ATOM     20  C16 UNL     1      14.968  12.215  35.634  0.00  0.00    +0.034 C 
ATOM     21  C17 UNL     1      13.625  12.019  34.895  0.00  0.00    +0.086 C 
BRANCH  19  22
ATOM     22  N5  UNL     1      17.209  13.385  35.346  0.00  0.00    -0.305 NA
ATOM     23  C14 UNL     1      17.912  14.101  34.269  0.00  0.00    +0.104 C 
ATOM     24  C15 UNL     1      17.701  11.999  35.460  0.00  0.00    +0.104 C 
ENDBRANCH  19  22
ENDBRANCH  13  15
ENDBRANCH   2  13
TORSDOF 5
ENDMDL
MODEL 6
REMARK VINA RESULT:    -5.183     13.414     14.524
REMARK INTER + INTRA:          -7.549
REMARK INTER:                  -6.522
REMARK INTRA:                  -1.028
REMARK UNBOUND:                -0.851
REMARK  Name = /home/qwerty/github/datacon2025hack/step_04_hit_selection/docking/ligands/lig_666.pdb
REMARK  10 active torsions:
REMARK  status: ('A' for Active; 'I' for Inactive)
REMARK    1  A    between atoms: C1_1  and  C2_2
REMARK    2  A    between atoms: C2_2  and  C3_3
REMARK    3  A    between atoms: C2_2  and  N1_4
REMARK    4  A    between atoms: C6_8  and  N3_9
REMARK    5  A    between atoms: C7_10  and  C8_12
REMARK    6  A    between atoms: C8_12  and  C9_13
REMARK    7  A    between atoms: C8_12  and  N4_14
REMARK    8  A    between atoms: C13_18  and  N5_19
REMARK    9  A    between atoms: N5_19  and  C14_20
REMARK   10  A    between atoms: N5_19  and  C15_21
REMARK                            x       y       z     vdW  Elec       q    Type
REMARK                         _______ _______ _______ _____ _____    ______ ____
ROOT
ATOM      1  N3  UNL     1       8.233  11.289  27.412  0.00  0.00    -0.269 N 
ATOM      2  C7  UNL     1       9.587  11.769  27.421  0.00  0.00    +0.235 C 
ATOM      3  O1  UNL     1      10.548  10.977  27.217  0.00  0.00    -0.274 OA
ATOM      4  H10 UNL     1       7.463  11.993  27.406  0.00  0.00    +0.156 HD
ENDROOT
BRANCH   1   9
ATOM      5  N1  UNL     1       7.739   9.119  28.480  0.00  0.00    -0.248 N 
ATOM      6  N2  UNL     1       7.536   7.866  28.098  0.00  0.00    -0.178 NA
ATOM      7  C4  UNL     1       7.531   7.839  26.750  0.00  0.00    +0.136 A 
ATOM      8  C5  UNL     1       7.754   9.109  26.255  0.00  0.00    +0.065 A 
ATOM      9  C6  UNL     1       7.883   9.895  27.384  0.00  0.00    +0.123 A 
BRANCH   5  11
ATOM     10  C1  UNL     1       7.055   8.617  30.802  0.00  0.00    +0.032 C 
ATOM     11  C2  UNL     1       7.870   9.535  29.883  0.00  0.00    +0.103 C 
ATOM     12  C3  UNL     1       9.345   9.540  30.287  0.00  0.00    +0.032 C 
ENDBRANCH   5  11
ENDBRANCH   1   9
BRANCH   2  13
ATOM     13  C8  UNL     1       9.871  13.236  27.649  0.00  0.00    +0.140 C 
ATOM     14  C9  UNL     1       8.512  13.948  27.793  0.00  0.00    +0.034 C 
BRANCH  13  15
ATOM     15  N4  UNL     1      10.753  13.402  28.842  0.00  0.00    -0.292 NA
ATOM     16  C10 UNL     1      11.635  14.588  28.699  0.00  0.00    +0.085 C 
ATOM     17  C11 UNL     1      13.064  14.204  29.092  0.00  0.00    +0.017 C 
ATOM     18  C12 UNL     1      13.263  14.102  30.609  0.00  0.00    +0.020 C 
ATOM     19  C13 UNL     1      12.289  13.120  31.304  0.00  0.00    +0.057 C 
ATOM     20  C16 UNL     1      10.852  13.715  31.371  0.00  0.00    +0.034 C 
ATOM     21  C17 UNL     1       9.992  13.438  30.117  0.00  0.00    +0.086 C 
BRANCH  19  22
ATOM     22  N5  UNL     1      12.836  12.749  32.639  0.00  0.00    -0.305 NA
ATOM     23  C14 UNL     1      11.843  12.058  33.478  0.00  0.00    +0.104 C 
ATOM     24  C15 UNL     1      13.462  13.860  33.380  0.00  0.00    +0.104 C 
ENDBRANCH  19  22
ENDBRANCH  13  15
ENDBRANCH   2  13
TORSDOF 5
ENDMDL
MODEL 7
REMARK VINA RESULT:    -5.144     15.333     17.634
REMARK INTER + INTRA:          -7.499
REMARK INTER:                  -6.654
REMARK INTRA:                  -0.845
REMARK UNBOUND:                -0.851
REMARK  Name = /home/qwerty/github/datacon2025hack/step_04_hit_selection/docking/ligands/lig_666.pdb
REMARK  10 active torsions:
REMARK  status: ('A' for Active; 'I' for Inactive)
REMARK    1  A    between atoms: C1_1  and  C2_2
REMARK    2  A    between atoms: C2_2  and  C3_3
REMARK    3  A    between atoms: C2_2  and  N1_4
REMARK    4  A    between atoms: C6_8  and  N3_9
REMARK    5  A    between atoms: C7_10  and  C8_12
REMARK    6  A    between atoms: C8_12  and  C9_13
REMARK    7  A    between atoms: C8_12  and  N4_14
REMARK    8  A    between atoms: C13_18  and  N5_19
REMARK    9  A    between atoms: N5_19  and  C14_20
REMARK   10  A    between atoms: N5_19  and  C15_21
REMARK                            x       y       z     vdW  Elec       q    Type
REMARK                         _______ _______ _______ _____ _____    ______ ____
ROOT
ATOM      1  N3  UNL     1       9.020   9.969  25.833  0.00  0.00    -0.269 N 
ATOM      2  C7  UNL     1       8.435  10.037  24.524  0.00  0.00    +0.235 C 
ATOM      3  O1  UNL     1       7.237  10.406  24.375  0.00  0.00    -0.274 OA
ATOM      4  H10 UNL     1      10.052   9.834  25.902  0.00  0.00    +0.156 HD
ENDROOT
BRANCH   1   9
ATOM      5  N1  UNL     1       8.251  11.213  27.822  0.00  0.00    -0.248 N 
ATOM      6  N2  UNL     1       7.561  10.961  28.925  0.00  0.00    -0.178 NA
ATOM      7  C4  UNL     1       7.114   9.691  28.854  0.00  0.00    +0.136 A 
ATOM      8  C5  UNL     1       7.546   9.107  27.679  0.00  0.00    +0.065 A 
ATOM      9  C6  UNL     1       8.267  10.104  27.050  0.00  0.00    +0.123 A 
BRANCH   5  11
ATOM     10  C1  UNL     1       8.009  13.673  27.782  0.00  0.00    +0.032 C 
ATOM     11  C2  UNL     1       8.948  12.481  27.565  0.00  0.00    +0.103 C 
ATOM     12  C3  UNL     1      10.180  12.587  28.465  0.00  0.00    +0.032 C 
ENDBRANCH   5  11
ENDBRANCH   1   9
BRANCH   2  13
ATOM     13  C8  UNL     1       9.258   9.689  23.305  0.00  0.00    +0.140 C 
ATOM     14  C9  UNL     1      10.740   9.863  23.690  0.00  0.00    +0.034 C 
BRANCH  13  15
ATOM     15  N4  UNL     1       8.926   8.309  22.845  0.00  0.00    -0.292 NA
ATOM     16  C10 UNL     1       8.436   8.311  21.442  0.00  0.00    +0.085 C 
ATOM     17  C11 UNL     1       7.182   7.439  21.345  0.00  0.00    +0.017 C 
ATOM     18  C12 UNL     1       7.493   5.938  21.350  0.00  0.00    +0.020 C 
ATOM     19  C13 UNL     1       8.312   5.470  22.577  0.00  0.00    +0.057 C 
ATOM     20  C16 UNL     1       9.793   5.940  22.468  0.00  0.00    +0.034 C 
ATOM     21  C17 UNL     1      10.051   7.357  23.028  0.00  0.00    +0.086 C 
BRANCH  19  22
ATOM     22  N5  UNL     1       8.172   3.996  22.730  0.00  0.00    -0.305 NA
ATOM     23  C14 UNL     1       7.698   3.615  24.071  0.00  0.00    +0.104 C 
ATOM     24  C15 UNL     1       9.371   3.220  22.360  0.00  0.00    +0.104 C 
ENDBRANCH  19  22
ENDBRANCH  13  15
ENDBRANCH   2  13
TORSDOF 5
ENDMDL
MODEL 8
REMARK VINA RESULT:    -5.142     14.653     15.574
REMARK INTER + INTRA:          -7.495
REMARK INTER:                  -6.531
REMARK INTRA:                  -0.965
REMARK UNBOUND:                -0.851
REMARK  Name = /home/qwerty/github/datacon2025hack/step_04_hit_selection/docking/ligands/lig_666.pdb
REMARK  10 active torsions:
REMARK  status: ('A' for Active; 'I' for Inactive)
REMARK    1  A    between atoms: C1_1  and  C2_2
REMARK    2  A    between atoms: C2_2  and  C3_3
REMARK    3  A    between atoms: C2_2  and  N1_4
REMARK    4  A    between atoms: C6_8  and  N3_9
REMARK    5  A    between atoms: C7_10  and  C8_12
REMARK    6  A    between atoms: C8_12  and  C9_13
REMARK    7  A    between atoms: C8_12  and  N4_14
REMARK    8  A    between atoms: C13_18  and  N5_19
REMARK    9  A    between atoms: N5_19  and  C14_20
REMARK   10  A    between atoms: N5_19  and  C15_21
REMARK                            x       y       z     vdW  Elec       q    Type
REMARK                         _______ _______ _______ _____ _____    ______ ____
ROOT
ATOM      1  N3  UNL     1       7.281   9.758  25.284  0.00  0.00    -0.269 N 
ATOM      2  C7  UNL     1       8.199  10.138  26.320  0.00  0.00    +0.235 C 
ATOM      3  O1  UNL     1       9.308  10.667  26.031  0.00  0.00    -0.274 OA
ATOM      4  H10 UNL     1       6.311   9.491  25.562  0.00  0.00    +0.156 HD
ENDROOT
BRANCH   1   9
ATOM      5  N1  UNL     1       8.233   8.734  23.249  0.00  0.00    -0.248 N 
ATOM      6  N2  UNL     1       8.501   9.102  22.005  0.00  0.00    -0.178 NA
ATOM      7  C4  UNL     1       8.037  10.356  21.834  0.00  0.00    +0.136 A 
ATOM      8  C5  UNL     1       7.471  10.811  23.009  0.00  0.00    +0.065 A 
ATOM      9  C6  UNL     1       7.615   9.753  23.886  0.00  0.00    +0.123 A 
BRANCH   5  11
ATOM     10  C1  UNL     1       8.501   6.318  22.801  0.00  0.00    +0.032 C 
ATOM     11  C2  UNL     1       8.643   7.447  23.828  0.00  0.00    +0.103 C 
ATOM     12  C3  UNL     1      10.082   7.543  24.338  0.00  0.00    +0.032 C 
ENDBRANCH   5  11
ENDBRANCH   1   9
BRANCH   2  13
ATOM     13  C8  UNL     1       7.835   9.928  27.772  0.00  0.00    +0.140 C 
ATOM     14  C9  UNL     1       8.063   8.438  28.090  0.00  0.00    +0.034 C 
BRANCH  13  15
ATOM     15  N4  UNL     1       8.638  10.845  28.634  0.00  0.00    -0.292 NA
ATOM     16  C10 UNL     1       7.782  11.887  29.256  0.00  0.00    +0.085 C 
ATOM     17  C11 UNL     1       8.459  13.251  29.106  0.00  0.00    +0.017 C 
ATOM     18  C12 UNL     1       9.617  13.458  30.090  0.00  0.00    +0.020 C 
ATOM     19  C13 UNL     1      10.709  12.364  30.014  0.00  0.00    +0.057 C 
ATOM     20  C16 UNL     1      10.205  11.030  30.638  0.00  0.00    +0.034 C 
ATOM     21  C17 UNL     1       9.440  10.119  29.651  0.00  0.00    +0.086 C 
BRANCH  19  22
ATOM     22  N5  UNL     1      11.960  12.873  30.642  0.00  0.00    -0.305 NA
ATOM     23  C14 UNL     1      12.053  12.522  32.069  0.00  0.00    +0.104 C 
ATOM     24  C15 UNL     1      12.209  14.313  30.441  0.00  0.00    +0.104 C 
ENDBRANCH  19  22
ENDBRANCH  13  15
ENDBRANCH   2  13
TORSDOF 5
ENDMDL
MODEL 9
REMARK VINA RESULT:    -5.083      8.159     12.719
REMARK INTER + INTRA:          -7.419
REMARK INTER:                  -6.627
REMARK INTRA:                  -0.792
REMARK UNBOUND:                -0.851
REMARK  Name = /home/qwerty/github/datacon2025hack/step_04_hit_selection/docking/ligands/lig_666.pdb
REMARK  10 active torsions:
REMARK  status: ('A' for Active; 'I' for Inactive)
REMARK    1  A    between atoms: C1_1  and  C2_2
REMARK    2  A    between atoms: C2_2  and  C3_3
REMARK    3  A    between atoms: C2_2  and  N1_4
REMARK    4  A    between atoms: C6_8  and  N3_9
REMARK    5  A    between atoms: C7_10  and  C8_12
REMARK    6  A    between atoms: C8_12  and  C9_13
REMARK    7  A    between atoms: C8_12  and  N4_14
REMARK    8  A    between atoms: C13_18  and  N5_19
REMARK    9  A    between atoms: N5_19  and  C14_20
REMARK   10  A    between atoms: N5_19  and  C15_21
REMARK                            x       y       z     vdW  Elec       q    Type
REMARK                         _______ _______ _______ _____ _____    ______ ____
ROOT
ATOM      1  N3  UNL     1      19.739   0.718  24.262  0.00  0.00    -0.269 N 
ATOM      2  C7  UNL     1      18.331   0.855  24.014  0.00  0.00    +0.235 C 
ATOM      3  O1  UNL     1      17.774   1.985  24.090  0.00  0.00    -0.274 OA
ATOM      4  H10 UNL     1      20.193  -0.189  24.018  0.00  0.00    +0.156 HD
ENDROOT
BRANCH   1   9
ATOM      5  N1  UNL     1      20.943   1.858  26.091  0.00  0.00    -0.248 N 
ATOM      6  N2  UNL     1      21.582   3.004  26.274  0.00  0.00    -0.178 NA
ATOM      7  C4  UNL     1      21.626   3.648  25.090  0.00  0.00    +0.136 A 
ATOM      8  C5  UNL     1      20.981   2.899  24.125  0.00  0.00    +0.065 A 
ATOM      9  C6  UNL     1      20.559   1.769  24.799  0.00  0.00    +0.123 A 
BRANCH   5  11
ATOM     10  C1  UNL     1      21.814   0.811  28.154  0.00  0.00    +0.032 C 
ATOM     11  C2  UNL     1      20.642   0.908  27.171  0.00  0.00    +0.103 C 
ATOM     12  C3  UNL     1      19.360   1.329  27.890  0.00  0.00    +0.032 C 
ENDBRANCH   5  11
ENDBRANCH   1   9
BRANCH   2  13
ATOM     13  C8  UNL     1      17.505  -0.354  23.636  0.00  0.00    +0.140 C 
ATOM     14  C9  UNL     1      16.990  -0.983  24.945  0.00  0.00    +0.034 C 
BRANCH  13  15
ATOM     15  N4  UNL     1      16.411   0.051  22.704  0.00  0.00    -0.292 NA
ATOM     16  C10 UNL     1      16.512  -0.669  21.409  0.00  0.00    +0.085 C 
ATOM     17  C11 UNL     1      16.335   0.330  20.263  0.00  0.00    +0.017 C 
ATOM     18  C12 UNL     1      14.874   0.741  20.046  0.00  0.00    +0.020 C 
ATOM     19  C13 UNL     1      14.192   1.326  21.307  0.00  0.00    +0.057 C 
ATOM     20  C16 UNL     1      13.891   0.206  22.346  0.00  0.00    +0.034 C 
ATOM     21  C17 UNL     1      15.062  -0.098  23.307  0.00  0.00    +0.086 C 
BRANCH  19  22
ATOM     22  N5  UNL     1      12.983   2.094  20.901  0.00  0.00    -0.305 NA
ATOM     23  C14 UNL     1      13.322   3.336  20.187  0.00  0.00    +0.104 C 
ATOM     24  C15 UNL     1      12.028   2.363  21.993  0.00  0.00    +0.104 C 
ENDBRANCH  19  22
ENDBRANCH  13  15
ENDBRANCH   2  13
TORSDOF 5
ENDMDL
