REMARK  Name = /home/qwerty/github/datacon2025hack/step_04_hit_selection/docking/ligands/lig_584.pdb
REMARK  8 active torsions:
REMARK  status: ('A' for Active; 'I' for Inactive)
REMARK    1  A    between atoms: C1_1  and  C2_2
REMARK    2  A    between atoms: C4_4  and  N1_5
REMARK    3  A    between atoms: N1_5  and  C5_6
REMARK    4  A    between atoms: N1_5  and  C6_7
REMARK    5  A    between atoms: C9_10  and  N2_11
REMARK    6  A    between atoms: C10_12  and  C11_14
REMARK    7  A    between atoms: C15_20  and  C16_21
REMARK    8  A    between atoms: N4_23  and  C17_24
REMARK                            x       y       z     vdW  Elec       q    Type
REMARK                         _______ _______ _______ _____ _____    ______ ____
ROOT
ATOM      1  C11 UNL     1       0.126  -1.100  -0.621  0.00  0.00    +0.302 C 
ATOM      2  O2  UNL     1       0.251  -1.448  -1.827  0.00  0.00    -0.265 OA
ATOM      3  N3  UNL     1       1.291  -1.070   0.229  0.00  0.00    -0.293 N 
ATOM      4  C12 UNL     1       1.185  -1.361   1.668  0.00  0.00    +0.108 C 
ATOM      5  C13 UNL     1       2.444  -2.076   2.167  0.00  0.00    +0.020 C 
ATOM      6  C14 UNL     1       3.731  -1.280   1.879  0.00  0.00    +0.016 C 
ATOM      7  C15 UNL     1       3.607  -0.321   0.670  0.00  0.00    +0.093 C 
ATOM      8  C22 UNL     1       2.612  -0.847  -0.379  0.00  0.00    +0.121 C 
ENDROOT
BRANCH   1  10
ATOM      9  N2  UNL     1      -2.386  -1.025  -0.892  0.00  0.00    -0.278 N 
ATOM     10  C10 UNL     1      -1.211  -0.705  -0.128  0.00  0.00    +0.303 C 
ATOM     11  O1  UNL     1      -1.319  -0.089   0.967  0.00  0.00    -0.265 OA
ATOM     12  H13 UNL     1      -2.299  -1.726  -1.661  0.00  0.00    +0.155 HD
BRANCH   9  19
ATOM     13  C1  UNL     1      -4.704  -2.797  -1.013  0.00  0.00    +0.046 C 
ATOM     14  C2  UNL     1      -4.831  -1.341  -0.650  0.00  0.00    -0.027 A 
ATOM     15  C3  UNL     1      -6.102  -0.803  -0.387  0.00  0.00    +0.028 A 
ATOM     16  C4  UNL     1      -6.263   0.553  -0.040  0.00  0.00    +0.030 A 
ATOM     17  C7  UNL     1      -5.117   1.368   0.024  0.00  0.00    +0.025 A 
ATOM     18  C8  UNL     1      -3.853   0.845  -0.249  0.00  0.00    +0.025 A 
ATOM     19  C9  UNL     1      -3.693  -0.509  -0.580  0.00  0.00    +0.037 A 
BRANCH  16  20
ATOM     20  N1  UNL     1      -7.578   1.099   0.243  0.00  0.00    -0.336 N 
ATOM     21  C5  UNL     1      -7.723   2.292   1.085  0.00  0.00    +0.129 C 
ATOM     22  C6  UNL     1      -8.783   0.464  -0.304  0.00  0.00    +0.129 C 
ENDBRANCH  16  20
ENDBRANCH   9  19
ENDBRANCH   1  10
BRANCH   7  23
ATOM     23  C16 UNL     1       4.953  -0.056   0.043  0.00  0.00    +0.223 C 
ATOM     24  O3  UNL     1       5.614  -1.015  -0.442  0.00  0.00    -0.275 OA
ATOM     25  N4  UNL     1       5.449   1.289  -0.054  0.00  0.00    -0.270 N 
ATOM     26  H21 UNL     1       4.762   2.073   0.026  0.00  0.00    +0.156 HD
BRANCH  25  27
ATOM     27  C17 UNL     1       6.808   1.629  -0.367  0.00  0.00    +0.125 A 
ATOM     28  C18 UNL     1       7.883   0.810   0.022  0.00  0.00    +0.045 A 
ATOM     29  C19 UNL     1       9.188   1.201  -0.281  0.00  0.00    +0.020 A 
ATOM     30  C20 UNL     1       9.417   2.402  -0.953  0.00  0.00    +0.036 A 
ATOM     31 BR1  UNL     1      11.198   2.952  -1.371  0.00  0.00    -0.049 Br
ATOM     32  C21 UNL     1       8.329   3.204  -1.306  0.00  0.00    +0.128 A 
ATOM     33  N5  UNL     1       7.065   2.806  -1.003  0.00  0.00    -0.239 NA
ENDBRANCH  25  27
ENDBRANCH   7  23
TORSDOF 5
