REMARK  Name = /home/qwerty/github/datacon2025hack/step_04_hit_selection/docking/ligands/lig_133.pdb
REMARK  5 active torsions:
REMARK  status: ('A' for Active; 'I' for Inactive)
REMARK    1  A    between atoms: C1_1  and  C2_2
REMARK    2  A    between atoms: C4_4  and  N1_5
REMARK    3  A    between atoms: N2_8  and  C6_9
REMARK    4  A    between atoms: C6_9  and  C7_10
REMARK    5  A    between atoms: C6_9  and  C8_11
REMARK                            x       y       z     vdW  Elec       q    Type
REMARK                         _______ _______ _______ _____ _____    ______ ____
ROOT
ATOM      1  N1  UNL     1       2.384   0.133  -1.299  0.00  0.00    -0.269 N 
ATOM      2  C5  UNL     1       1.195   0.746  -0.779  0.00  0.00    +0.304 C 
ATOM      3  O1  UNL     1       0.865   0.577   0.427  0.00  0.00    -0.252 OA
ATOM      4  N2  UNL     1       0.356   1.517  -1.650  0.00  0.00    -0.293 N 
ATOM      5  H5  UNL     1       2.476   0.059  -2.338  0.00  0.00    +0.156 HD
ATOM      6  H6  UNL     1       0.661   1.648  -2.642  0.00  0.00    +0.151 HD
ENDROOT
BRANCH   1  10
ATOM      7  C1  UNL     1       5.090  -0.041   2.900  0.00  0.00    +0.045 C 
ATOM      8  C2  UNL     1       4.735  -0.602   1.551  0.00  0.00    -0.035 A 
ATOM      9  C3  UNL     1       3.737   0.015   0.777  0.00  0.00    +0.027 A 
ATOM     10  C4  UNL     1       3.389  -0.497  -0.486  0.00  0.00    +0.035 A 
ATOM     11  C16 UNL     1       4.078  -1.609  -0.985  0.00  0.00    +0.024 A 
ATOM     12  C17 UNL     1       5.072  -2.227  -0.224  0.00  0.00    +0.017 A 
ATOM     13  C18 UNL     1       5.403  -1.734   1.042  0.00  0.00    +0.021 A 
ATOM     14 BR1  UNL     1       6.779  -2.628   2.035  0.00  0.00    -0.050 Br
ENDBRANCH   1  10
BRANCH   4  15
ATOM     15  C6  UNL     1      -0.898   2.123  -1.190  0.00  0.00    +0.102 C 
ATOM     16  C7  UNL     1      -1.428   3.121  -2.225  0.00  0.00    +0.033 C 
BRANCH  15  17
ATOM     17  C8  UNL     1      -1.934   1.053  -0.918  0.00  0.00    -0.025 A 
ATOM     18  C9  UNL     1      -2.192   0.046  -1.867  0.00  0.00    +0.009 A 
ATOM     19  C10 UNL     1      -3.160  -0.930  -1.618  0.00  0.00    +0.048 A 
ATOM     20  C11 UNL     1      -3.879  -0.915  -0.420  0.00  0.00    +0.142 A 
ATOM     21  C12 UNL     1      -3.644   0.094   0.526  0.00  0.00    +0.076 A 
ATOM     22  C13 UNL     1      -2.677   1.077   0.275  0.00  0.00    +0.032 A 
ATOM     23  N3  UNL     1      -4.435   0.132   1.719  0.00  0.00    -0.280 N 
ATOM     24  C14 UNL     1      -5.382  -0.907   1.981  0.00  0.00    +0.255 C 
ATOM     25  O2  UNL     1      -6.159  -0.818   2.968  0.00  0.00    -0.272 OA
ATOM     26  C15 UNL     1      -5.392  -2.143   1.126  0.00  0.00    +0.325 C 
ATOM     27  O3  UNL     1      -4.853  -1.890  -0.175  0.00  0.00    -0.481 OA
ATOM     28  H14 UNL     1      -4.345   0.930   2.387  0.00  0.00    +0.155 HD
ENDBRANCH  15  17
ENDBRANCH   4  15
TORSDOF 3
