REMARK  Name = /home/qwerty/github/datacon2025hack/step_04_hit_selection/docking/ligands/lig_765.pdb
REMARK  5 active torsions:
REMARK  status: ('A' for Active; 'I' for Inactive)
REMARK    1  A    between atoms: C1_2  and  C2_3
REMARK    2  A    between atoms: C11_13  and  N2_14
REMARK    3  A    between atoms: N2_14  and  C12_15
REMARK    4  A    between atoms: C16_21  and  C17_22
REMARK    5  A    between atoms: C19_25  and  C20_26
REMARK                            x       y       z     vdW  Elec       q    Type
REMARK                         _______ _______ _______ _____ _____    ______ ____
ROOT
ATOM      1  C12 UNL     1      -0.938  -0.315   1.519  0.00  0.00    +0.028 A 
ATOM      2  C13 UNL     1      -1.108  -0.508   2.918  0.00  0.00    +0.025 A 
ATOM      3  C14 UNL     1       0.007  -0.607   3.771  0.00  0.00    +0.029 A 
ATOM      4  C15 UNL     1       1.271  -0.527   3.198  0.00  0.00    +0.067 A 
ATOM      5  N3  UNL     1       2.462  -0.588   3.813  0.00  0.00    -0.276 N 
ATOM      6  N4  UNL     1       3.415  -0.472   2.896  0.00  0.00    -0.170 NA
ATOM      7  C16 UNL     1       2.828  -0.342   1.681  0.00  0.00    +0.135 A 
ATOM      8  C29 UNL     1       1.451  -0.363   1.853  0.00  0.00    +0.032 A 
ATOM      9  C30 UNL     1       0.367  -0.220   0.984  0.00  0.00    +0.035 A 
ATOM     10  H16 UNL     1       2.634  -0.709   4.836  0.00  0.00    +0.189 HD
ENDROOT
BRANCH   7  11
ATOM     11  C17 UNL     1       3.598  -0.231   0.430  0.00  0.00    +0.160 A 
ATOM     12  N5  UNL     1       4.895   0.177   0.413  0.00  0.00    -0.225 NA
ATOM     13  C18 UNL     1       5.230   0.078  -0.887  0.00  0.00    +0.100 A 
ATOM     14  C19 UNL     1       6.472   0.326  -1.487  0.00  0.00    +0.028 A 
ATOM     15  C26 UNL     1       6.559   0.069  -2.876  0.00  0.00    +0.121 A 
ATOM     16  N6  UNL     1       5.476  -0.404  -3.570  0.00  0.00    -0.260 NA
ATOM     17  C27 UNL     1       4.278  -0.650  -2.964  0.00  0.00    +0.138 A 
ATOM     18  C28 UNL     1       4.174  -0.393  -1.603  0.00  0.00    +0.085 A 
ATOM     19  N7  UNL     1       3.133  -0.601  -0.791  0.00  0.00    -0.335 N 
ATOM     20  H23 UNL     1       2.218  -1.031  -1.043  0.00  0.00    +0.167 HD
BRANCH  14  21
ATOM     21  C20 UNL     1       7.648   0.799  -0.715  0.00  0.00    -0.014 A 
ATOM     22  C21 UNL     1       7.514   1.814   0.249  0.00  0.00    +0.011 A 
ATOM     23  C22 UNL     1       8.626   2.252   0.975  0.00  0.00    +0.039 A 
ATOM     24  C23 UNL     1       9.882   1.683   0.745  0.00  0.00    +0.123 A 
ATOM     25  F1  UNL     1      10.959   2.106   1.453  0.00  0.00    -0.205 F 
ATOM     26  C24 UNL     1      10.027   0.676  -0.213  0.00  0.00    +0.039 A 
ATOM     27  C25 UNL     1       8.918   0.236  -0.942  0.00  0.00    +0.011 A 
ENDBRANCH  14  21
ENDBRANCH   7  11
BRANCH   1  28
ATOM     28  N2  UNL     1      -2.066  -0.208   0.629  0.00  0.00    -0.339 N 
ATOM     29  H13 UNL     1      -1.884   0.148  -0.339  0.00  0.00    +0.146 HD
BRANCH  28  36
ATOM     30  O1  UNL     1      -7.814   0.013   0.877  0.00  0.00    -0.270 OA
ATOM     31  C1  UNL     1      -6.910   0.037  -0.001  0.00  0.00    +0.247 C 
ATOM     32  N1  UNL     1      -5.749  -0.799   0.161  0.00  0.00    -0.296 N 
ATOM     33  C8  UNL     1      -5.910  -2.131   0.761  0.00  0.00    +0.108 C 
ATOM     34  C9  UNL     1      -4.628  -2.957   0.621  0.00  0.00    +0.021 C 
ATOM     35  C10 UNL     1      -3.408  -2.220   1.198  0.00  0.00    +0.025 C 
ATOM     36  C11 UNL     1      -3.418  -0.687   0.950  0.00  0.00    +0.088 C 
ATOM     37  C31 UNL     1      -4.406  -0.294  -0.163  0.00  0.00    +0.130 C 
BRANCH  31  38
ATOM     38  C2  UNL     1      -7.069   0.923  -1.177  0.00  0.00    +0.037 A 
ATOM     39  C3  UNL     1      -7.807   2.115  -1.068  0.00  0.00    +0.013 A 
ATOM     40  C4  UNL     1      -7.961   2.956  -2.175  0.00  0.00    +0.001 A 
ATOM     41  C5  UNL     1      -7.389   2.612  -3.402  0.00  0.00    +0.000 A 
ATOM     42  C6  UNL     1      -6.669   1.421  -3.525  0.00  0.00    +0.001 A 
ATOM     43  C7  UNL     1      -6.515   0.575  -2.422  0.00  0.00    +0.013 A 
ENDBRANCH  31  38
ENDBRANCH  28  36
ENDBRANCH   1  28
TORSDOF 5
