MODEL 1
REMARK VINA RESULT:    -6.677      0.000      0.000
REMARK INTER + INTRA:          -8.813
REMARK INTER:                  -8.238
REMARK INTRA:                  -0.575
REMARK UNBOUND:                -0.575
REMARK  Name = /home/qwerty/github/datacon2025hack/step_04_hit_selection/docking/ligands/lig_750.pdb
REMARK  4 active torsions:
REMARK  status: ('A' for Active; 'I' for Inactive)
REMARK    1  A    between atoms: N1_3  and  C2_4
REMARK    2  A    between atoms: C5_7  and  N2_8
REMARK    3  A    between atoms: N6_15  and  C9_16
REMARK    4  A    between atoms: C14_21  and  C15_22
REMARK                            x       y       z     vdW  Elec       q    Type
REMARK                         _______ _______ _______ _____ _____    ______ ____
ROOT
ATOM      1  O1  UNL     1      11.420   4.314  22.043  0.00  0.00    -0.252 OA
ATOM      2  C1  UNL     1      11.182   3.996  20.845  0.00  0.00    +0.308 C 
ATOM      3  N1  UNL     1      11.721   2.782  20.297  0.00  0.00    -0.268 N 
ATOM      4  N6  UNL     1      10.311   4.807  20.044  0.00  0.00    -0.269 N 
ATOM      5  H1  UNL     1      11.278   2.402  19.432  0.00  0.00    +0.156 HD
ATOM      6  H7  UNL     1       9.975   4.413  19.137  0.00  0.00    +0.156 HD
ENDROOT
BRANCH   3   7
ATOM      7  C2  UNL     1      12.759   2.006  20.921  0.00  0.00    +0.053 A 
ATOM      8  C3  UNL     1      12.435   1.119  21.954  0.00  0.00    +0.028 A 
ATOM      9  C4  UNL     1      13.429   0.344  22.554  0.00  0.00    +0.052 A 
ATOM     10  C5  UNL     1      14.751   0.448  22.102  0.00  0.00    +0.175 A 
ATOM     11  N5  UNL     1      15.043   1.297  21.079  0.00  0.00    -0.233 NA
ATOM     12  C8  UNL     1      14.092   2.065  20.482  0.00  0.00    +0.136 A 
BRANCH  10  13
ATOM     13  N2  UNL     1      15.798  -0.334  22.694  0.00  0.00    -0.132 N 
ATOM     14  N3  UNL     1      16.190  -1.519  22.248  0.00  0.00    -0.154 NA
ATOM     15  C6  UNL     1      17.180  -1.916  23.066  0.00  0.00    +0.156 A 
ATOM     16  C7  UNL     1      17.365  -0.934  24.012  0.00  0.00    +0.156 A 
ATOM     17  N4  UNL     1      16.485   0.051  23.760  0.00  0.00    -0.154 NA
ENDBRANCH  10  13
ENDBRANCH   3   7
BRANCH   4  18
ATOM     18  C9  UNL     1       9.842   6.105  20.452  0.00  0.00    +0.046 A 
ATOM     19  C10 UNL     1      10.666   7.231  20.273  0.00  0.00    +0.024 A 
ATOM     20  C11 UNL     1      10.214   8.505  20.615  0.00  0.00    +0.002 A 
ATOM     21  C12 UNL     1       8.929   8.676  21.126  0.00  0.00    +0.001 A 
ATOM     22  C13 UNL     1       8.092   7.573  21.301  0.00  0.00    +0.014 A 
ATOM     23  C14 UNL     1       8.535   6.274  20.980  0.00  0.00    +0.076 A 
BRANCH  23  24
ATOM     24  C15 UNL     1       7.611   5.091  21.176  0.00  0.00    +0.419 C 
ATOM     25  F1  UNL     1       6.370   5.523  21.609  0.00  0.00    -0.166 F 
ATOM     26  F2  UNL     1       7.430   4.385  19.999  0.00  0.00    -0.166 F 
ATOM     27  F3  UNL     1       8.151   4.237  22.120  0.00  0.00    -0.166 F 
ENDBRANCH  23  24
ENDBRANCH   4  18
TORSDOF 4
ENDMDL
MODEL 2
REMARK VINA RESULT:    -6.572     17.170     17.913
REMARK INTER + INTRA:          -8.684
REMARK INTER:                  -8.069
REMARK INTRA:                  -0.615
REMARK UNBOUND:                -0.575
REMARK  Name = /home/qwerty/github/datacon2025hack/step_04_hit_selection/docking/ligands/lig_750.pdb
REMARK  4 active torsions:
REMARK  status: ('A' for Active; 'I' for Inactive)
REMARK    1  A    between atoms: N1_3  and  C2_4
REMARK    2  A    between atoms: C5_7  and  N2_8
REMARK    3  A    between atoms: N6_15  and  C9_16
REMARK    4  A    between atoms: C14_21  and  C15_22
REMARK                            x       y       z     vdW  Elec       q    Type
REMARK                         _______ _______ _______ _____ _____    ______ ____
ROOT
ATOM      1  O1  UNL     1      16.226  11.118  35.694  0.00  0.00    -0.252 OA
ATOM      2  C1  UNL     1      16.362  11.637  36.836  0.00  0.00    +0.308 C 
ATOM      3  N1  UNL     1      17.618  11.549  37.526  0.00  0.00    -0.268 N 
ATOM      4  N6  UNL     1      15.284  12.383  37.420  0.00  0.00    -0.269 N 
ATOM      5  H1  UNL     1      17.790  12.222  38.306  0.00  0.00    +0.156 HD
ATOM      6  H7  UNL     1      15.494  12.965  38.262  0.00  0.00    +0.156 HD
ENDROOT
BRANCH   3   7
ATOM      7  C2  UNL     1      18.688  10.666  37.146  0.00  0.00    +0.053 A 
ATOM      8  C3  UNL     1      19.635  11.092  36.207  0.00  0.00    +0.028 A 
ATOM      9  C4  UNL     1      20.692  10.254  35.844  0.00  0.00    +0.052 A 
ATOM     10  C5  UNL     1      20.806   8.991  36.441  0.00  0.00    +0.175 A 
ATOM     11  N5  UNL     1      19.890   8.605  37.371  0.00  0.00    -0.233 NA
ATOM     12  C8  UNL     1      18.850   9.402  37.737  0.00  0.00    +0.136 A 
BRANCH  10  13
ATOM     13  N2  UNL     1      21.879   8.104  36.093  0.00  0.00    -0.132 N 
ATOM     14  N3  UNL     1      22.570   8.173  34.964  0.00  0.00    -0.154 NA
ATOM     15  C6  UNL     1      23.473   7.179  35.018  0.00  0.00    +0.156 A 
ATOM     16  C7  UNL     1      23.299   6.516  36.213  0.00  0.00    +0.156 A 
ATOM     17  N4  UNL     1      22.291   7.114  36.872  0.00  0.00    -0.154 NA
ENDBRANCH  10  13
ENDBRANCH   3   7
BRANCH   4  18
ATOM     18  C9  UNL     1      13.951  12.406  36.877  0.00  0.00    +0.046 A 
ATOM     19  C10 UNL     1      13.096  11.309  37.084  0.00  0.00    +0.024 A 
ATOM     20  C11 UNL     1      11.785  11.331  36.609  0.00  0.00    +0.002 A 
ATOM     21  C12 UNL     1      11.304  12.451  35.935  0.00  0.00    +0.001 A 
ATOM     22  C13 UNL     1      12.135  13.553  35.728  0.00  0.00    +0.014 A 
ATOM     23  C14 UNL     1      13.469  13.546  36.182  0.00  0.00    +0.076 A 
BRANCH  23  24
ATOM     24  C15 UNL     1      14.353  14.753  35.948  0.00  0.00    +0.419 C 
ATOM     25  F1  UNL     1      14.743  15.298  37.159  0.00  0.00    -0.166 F 
ATOM     26  F2  UNL     1      15.497  14.418  35.244  0.00  0.00    -0.166 F 
ATOM     27  F3  UNL     1      13.655  15.702  35.224  0.00  0.00    -0.166 F 
ENDBRANCH  23  24
ENDBRANCH   4  18
TORSDOF 4
ENDMDL
MODEL 3
REMARK VINA RESULT:    -6.380      3.754      9.132
REMARK INTER + INTRA:          -8.447
REMARK INTER:                  -8.034
REMARK INTRA:                  -0.413
REMARK UNBOUND:                -0.575
REMARK  Name = /home/qwerty/github/datacon2025hack/step_04_hit_selection/docking/ligands/lig_750.pdb
REMARK  4 active torsions:
REMARK  status: ('A' for Active; 'I' for Inactive)
REMARK    1  A    between atoms: N1_3  and  C2_4
REMARK    2  A    between atoms: C5_7  and  N2_8
REMARK    3  A    between atoms: N6_15  and  C9_16
REMARK    4  A    between atoms: C14_21  and  C15_22
REMARK                            x       y       z     vdW  Elec       q    Type
REMARK                         _______ _______ _______ _____ _____    ______ ____
ROOT
ATOM      1  O1  UNL     1      13.719   2.804  21.975  0.00  0.00    -0.252 OA
ATOM      2  C1  UNL     1      13.068   2.018  21.233  0.00  0.00    +0.308 C 
ATOM      3  N1  UNL     1      11.932   2.495  20.495  0.00  0.00    -0.268 N 
ATOM      4  N6  UNL     1      13.502   0.661  21.064  0.00  0.00    -0.269 N 
ATOM      5  H1  UNL     1      11.605   1.923  19.684  0.00  0.00    +0.156 HD
ATOM      6  H7  UNL     1      13.068   0.102  20.295  0.00  0.00    +0.156 HD
ENDROOT
BRANCH   3   7
ATOM      7  C2  UNL     1      11.283   3.756  20.736  0.00  0.00    +0.053 A 
ATOM      8  C3  UNL     1      11.697   4.893  20.033  0.00  0.00    +0.028 A 
ATOM      9  C4  UNL     1      11.063   6.119  20.241  0.00  0.00    +0.052 A 
ATOM     10  C5  UNL     1       9.996   6.198  21.148  0.00  0.00    +0.175 A 
ATOM     11  N5  UNL     1       9.591   5.076  21.803  0.00  0.00    -0.233 NA
ATOM     12  C8  UNL     1      10.197   3.872  21.619  0.00  0.00    +0.136 A 
BRANCH  10  13
ATOM     13  N2  UNL     1       9.320   7.441  21.386  0.00  0.00    -0.132 N 
ATOM     14  N3  UNL     1       9.693   8.605  20.873  0.00  0.00    -0.154 NA
ATOM     15  C6  UNL     1       8.814   9.513  21.331  0.00  0.00    +0.156 A 
ATOM     16  C7  UNL     1       7.908   8.855  22.133  0.00  0.00    +0.156 A 
ATOM     17  N4  UNL     1       8.246   7.554  22.153  0.00  0.00    -0.154 NA
ENDBRANCH  10  13
ENDBRANCH   3   7
BRANCH   4  18
ATOM     18  C9  UNL     1      14.533   0.055  21.864  0.00  0.00    +0.046 A 
ATOM     19  C10 UNL     1      14.241  -0.365  23.174  0.00  0.00    +0.024 A 
ATOM     20  C11 UNL     1      15.211  -0.999  23.951  0.00  0.00    +0.002 A 
ATOM     21  C12 UNL     1      16.480  -1.237  23.426  0.00  0.00    +0.001 A 
ATOM     22  C13 UNL     1      16.786  -0.837  22.124  0.00  0.00    +0.014 A 
ATOM     23  C14 UNL     1      15.828  -0.177  21.329  0.00  0.00    +0.076 A 
BRANCH  23  24
ATOM     24  C15 UNL     1      16.179   0.247  19.919  0.00  0.00    +0.419 C 
ATOM     25  F1  UNL     1      15.100   0.043  19.077  0.00  0.00    -0.166 F 
ATOM     26  F2  UNL     1      16.517   1.589  19.859  0.00  0.00    -0.166 F 
ATOM     27  F3  UNL     1      17.255  -0.496  19.469  0.00  0.00    -0.166 F 
ENDBRANCH  23  24
ENDBRANCH   4  18
TORSDOF 4
ENDMDL
MODEL 4
REMARK VINA RESULT:    -6.355      2.666      3.636
REMARK INTER + INTRA:          -8.416
REMARK INTER:                  -7.947
REMARK INTRA:                  -0.469
REMARK UNBOUND:                -0.575
REMARK  Name = /home/qwerty/github/datacon2025hack/step_04_hit_selection/docking/ligands/lig_750.pdb
REMARK  4 active torsions:
REMARK  status: ('A' for Active; 'I' for Inactive)
REMARK    1  A    between atoms: N1_3  and  C2_4
REMARK    2  A    between atoms: C5_7  and  N2_8
REMARK    3  A    between atoms: N6_15  and  C9_16
REMARK    4  A    between atoms: C14_21  and  C15_22
REMARK                            x       y       z     vdW  Elec       q    Type
REMARK                         _______ _______ _______ _____ _____    ______ ____
ROOT
ATOM      1  O1  UNL     1      10.574   5.816  21.895  0.00  0.00    -0.252 OA
ATOM      2  C1  UNL     1      10.372   5.926  20.655  0.00  0.00    +0.308 C 
ATOM      3  N1  UNL     1      10.857   4.921  19.751  0.00  0.00    -0.268 N 
ATOM      4  N6  UNL     1       9.592   7.018  20.146  0.00  0.00    -0.269 N 
ATOM      5  H1  UNL     1      10.430   4.879  18.799  0.00  0.00    +0.156 HD
ATOM      6  H7  UNL     1       9.274   6.968  19.152  0.00  0.00    +0.156 HD
ENDROOT
BRANCH   3   7
ATOM      7  C2  UNL     1      11.813   3.908  20.108  0.00  0.00    +0.053 A 
ATOM      8  C3  UNL     1      13.135   4.016  19.660  0.00  0.00    +0.028 A 
ATOM      9  C4  UNL     1      14.080   3.051  20.016  0.00  0.00    +0.052 A 
ATOM     10  C5  UNL     1      13.698   1.982  20.838  0.00  0.00    +0.175 A 
ATOM     11  N5  UNL     1      12.414   1.907  21.283  0.00  0.00    -0.233 NA
ATOM     12  C8  UNL     1      11.475   2.833  20.947  0.00  0.00    +0.136 A 
BRANCH  10  13
ATOM     13  N2  UNL     1      14.641   0.973  21.224  0.00  0.00    -0.132 N 
ATOM     14  N3  UNL     1      15.739   0.677  20.543  0.00  0.00    -0.154 NA
ATOM     15  C6  UNL     1      16.345  -0.311  21.225  0.00  0.00    +0.156 A 
ATOM     16  C7  UNL     1      15.576  -0.593  22.331  0.00  0.00    +0.156 A 
ATOM     17  N4  UNL     1      14.509   0.225  22.310  0.00  0.00    -0.154 NA
ENDBRANCH  10  13
ENDBRANCH   3   7
BRANCH   4  18
ATOM     18  C9  UNL     1       9.189   8.143  20.947  0.00  0.00    +0.046 A 
ATOM     19  C10 UNL     1       7.989   8.085  21.677  0.00  0.00    +0.024 A 
ATOM     20  C11 UNL     1       7.603   9.144  22.499  0.00  0.00    +0.002 A 
ATOM     21  C12 UNL     1       8.417  10.269  22.615  0.00  0.00    +0.001 A 
ATOM     22  C13 UNL     1       9.617  10.342  21.907  0.00  0.00    +0.014 A 
ATOM     23  C14 UNL     1      10.016   9.292  21.056  0.00  0.00    +0.076 A 
BRANCH  23  24
ATOM     24  C15 UNL     1      11.323   9.390  20.297  0.00  0.00    +0.419 C 
ATOM     25  F1  UNL     1      11.913  10.622  20.522  0.00  0.00    -0.166 F 
ATOM     26  F2  UNL     1      12.218   8.411  20.694  0.00  0.00    -0.166 F 
ATOM     27  F3  UNL     1      11.082   9.240  18.944  0.00  0.00    -0.166 F 
ENDBRANCH  23  24
ENDBRANCH   4  18
TORSDOF 4
ENDMDL
MODEL 5
REMARK VINA RESULT:    -6.281     10.786     13.140
REMARK INTER + INTRA:          -8.325
REMARK INTER:                  -7.783
REMARK INTRA:                  -0.542
REMARK UNBOUND:                -0.575
REMARK  Name = /home/qwerty/github/datacon2025hack/step_04_hit_selection/docking/ligands/lig_750.pdb
REMARK  4 active torsions:
REMARK  status: ('A' for Active; 'I' for Inactive)
REMARK    1  A    between atoms: N1_3  and  C2_4
REMARK    2  A    between atoms: C5_7  and  N2_8
REMARK    3  A    between atoms: N6_15  and  C9_16
REMARK    4  A    between atoms: C14_21  and  C15_22
REMARK                            x       y       z     vdW  Elec       q    Type
REMARK                         _______ _______ _______ _____ _____    ______ ____
ROOT
ATOM      1  O1  UNL     1      10.990  11.774  27.283  0.00  0.00    -0.252 OA
ATOM      2  C1  UNL     1      10.130  12.658  27.546  0.00  0.00    +0.308 C 
ATOM      3  N1  UNL     1      10.543  13.984  27.914  0.00  0.00    -0.268 N 
ATOM      4  N6  UNL     1       8.732  12.367  27.409  0.00  0.00    -0.269 N 
ATOM      5  H1  UNL     1       9.839  14.751  27.834  0.00  0.00    +0.156 HD
ATOM      6  H7  UNL     1       8.062  13.168  27.435  0.00  0.00    +0.156 HD
ENDROOT
BRANCH   3   7
ATOM      7  C2  UNL     1      11.888  14.337  28.284  0.00  0.00    +0.053 A 
ATOM      8  C3  UNL     1      12.824  14.634  27.287  0.00  0.00    +0.028 A 
ATOM      9  C4  UNL     1      14.127  14.999  27.631  0.00  0.00    +0.052 A 
ATOM     10  C5  UNL     1      14.485  15.082  28.984  0.00  0.00    +0.175 A 
ATOM     11  N5  UNL     1      13.554  14.813  29.940  0.00  0.00    -0.233 NA
ATOM     12  C8  UNL     1      12.280  14.452  29.628  0.00  0.00    +0.136 A 
BRANCH  10  13
ATOM     13  N2  UNL     1      15.814  15.454  29.375  0.00  0.00    -0.132 N 
ATOM     14  N3  UNL     1      16.327  16.666  29.218  0.00  0.00    -0.154 NA
ATOM     15  C6  UNL     1      17.580  16.606  29.704  0.00  0.00    +0.156 A 
ATOM     16  C7  UNL     1      17.796  15.323  30.154  0.00  0.00    +0.156 A 
ATOM     17  N4  UNL     1      16.673  14.616  29.937  0.00  0.00    -0.154 NA
ENDBRANCH  10  13
ENDBRANCH   3   7
BRANCH   4  18
ATOM     18  C9  UNL     1       8.218  11.040  27.189  0.00  0.00    +0.046 A 
ATOM     19  C10 UNL     1       8.180  10.516  25.885  0.00  0.00    +0.024 A 
ATOM     20  C11 UNL     1       7.732   9.215  25.655  0.00  0.00    +0.002 A 
ATOM     21  C12 UNL     1       7.331   8.415  26.723  0.00  0.00    +0.001 A 
ATOM     22  C13 UNL     1       7.371   8.914  28.026  0.00  0.00    +0.014 A 
ATOM     23  C14 UNL     1       7.801  10.232  28.279  0.00  0.00    +0.076 A 
BRANCH  23  24
ATOM     24  C15 UNL     1       7.839  10.754  29.700  0.00  0.00    +0.419 C 
ATOM     25  F1  UNL     1       9.148  10.842  30.141  0.00  0.00    -0.166 F 
ATOM     26  F2  UNL     1       7.273  12.014  29.795  0.00  0.00    -0.166 F 
ATOM     27  F3  UNL     1       7.137   9.895  30.525  0.00  0.00    -0.166 F 
ENDBRANCH  23  24
ENDBRANCH   4  18
TORSDOF 4
ENDMDL
MODEL 6
REMARK VINA RESULT:    -6.256      1.370      1.747
REMARK INTER + INTRA:          -8.294
REMARK INTER:                  -7.883
REMARK INTRA:                  -0.411
REMARK UNBOUND:                -0.575
REMARK  Name = /home/qwerty/github/datacon2025hack/step_04_hit_selection/docking/ligands/lig_750.pdb
REMARK  4 active torsions:
REMARK  status: ('A' for Active; 'I' for Inactive)
REMARK    1  A    between atoms: N1_3  and  C2_4
REMARK    2  A    between atoms: C5_7  and  N2_8
REMARK    3  A    between atoms: N6_15  and  C9_16
REMARK    4  A    between atoms: C14_21  and  C15_22
REMARK                            x       y       z     vdW  Elec       q    Type
REMARK                         _______ _______ _______ _____ _____    ______ ____
ROOT
ATOM      1  O1  UNL     1      11.328   5.524  21.787  0.00  0.00    -0.252 OA
ATOM      2  C1  UNL     1      10.988   5.307  20.592  0.00  0.00    +0.308 C 
ATOM      3  N1  UNL     1      11.316   4.059  19.961  0.00  0.00    -0.268 N 
ATOM      4  N6  UNL     1      10.208   6.276  19.877  0.00  0.00    -0.269 N 
ATOM      5  H1  UNL     1      10.780   3.793  19.105  0.00  0.00    +0.156 HD
ATOM      6  H7  UNL     1       9.775   5.983  18.973  0.00  0.00    +0.156 HD
ENDROOT
BRANCH   3   7
ATOM      7  C2  UNL     1      12.257   3.109  20.491  0.00  0.00    +0.053 A 
ATOM      8  C3  UNL     1      11.831   2.163  21.432  0.00  0.00    +0.028 A 
ATOM      9  C4  UNL     1      12.729   1.221  21.939  0.00  0.00    +0.052 A 
ATOM     10  C5  UNL     1      14.056   1.220  21.486  0.00  0.00    +0.175 A 
ATOM     11  N5  UNL     1      14.445   2.131  20.553  0.00  0.00    -0.233 NA
ATOM     12  C8  UNL     1      13.589   3.061  20.047  0.00  0.00    +0.136 A 
BRANCH  10  13
ATOM     13  N2  UNL     1      15.005   0.267  21.984  0.00  0.00    -0.132 N 
ATOM     14  N3  UNL     1      14.714  -0.697  22.847  0.00  0.00    -0.154 NA
ATOM     15  C6  UNL     1      15.862  -1.364  23.060  0.00  0.00    +0.156 A 
ATOM     16  C7  UNL     1      16.843  -0.770  22.299  0.00  0.00    +0.156 A 
ATOM     17  N4  UNL     1      16.282   0.254  21.632  0.00  0.00    -0.154 NA
ENDBRANCH  10  13
ENDBRANCH   3   7
BRANCH   4  18
ATOM     18  C9  UNL     1       9.956   7.606  20.368  0.00  0.00    +0.046 A 
ATOM     19  C10 UNL     1      10.908   8.619  20.155  0.00  0.00    +0.024 A 
ATOM     20  C11 UNL     1      10.662   9.925  20.578  0.00  0.00    +0.002 A 
ATOM     21  C12 UNL     1       9.459  10.242  21.206  0.00  0.00    +0.001 A 
ATOM     22  C13 UNL     1       8.498   9.252  21.417  0.00  0.00    +0.014 A 
ATOM     23  C14 UNL     1       8.732   7.922  21.015  0.00  0.00    +0.076 A 
BRANCH  23  24
ATOM     24  C15 UNL     1       7.676   6.864  21.252  0.00  0.00    +0.419 C 
ATOM     25  F1  UNL     1       7.643   5.977  20.191  0.00  0.00    -0.166 F 
ATOM     26  F2  UNL     1       7.930   6.139  22.405  0.00  0.00    -0.166 F 
ATOM     27  F3  UNL     1       6.439   7.469  21.379  0.00  0.00    -0.166 F 
ENDBRANCH  23  24
ENDBRANCH   4  18
TORSDOF 4
ENDMDL
MODEL 7
REMARK VINA RESULT:    -6.226     16.645     17.455
REMARK INTER + INTRA:          -8.257
REMARK INTER:                  -7.874
REMARK INTRA:                  -0.383
REMARK UNBOUND:                -0.575
REMARK  Name = /home/qwerty/github/datacon2025hack/step_04_hit_selection/docking/ligands/lig_750.pdb
REMARK  4 active torsions:
REMARK  status: ('A' for Active; 'I' for Inactive)
REMARK    1  A    between atoms: N1_3  and  C2_4
REMARK    2  A    between atoms: C5_7  and  N2_8
REMARK    3  A    between atoms: N6_15  and  C9_16
REMARK    4  A    between atoms: C14_21  and  C15_22
REMARK                            x       y       z     vdW  Elec       q    Type
REMARK                         _______ _______ _______ _____ _____    ______ ____
ROOT
ATOM      1  O1  UNL     1      15.633  11.896  35.593  0.00  0.00    -0.252 OA
ATOM      2  C1  UNL     1      15.324  12.000  36.812  0.00  0.00    +0.308 C 
ATOM      3  N1  UNL     1      16.250  11.588  37.830  0.00  0.00    -0.268 N 
ATOM      4  N6  UNL     1      14.076  12.598  37.191  0.00  0.00    -0.269 N 
ATOM      5  H1  UNL     1      16.099  11.951  38.798  0.00  0.00    +0.156 HD
ATOM      6  H7  UNL     1      13.942  12.852  38.195  0.00  0.00    +0.156 HD
ENDROOT
BRANCH   3   7
ATOM      7  C2  UNL     1      17.424  10.795  37.582  0.00  0.00    +0.053 A 
ATOM      8  C3  UNL     1      17.485   9.480  38.060  0.00  0.00    +0.028 A 
ATOM      9  C4  UNL     1      18.609   8.692  37.809  0.00  0.00    +0.052 A 
ATOM     10  C5  UNL     1      19.669   9.221  37.059  0.00  0.00    +0.175 A 
ATOM     11  N5  UNL     1      19.580  10.492  36.581  0.00  0.00    -0.233 NA
ATOM     12  C8  UNL     1      18.497  11.280  36.816  0.00  0.00    +0.136 A 
BRANCH  10  13
ATOM     13  N2  UNL     1      20.839   8.439  36.780  0.00  0.00    -0.132 N 
ATOM     14  N3  UNL     1      21.231   7.397  37.500  0.00  0.00    -0.154 NA
ATOM     15  C6  UNL     1      22.357   6.947  36.921  0.00  0.00    +0.156 A 
ATOM     16  C7  UNL     1      22.624   7.751  35.835  0.00  0.00    +0.156 A 
ATOM     17  N4  UNL     1      21.657   8.683  35.767  0.00  0.00    -0.154 NA
ENDBRANCH  10  13
ENDBRANCH   3   7
BRANCH   4  18
ATOM     18  C9  UNL     1      13.029  12.906  36.253  0.00  0.00    +0.046 A 
ATOM     19  C10 UNL     1      13.095  14.093  35.501  0.00  0.00    +0.024 A 
ATOM     20  C11 UNL     1      12.117  14.388  34.551  0.00  0.00    +0.002 A 
ATOM     21  C12 UNL     1      11.070  13.496  34.327  0.00  0.00    +0.001 A 
ATOM     22  C13 UNL     1      10.993  12.308  35.055  0.00  0.00    +0.014 A 
ATOM     23  C14 UNL     1      11.959  11.999  36.034  0.00  0.00    +0.076 A 
BRANCH  23  24
ATOM     24  C15 UNL     1      11.858  10.704  36.812  0.00  0.00    +0.419 C 
ATOM     25  F1  UNL     1      10.763   9.975  36.384  0.00  0.00    -0.166 F 
ATOM     26  F2  UNL     1      12.985   9.918  36.641  0.00  0.00    -0.166 F 
ATOM     27  F3  UNL     1      11.720  10.986  38.159  0.00  0.00    -0.166 F 
ENDBRANCH  23  24
ENDBRANCH   4  18
TORSDOF 4
ENDMDL
MODEL 8
REMARK VINA RESULT:    -6.025      9.962     12.186
REMARK INTER + INTRA:          -8.009
REMARK INTER:                  -7.446
REMARK INTRA:                  -0.563
REMARK UNBOUND:                -0.575
REMARK  Name = /home/qwerty/github/datacon2025hack/step_04_hit_selection/docking/ligands/lig_750.pdb
REMARK  4 active torsions:
REMARK  status: ('A' for Active; 'I' for Inactive)
REMARK    1  A    between atoms: N1_3  and  C2_4
REMARK    2  A    between atoms: C5_7  and  N2_8
REMARK    3  A    between atoms: N6_15  and  C9_16
REMARK    4  A    between atoms: C14_21  and  C15_22
REMARK                            x       y       z     vdW  Elec       q    Type
REMARK                         _______ _______ _______ _____ _____    ______ ____
ROOT
ATOM      1  O1  UNL     1      10.159  10.937  30.278  0.00  0.00    -0.252 OA
ATOM      2  C1  UNL     1       9.210  11.690  29.926  0.00  0.00    +0.308 C 
ATOM      3  N1  UNL     1       7.935  11.131  29.575  0.00  0.00    -0.268 N 
ATOM      4  N6  UNL     1       9.375  13.115  29.945  0.00  0.00    -0.269 N 
ATOM      5  H1  UNL     1       7.107  11.769  29.580  0.00  0.00    +0.156 HD
ATOM      6  H7  UNL     1       8.520  13.707  29.847  0.00  0.00    +0.156 HD
ENDROOT
BRANCH   3   7
ATOM      7  C2  UNL     1       7.708   9.734  29.319  0.00  0.00    +0.053 A 
ATOM      8  C3  UNL     1       7.297   8.897  30.363  0.00  0.00    +0.028 A 
ATOM      9  C4  UNL     1       7.053   7.543  30.124  0.00  0.00    +0.052 A 
ATOM     10  C5  UNL     1       7.207   7.032  28.828  0.00  0.00    +0.175 A 
ATOM     11  N5  UNL     1       7.584   7.867  27.821  0.00  0.00    -0.233 NA
ATOM     12  C8  UNL     1       7.831   9.188  28.030  0.00  0.00    +0.136 A 
BRANCH  10  13
ATOM     13  N2  UNL     1       6.964   5.646  28.546  0.00  0.00    -0.132 N 
ATOM     14  N3  UNL     1       7.696   4.912  27.720  0.00  0.00    -0.154 NA
ATOM     15  C6  UNL     1       7.149   3.684  27.729  0.00  0.00    +0.156 A 
ATOM     16  C7  UNL     1       6.071   3.709  28.585  0.00  0.00    +0.156 A 
ATOM     17  N4  UNL     1       5.973   4.953  29.086  0.00  0.00    -0.154 NA
ENDBRANCH  10  13
ENDBRANCH   3   7
BRANCH   4  18
ATOM     18  C9  UNL     1      10.647  13.761  30.141  0.00  0.00    +0.046 A 
ATOM     19  C10 UNL     1      11.122  13.984  31.445  0.00  0.00    +0.024 A 
ATOM     20  C11 UNL     1      12.373  14.564  31.658  0.00  0.00    +0.002 A 
ATOM     21  C12 UNL     1      13.173  14.915  30.572  0.00  0.00    +0.001 A 
ATOM     22  C13 UNL     1      12.723  14.693  29.270  0.00  0.00    +0.014 A 
ATOM     23  C14 UNL     1      11.455  14.127  29.032  0.00  0.00    +0.076 A 
BRANCH  23  24
ATOM     24  C15 UNL     1      10.987  13.893  27.611  0.00  0.00    +0.419 C 
ATOM     25  F1  UNL     1      11.802  14.572  26.723  0.00  0.00    -0.166 F 
ATOM     26  F2  UNL     1      11.022  12.549  27.277  0.00  0.00    -0.166 F 
ATOM     27  F3  UNL     1       9.687  14.344  27.474  0.00  0.00    -0.166 F 
ENDBRANCH  23  24
ENDBRANCH   4  18
TORSDOF 4
ENDMDL
MODEL 9
REMARK VINA RESULT:    -6.017     10.888     13.759
REMARK INTER + INTRA:          -7.999
REMARK INTER:                  -7.414
REMARK INTRA:                  -0.586
REMARK UNBOUND:                -0.575
REMARK  Name = /home/qwerty/github/datacon2025hack/step_04_hit_selection/docking/ligands/lig_750.pdb
REMARK  4 active torsions:
REMARK  status: ('A' for Active; 'I' for Inactive)
REMARK    1  A    between atoms: N1_3  and  C2_4
REMARK    2  A    between atoms: C5_7  and  N2_8
REMARK    3  A    between atoms: N6_15  and  C9_16
REMARK    4  A    between atoms: C14_21  and  C15_22
REMARK                            x       y       z     vdW  Elec       q    Type
REMARK                         _______ _______ _______ _____ _____    ______ ____
ROOT
ATOM      1  O1  UNL     1      19.210   1.557  28.798  0.00  0.00    -0.252 OA
ATOM      2  C1  UNL     1      20.304   0.949  28.963  0.00  0.00    +0.308 C 
ATOM      3  N1  UNL     1      20.689   0.494  30.270  0.00  0.00    -0.268 N 
ATOM      4  N6  UNL     1      21.136   0.644  27.835  0.00  0.00    -0.269 N 
ATOM      5  H1  UNL     1      21.425  -0.244  30.328  0.00  0.00    +0.156 HD
ATOM      6  H7  UNL     1      21.922  -0.029  27.976  0.00  0.00    +0.156 HD
ENDROOT
BRANCH   3   7
ATOM      7  C2  UNL     1      20.054   0.913  31.491  0.00  0.00    +0.053 A 
ATOM      8  C3  UNL     1      18.993   0.164  32.012  0.00  0.00    +0.028 A 
ATOM      9  C4  UNL     1      18.381   0.547  33.207  0.00  0.00    +0.052 A 
ATOM     10  C5  UNL     1      18.850   1.678  33.890  0.00  0.00    +0.175 A 
ATOM     11  N5  UNL     1      19.899   2.379  33.380  0.00  0.00    -0.233 NA
ATOM     12  C8  UNL     1      20.508   2.028  32.216  0.00  0.00    +0.136 A 
BRANCH  10  13
ATOM     13  N2  UNL     1      18.246   2.100  35.121  0.00  0.00    -0.132 N 
ATOM     14  N3  UNL     1      18.171   3.361  35.522  0.00  0.00    -0.154 NA
ATOM     15  C6  UNL     1      17.543   3.337  36.711  0.00  0.00    +0.156 A 
ATOM     16  C7  UNL     1      17.248   2.025  37.005  0.00  0.00    +0.156 A 
ATOM     17  N4  UNL     1      17.700   1.265  35.992  0.00  0.00    -0.154 NA
ENDBRANCH  10  13
ENDBRANCH   3   7
BRANCH   4  18
ATOM     18  C9  UNL     1      20.910   1.179  26.518  0.00  0.00    +0.046 A 
ATOM     19  C10 UNL     1      20.019   0.529  25.645  0.00  0.00    +0.024 A 
ATOM     20  C11 UNL     1      19.747   1.057  24.383  0.00  0.00    +0.002 A 
ATOM     21  C12 UNL     1      20.349   2.247  23.980  0.00  0.00    +0.001 A 
ATOM     22  C13 UNL     1      21.228   2.913  24.835  0.00  0.00    +0.014 A 
ATOM     23  C14 UNL     1      21.532   2.388  26.107  0.00  0.00    +0.076 A 
BRANCH  23  24
ATOM     24  C15 UNL     1      22.487   3.126  27.021  0.00  0.00    +0.419 C 
ATOM     25  F1  UNL     1      21.786   3.760  28.031  0.00  0.00    -0.166 F 
ATOM     26  F2  UNL     1      23.397   2.264  27.611  0.00  0.00    -0.166 F 
ATOM     27  F3  UNL     1      23.188   4.068  26.290  0.00  0.00    -0.166 F 
ENDBRANCH  23  24
ENDBRANCH   4  18
TORSDOF 4
ENDMDL
