REMARK  Name = /home/qwerty/github/datacon2025hack/step_04_hit_selection/docking/ligands/lig_761.pdb
REMARK  8 active torsions:
REMARK  status: ('A' for Active; 'I' for Inactive)
REMARK    1  A    between atoms: C1_1  and  C2_2
REMARK    2  A    between atoms: C5_5  and  C6_6
REMARK    3  A    between atoms: C6_6  and  N1_7
REMARK    4  A    between atoms: N1_7  and  C7_8
REMARK    5  A    between atoms: N1_7  and  C8_9
REMARK    6  A    between atoms: C10_11  and  N2_12
REMARK    7  A    between atoms: C11_13  and  C12_15
REMARK    8  A    between atoms: C16_21  and  C17_22
REMARK                            x       y       z     vdW  Elec       q    Type
REMARK                         _______ _______ _______ _____ _____    ______ ____
ROOT
ATOM      1  C12 UNL     1       0.133  -1.506  -0.874  0.00  0.00    +0.302 C 
ATOM      2  O2  UNL     1      -0.149  -2.641  -0.401  0.00  0.00    -0.265 OA
ATOM      3  N3  UNL     1      -0.929  -0.635  -1.306  0.00  0.00    -0.293 N 
ATOM      4  C13 UNL     1      -0.831   0.111  -2.567  0.00  0.00    +0.108 C 
ATOM      5  C14 UNL     1      -1.251   1.574  -2.361  0.00  0.00    +0.020 C 
ATOM      6  C15 UNL     1      -2.443   1.746  -1.393  0.00  0.00    +0.014 C 
ATOM      7  C16 UNL     1      -3.176   0.423  -1.111  0.00  0.00    +0.074 C 
ATOM      8  C24 UNL     1      -2.187  -0.621  -0.547  0.00  0.00    +0.119 C 
ENDROOT
BRANCH   7   9
ATOM      9  C17 UNL     1      -4.339   0.650  -0.180  0.00  0.00    +0.134 A 
ATOM     10  N4  UNL     1      -4.133   0.879   1.145  0.00  0.00    -0.240 NA
ATOM     11  C18 UNL     1      -5.170   1.121   1.986  0.00  0.00    +0.119 A 
ATOM     12  C19 UNL     1      -6.477   1.161   1.491  0.00  0.00    +0.006 A 
ATOM     13  C20 UNL     1      -6.675   0.921   0.122  0.00  0.00    +0.050 A 
ATOM     14  N5  UNL     1      -5.603   0.690  -0.680  0.00  0.00    -0.236 NA
ATOM     15  C21 UNL     1      -8.042   1.023  -0.492  0.00  0.00    +0.071 C 
ATOM     16  C22 UNL     1      -9.150   0.948   0.570  0.00  0.00    +0.087 C 
ATOM     17  N6  UNL     1      -8.847   1.823   1.711  0.00  0.00    -0.312 NA
ATOM     18  C23 UNL     1      -7.648   1.356   2.424  0.00  0.00    +0.119 C 
ATOM     19  H28 UNL     1      -8.675   2.797   1.362  0.00  0.00    +0.122 HD
ENDBRANCH   7   9
BRANCH   1  21
ATOM     20  N2  UNL     1       2.600  -2.050  -0.845  0.00  0.00    -0.277 N 
ATOM     21  C11 UNL     1       1.545  -1.079  -0.929  0.00  0.00    +0.303 C 
ATOM     22  O1  UNL     1       1.821   0.146  -1.061  0.00  0.00    -0.265 OA
ATOM     23  H15 UNL     1       2.354  -3.057  -0.973  0.00  0.00    +0.155 HD
BRANCH  20  30
ATOM     24  C1  UNL     1       4.571  -3.468  -2.473  0.00  0.00    +0.045 C 
ATOM     25  C2  UNL     1       4.959  -2.366  -1.524  0.00  0.00    -0.029 A 
ATOM     26  C3  UNL     1       6.313  -2.017  -1.390  0.00  0.00    +0.005 A 
ATOM     27  C4  UNL     1       6.702  -1.004  -0.513  0.00  0.00    +0.005 A 
ATOM     28  C5  UNL     1       5.748  -0.332   0.258  0.00  0.00    -0.032 A 
ATOM     29  C9  UNL     1       4.395  -0.685   0.142  0.00  0.00    +0.028 A 
ATOM     30  C10 UNL     1       3.988  -1.691  -0.752  0.00  0.00    +0.037 A 
BRANCH  28  31
ATOM     31  C6  UNL     1       6.181   0.750   1.212  0.00  0.00    +0.119 C 
BRANCH  31  32
ATOM     32  N1  UNL     1       7.038   0.194   2.280  0.00  0.00    -0.304 NA
ATOM     33  C7  UNL     1       6.232  -0.556   3.260  0.00  0.00    +0.104 C 
ATOM     34  C8  UNL     1       7.759   1.278   2.964  0.00  0.00    +0.104 C 
ENDBRANCH  31  32
ENDBRANCH  28  31
ENDBRANCH  20  30
ENDBRANCH   1  21
TORSDOF 5
