REMARK  Name = /home/qwerty/github/datacon2025hack/step_04_hit_selection/docking/ligands/lig_258.pdb
REMARK  7 active torsions:
REMARK  status: ('A' for Active; 'I' for Inactive)
REMARK    1  A    between atoms: C1_1  and  C2_2
REMARK    2  A    between atoms: C4_5  and  C5_7
REMARK    3  A    between atoms: N2_9  and  C7_10
REMARK    4  A    between atoms: N3_13  and  C9_14
REMARK    5  A    between atoms: C11_16  and  C12_17
REMARK    6  A    between atoms: C12_17  and  N4_18
REMARK    7  A    between atoms: C13_19  and  C14_21
REMARK                            x       y       z     vdW  Elec       q    Type
REMARK                         _______ _______ _______ _____ _____    ______ ____
ROOT
ATOM      1  C1  UNL     1       1.499   1.508  -1.040  0.00  0.00    +0.009 C 
ATOM      2  C2  UNL     1       0.845   0.456  -0.133  0.00  0.00    +0.009 C 
ATOM      3  C3  UNL     1      -0.680   0.582  -0.136  0.00  0.00    +0.111 C 
ATOM      4  N1  UNL     1      -1.097   0.327   1.232  0.00  0.00    -0.296 N 
ATOM      5  C4  UNL     1      -2.470   0.321   1.655  0.00  0.00    +0.265 C 
ATOM      6  O1  UNL     1      -2.765   0.669   2.830  0.00  0.00    -0.268 OA
ATOM      7  C10 UNL     1       0.013   0.265   2.165  0.00  0.00    +0.113 C 
ATOM      8  C11 UNL     1       1.270   0.589   1.348  0.00  0.00    +0.028 C 
ENDROOT
BRANCH   5   9
ATOM      9  C5  UNL     1      -3.552  -0.058   0.732  0.00  0.00    +0.125 A 
ATOM     10  C6  UNL     1      -4.703   0.678   0.508  0.00  0.00    +0.121 A 
ATOM     11  N2  UNL     1      -5.465   0.007  -0.378  0.00  0.00    -0.301 N 
ATOM     12  C7  UNL     1      -6.724   0.454  -0.962  0.00  0.00    +0.153 C 
ATOM     13  C8  UNL     1      -4.772  -1.110  -0.679  0.00  0.00    +0.329 A 
ATOM     14  O2  UNL     1      -5.175  -1.985  -1.492  0.00  0.00    -0.246 OA
ATOM     15  N3  UNL     1      -3.605  -1.192  -0.008  0.00  0.00    -0.291 N 
ATOM     16  C9  UNL     1      -2.672  -2.317  -0.030  0.00  0.00    +0.154 C 
ENDBRANCH   5   9
BRANCH   8  17
ATOM     17  C12 UNL     1       2.442  -0.336   1.732  0.00  0.00    +0.110 C 
BRANCH  17  18
ATOM     18  N4  UNL     1       3.664   0.054   1.029  0.00  0.00    -0.310 N 
ATOM     19  C13 UNL     1       4.239  -0.726  -0.031  0.00  0.00    +0.266 C 
ATOM     20  O3  UNL     1       3.741  -1.842  -0.343  0.00  0.00    -0.268 OA
ATOM     21  H19 UNL     1       4.088   0.977   1.271  0.00  0.00    +0.149 HD
BRANCH  19  22
ATOM     22  C14 UNL     1       5.409  -0.225  -0.770  0.00  0.00    +0.163 A 
ATOM     23  C15 UNL     1       6.052  -0.865  -1.806  0.00  0.00    +0.230 A 
ATOM     24  O4  UNL     1       7.035  -0.092  -2.193  0.00  0.00    -0.450 OA
ATOM     25  C16 UNL     1       7.010   0.983  -1.436  0.00  0.00    +0.308 A 
ATOM     26  N5  UNL     1       6.013   0.954  -0.528  0.00  0.00    -0.212 NA
ENDBRANCH  19  22
ENDBRANCH  17  18
ENDBRANCH   8  17
TORSDOF 4
