MODEL 1
REMARK VINA RESULT:    -6.209      0.000      0.000
REMARK INTER + INTRA:          -7.908
REMARK INTER:                  -7.298
REMARK INTRA:                  -0.610
REMARK UNBOUND:                -0.610
REMARK  Name = /home/qwerty/github/datacon2025hack/step_04_hit_selection/docking/ligands/lig_811.pdb
REMARK  4 active torsions:
REMARK  status: ('A' for Active; 'I' for Inactive)
REMARK    1  A    between atoms: C1_1  and  C2_2
REMARK    2  A    between atoms: C3_4  and  C4_5
REMARK    3  A    between atoms: C10_12  and  C11_13
REMARK    4  A    between atoms: N2_15  and  C12_16
REMARK                            x       y       z     vdW  Elec       q    Type
REMARK                         _______ _______ _______ _____ _____    ______ ____
ROOT
ATOM      1  C11 UNL     1      16.390  11.307  36.868  0.00  0.00    +0.250 C 
ATOM      2  O1  UNL     1      16.304  12.284  37.660  0.00  0.00    -0.270 OA
ATOM      3  N2  UNL     1      15.299  11.006  35.980  0.00  0.00    -0.281 N 
ATOM      4  H9  UNL     1      15.513  10.470  35.108  0.00  0.00    +0.155 HD
ENDROOT
BRANCH   3   5
ATOM      5  C12 UNL     1      13.963  11.509  36.150  0.00  0.00    +0.037 A 
ATOM      6  C13 UNL     1      13.075  10.835  37.026  0.00  0.00    +0.027 A 
ATOM      7  C14 UNL     1      11.769  11.315  37.233  0.00  0.00    +0.051 A 
ATOM      8  C15 UNL     1      11.389  12.475  36.566  0.00  0.00    +0.166 A 
ATOM      9  C16 UNL     1      12.237  13.138  35.741  0.00  0.00    +0.168 A 
ATOM     10  C17 UNL     1      13.537  12.697  35.506  0.00  0.00    +0.072 A 
ATOM     11  O2  UNL     1      11.603  14.254  35.229  0.00  0.00    -0.453 OA
ATOM     12  C18 UNL     1      10.272  14.290  35.763  0.00  0.00    +0.466 C 
ATOM     13  O3  UNL     1      10.179  13.137  36.612  0.00  0.00    -0.453 OA
ENDBRANCH   3   5
BRANCH   1  20
ATOM     14  C1  UNL     1      18.779  12.006  35.140  0.00  0.00    +0.066 C 
ATOM     15  C2  UNL     1      18.752  10.812  36.048  0.00  0.00    +0.051 A 
ATOM     16  N1  UNL     1      19.859  10.020  36.094  0.00  0.00    -0.251 NA
ATOM     17  C3  UNL     1      19.937   8.902  36.866  0.00  0.00    +0.078 A 
ATOM     18  C8  UNL     1      18.837   8.537  37.651  0.00  0.00    +0.029 A 
ATOM     19  C9  UNL     1      17.688   9.326  37.634  0.00  0.00    +0.017 A 
ATOM     20  C10 UNL     1      17.624  10.481  36.839  0.00  0.00    +0.058 A 
BRANCH  17  21
ATOM     21  C4  UNL     1      21.177   8.100  36.856  0.00  0.00    +0.038 A 
ATOM     22  C5  UNL     1      21.600   7.252  37.877  0.00  0.00    +0.017 A 
ATOM     23  C6  UNL     1      22.816   6.614  37.602  0.00  0.00    +0.008 A 
ATOM     24  C7  UNL     1      23.359   6.951  36.370  0.00  0.00    +0.046 A 
ATOM     25  S1  UNL     1      22.323   8.044  35.622  0.00  0.00    -0.095 S 
ENDBRANCH  17  21
ENDBRANCH   1  20
TORSDOF 3
ENDMDL
MODEL 2
REMARK VINA RESULT:    -6.088     16.691     17.249
REMARK INTER + INTRA:          -7.766
REMARK INTER:                  -7.130
REMARK INTRA:                  -0.636
REMARK UNBOUND:                -0.610
REMARK  Name = /home/qwerty/github/datacon2025hack/step_04_hit_selection/docking/ligands/lig_811.pdb
REMARK  4 active torsions:
REMARK  status: ('A' for Active; 'I' for Inactive)
REMARK    1  A    between atoms: C1_1  and  C2_2
REMARK    2  A    between atoms: C3_4  and  C4_5
REMARK    3  A    between atoms: C10_12  and  C11_13
REMARK    4  A    between atoms: N2_15  and  C12_16
REMARK                            x       y       z     vdW  Elec       q    Type
REMARK                         _______ _______ _______ _____ _____    ______ ____
ROOT
ATOM      1  C11 UNL     1      11.264   4.917  20.971  0.00  0.00    +0.250 C 
ATOM      2  O1  UNL     1      10.214   4.800  20.285  0.00  0.00    -0.270 OA
ATOM      3  N2  UNL     1      11.523   6.140  21.682  0.00  0.00    -0.281 N 
ATOM      4  H9  UNL     1      12.159   6.098  22.511  0.00  0.00    +0.155 HD
ENDROOT
BRANCH   3   5
ATOM      5  C12 UNL     1      10.859   7.385  21.406  0.00  0.00    +0.037 A 
ATOM      6  C13 UNL     1      11.265   8.154  20.286  0.00  0.00    +0.027 A 
ATOM      7  C14 UNL     1      10.621   9.364  19.973  0.00  0.00    +0.051 A 
ATOM      8  C15 UNL     1       9.568   9.768  20.787  0.00  0.00    +0.166 A 
ATOM      9  C16 UNL     1       9.160   9.032  21.850  0.00  0.00    +0.168 A 
ATOM     10  C17 UNL     1       9.770   7.829  22.196  0.00  0.00    +0.072 A 
ATOM     11  O2  UNL     1       8.095   9.663  22.465  0.00  0.00    -0.453 OA
ATOM     12  C18 UNL     1       7.821  10.873  21.745  0.00  0.00    +0.466 C 
ATOM     13  O3  UNL     1       8.784  10.901  20.682  0.00  0.00    -0.453 OA
ENDBRANCH   3   5
BRANCH   1  20
ATOM     14  C1  UNL     1      13.702   4.700  19.183  0.00  0.00    +0.066 C 
ATOM     15  C2  UNL     1      13.375   3.687  20.241  0.00  0.00    +0.051 A 
ATOM     16  N1  UNL     1      14.222   2.633  20.400  0.00  0.00    -0.251 NA
ATOM     17  C3  UNL     1      14.013   1.647  21.314  0.00  0.00    +0.078 A 
ATOM     18  C8  UNL     1      12.879   1.705  22.133  0.00  0.00    +0.029 A 
ATOM     19  C9  UNL     1      11.991   2.771  22.003  0.00  0.00    +0.017 A 
ATOM     20  C10 UNL     1      12.223   3.786  21.061  0.00  0.00    +0.058 A 
BRANCH  17  21
ATOM     21  C4  UNL     1      14.984   0.539  21.420  0.00  0.00    +0.038 A 
ATOM     22  C5  UNL     1      15.076  -0.357  22.481  0.00  0.00    +0.017 A 
ATOM     23  C6  UNL     1      16.090  -1.310  22.319  0.00  0.00    +0.008 A 
ATOM     24  C7  UNL     1      16.802  -1.172  21.136  0.00  0.00    +0.046 A 
ATOM     25  S1  UNL     1      16.168   0.135  20.290  0.00  0.00    -0.095 S 
ENDBRANCH  17  21
ENDBRANCH   1  20
TORSDOF 3
ENDMDL
MODEL 3
REMARK VINA RESULT:    -6.066     16.873     17.535
REMARK INTER + INTRA:          -7.740
REMARK INTER:                  -7.208
REMARK INTRA:                  -0.532
REMARK UNBOUND:                -0.610
REMARK  Name = /home/qwerty/github/datacon2025hack/step_04_hit_selection/docking/ligands/lig_811.pdb
REMARK  4 active torsions:
REMARK  status: ('A' for Active; 'I' for Inactive)
REMARK    1  A    between atoms: C1_1  and  C2_2
REMARK    2  A    between atoms: C3_4  and  C4_5
REMARK    3  A    between atoms: C10_12  and  C11_13
REMARK    4  A    between atoms: N2_15  and  C12_16
REMARK                            x       y       z     vdW  Elec       q    Type
REMARK                         _______ _______ _______ _____ _____    ______ ____
ROOT
ATOM      1  C11 UNL     1      11.312   5.173  20.619  0.00  0.00    +0.250 C 
ATOM      2  O1  UNL     1      10.293   5.098  19.880  0.00  0.00    -0.270 OA
ATOM      3  N2  UNL     1      11.519   6.336  21.439  0.00  0.00    -0.281 N 
ATOM      4  H9  UNL     1      12.121   6.233  22.288  0.00  0.00    +0.155 HD
ENDROOT
BRANCH   3   5
ATOM      5  C12 UNL     1      10.844   7.589  21.239  0.00  0.00    +0.037 A 
ATOM      6  C13 UNL     1      11.256   8.436  20.178  0.00  0.00    +0.027 A 
ATOM      7  C14 UNL     1      10.602   9.658  19.940  0.00  0.00    +0.051 A 
ATOM      8  C15 UNL     1       9.534   9.995  20.765  0.00  0.00    +0.166 A 
ATOM      9  C16 UNL     1       9.120   9.184  21.770  0.00  0.00    +0.168 A 
ATOM     10  C17 UNL     1       9.740   7.967  22.041  0.00  0.00    +0.072 A 
ATOM     11  O2  UNL     1       8.040   9.760  22.411  0.00  0.00    -0.453 OA
ATOM     12  C18 UNL     1       7.762  11.014  21.772  0.00  0.00    +0.466 C 
ATOM     13  O3  UNL     1       8.739  11.124  20.726  0.00  0.00    -0.453 OA
ENDBRANCH   3   5
BRANCH   1  20
ATOM     14  C1  UNL     1      10.724   2.545  22.011  0.00  0.00    +0.066 C 
ATOM     15  C2  UNL     1      12.012   2.814  21.288  0.00  0.00    +0.051 A 
ATOM     16  N1  UNL     1      12.945   1.823  21.257  0.00  0.00    -0.251 NA
ATOM     17  C3  UNL     1      14.153   1.964  20.649  0.00  0.00    +0.078 A 
ATOM     18  C8  UNL     1      14.466   3.178  20.025  0.00  0.00    +0.029 A 
ATOM     19  C9  UNL     1      13.533   4.214  20.031  0.00  0.00    +0.017 A 
ATOM     20  C10 UNL     1      12.287   4.052  20.656  0.00  0.00    +0.058 A 
BRANCH  17  21
ATOM     21  C4  UNL     1      15.108   0.838  20.663  0.00  0.00    +0.038 A 
ATOM     22  C5  UNL     1      15.749   0.306  19.547  0.00  0.00    +0.017 A 
ATOM     23  C6  UNL     1      16.604  -0.761  19.852  0.00  0.00    +0.008 A 
ATOM     24  C7  UNL     1      16.643  -1.078  21.202  0.00  0.00    +0.046 A 
ATOM     25  S1  UNL     1      15.614  -0.028  22.018  0.00  0.00    -0.095 S 
ENDBRANCH  17  21
ENDBRANCH   1  20
TORSDOF 3
ENDMDL
MODEL 4
REMARK VINA RESULT:    -6.015      1.033      2.049
REMARK INTER + INTRA:          -7.680
REMARK INTER:                  -7.066
REMARK INTRA:                  -0.614
REMARK UNBOUND:                -0.610
REMARK  Name = /home/qwerty/github/datacon2025hack/step_04_hit_selection/docking/ligands/lig_811.pdb
REMARK  4 active torsions:
REMARK  status: ('A' for Active; 'I' for Inactive)
REMARK    1  A    between atoms: C1_1  and  C2_2
REMARK    2  A    between atoms: C3_4  and  C4_5
REMARK    3  A    between atoms: C10_12  and  C11_13
REMARK    4  A    between atoms: N2_15  and  C12_16
REMARK                            x       y       z     vdW  Elec       q    Type
REMARK                         _______ _______ _______ _____ _____    ______ ____
ROOT
ATOM      1  C11 UNL     1      16.925  12.106  36.360  0.00  0.00    +0.250 C 
ATOM      2  O1  UNL     1      16.879  13.092  37.144  0.00  0.00    -0.270 OA
ATOM      3  N2  UNL     1      15.893  11.926  35.374  0.00  0.00    -0.281 N 
ATOM      4  H9  UNL     1      16.124  11.363  34.524  0.00  0.00    +0.155 HD
ENDROOT
BRANCH   3   5
ATOM      5  C12 UNL     1      14.614  12.581  35.422  0.00  0.00    +0.037 A 
ATOM      6  C13 UNL     1      14.399  13.739  34.632  0.00  0.00    +0.027 A 
ATOM      7  C14 UNL     1      13.152  14.390  34.637  0.00  0.00    +0.051 A 
ATOM      8  C15 UNL     1      12.141  13.851  35.426  0.00  0.00    +0.166 A 
ATOM      9  C16 UNL     1      12.331  12.734  36.170  0.00  0.00    +0.168 A 
ATOM     10  C17 UNL     1      13.549  12.059  36.195  0.00  0.00    +0.072 A 
ATOM     11  O2  UNL     1      11.162  12.421  36.837  0.00  0.00    -0.453 OA
ATOM     12  C18 UNL     1      10.178  13.407  36.493  0.00  0.00    +0.466 C 
ATOM     13  O3  UNL     1      10.846  14.300  35.590  0.00  0.00    -0.453 OA
ENDBRANCH   3   5
BRANCH   1  20
ATOM     14  C1  UNL     1      16.857   9.663  38.152  0.00  0.00    +0.066 C 
ATOM     15  C2  UNL     1      18.022   9.989  37.263  0.00  0.00    +0.051 A 
ATOM     16  N1  UNL     1      19.084   9.138  37.265  0.00  0.00    -0.251 NA
ATOM     17  C3  UNL     1      20.200   9.346  36.515  0.00  0.00    +0.078 A 
ATOM     18  C8  UNL     1      20.273  10.483  35.701  0.00  0.00    +0.029 A 
ATOM     19  C9  UNL     1      19.202  11.375  35.669  0.00  0.00    +0.017 A 
ATOM     20  C10 UNL     1      18.054  11.144  36.442  0.00  0.00    +0.058 A 
BRANCH  17  21
ATOM     21  C4  UNL     1      21.308   8.372  36.578  0.00  0.00    +0.038 A 
ATOM     22  C5  UNL     1      21.560   7.499  37.633  0.00  0.00    +0.017 A 
ATOM     23  C6  UNL     1      22.679   6.683  37.426  0.00  0.00    +0.008 A 
ATOM     24  C7  UNL     1      23.315   6.904  36.212  0.00  0.00    +0.046 A 
ATOM     25  S1  UNL     1      22.483   8.116  35.397  0.00  0.00    -0.095 S 
ENDBRANCH  17  21
ENDBRANCH   1  20
TORSDOF 3
ENDMDL
MODEL 5
REMARK VINA RESULT:    -5.984     17.088     18.391
REMARK INTER + INTRA:          -7.644
REMARK INTER:                  -7.062
REMARK INTRA:                  -0.581
REMARK UNBOUND:                -0.610
REMARK  Name = /home/qwerty/github/datacon2025hack/step_04_hit_selection/docking/ligands/lig_811.pdb
REMARK  4 active torsions:
REMARK  status: ('A' for Active; 'I' for Inactive)
REMARK    1  A    between atoms: C1_1  and  C2_2
REMARK    2  A    between atoms: C3_4  and  C4_5
REMARK    3  A    between atoms: C10_12  and  C11_13
REMARK    4  A    between atoms: N2_15  and  C12_16
REMARK                            x       y       z     vdW  Elec       q    Type
REMARK                         _______ _______ _______ _____ _____    ______ ____
ROOT
ATOM      1  C11 UNL     1      16.651   7.462  20.297  0.00  0.00    +0.250 C 
ATOM      2  O1  UNL     1      16.121   7.365  21.436  0.00  0.00    -0.270 OA
ATOM      3  N2  UNL     1      16.361   6.481  19.286  0.00  0.00    -0.281 N 
ATOM      4  H9  UNL     1      16.485   6.759  18.286  0.00  0.00    +0.155 HD
ENDROOT
BRANCH   3   5
ATOM      5  C12 UNL     1      15.784   5.193  19.559  0.00  0.00    +0.037 A 
ATOM      6  C13 UNL     1      14.373   5.051  19.558  0.00  0.00    +0.027 A 
ATOM      7  C14 UNL     1      13.776   3.800  19.798  0.00  0.00    +0.051 A 
ATOM      8  C15 UNL     1      14.615   2.712  20.019  0.00  0.00    +0.166 A 
ATOM      9  C16 UNL     1      15.965   2.833  20.004  0.00  0.00    +0.168 A 
ATOM     10  C17 UNL     1      16.597   4.053  19.772  0.00  0.00    +0.072 A 
ATOM     11  O2  UNL     1      16.541   1.599  20.238  0.00  0.00    -0.453 OA
ATOM     12  C18 UNL     1      15.485   0.644  20.415  0.00  0.00    +0.466 C 
ATOM     13  O3  UNL     1      14.272   1.398  20.267  0.00  0.00    -0.453 OA
ENDBRANCH   3   5
BRANCH   1  20
ATOM     14  C1  UNL     1      19.655   7.129  20.064  0.00  0.00    +0.066 C 
ATOM     15  C2  UNL     1      18.963   8.446  19.865  0.00  0.00    +0.051 A 
ATOM     16  N1  UNL     1      19.728   9.530  19.559  0.00  0.00    -0.251 NA
ATOM     17  C3  UNL     1      19.210  10.774  19.377  0.00  0.00    +0.078 A 
ATOM     18  C8  UNL     1      17.829  10.964  19.509  0.00  0.00    +0.029 A 
ATOM     19  C9  UNL     1      17.012   9.877  19.816  0.00  0.00    +0.017 A 
ATOM     20  C10 UNL     1      17.559   8.597  19.994  0.00  0.00    +0.058 A 
BRANCH  17  21
ATOM     21  C4  UNL     1      20.113  11.895  19.048  0.00  0.00    +0.038 A 
ATOM     22  C5  UNL     1      19.767  13.244  19.061  0.00  0.00    +0.017 A 
ATOM     23  C6  UNL     1      20.823  14.093  18.705  0.00  0.00    +0.008 A 
ATOM     24  C7  UNL     1      22.003  13.424  18.409  0.00  0.00    +0.046 A 
ATOM     25  S1  UNL     1      21.732  11.775  18.593  0.00  0.00    -0.095 S 
ENDBRANCH  17  21
ENDBRANCH   1  20
TORSDOF 3
ENDMDL
MODEL 6
REMARK VINA RESULT:    -5.722     10.088     11.843
REMARK INTER + INTRA:          -7.335
REMARK INTER:                  -6.891
REMARK INTRA:                  -0.444
REMARK UNBOUND:                -0.610
REMARK  Name = /home/qwerty/github/datacon2025hack/step_04_hit_selection/docking/ligands/lig_811.pdb
REMARK  4 active torsions:
REMARK  status: ('A' for Active; 'I' for Inactive)
REMARK    1  A    between atoms: C1_1  and  C2_2
REMARK    2  A    between atoms: C3_4  and  C4_5
REMARK    3  A    between atoms: C10_12  and  C11_13
REMARK    4  A    between atoms: N2_15  and  C12_16
REMARK                            x       y       z     vdW  Elec       q    Type
REMARK                         _______ _______ _______ _____ _____    ______ ____
ROOT
ATOM      1  C11 UNL     1      20.134   2.410  32.830  0.00  0.00    +0.250 C 
ATOM      2  O1  UNL     1      21.008   2.197  33.713  0.00  0.00    -0.270 OA
ATOM      3  N2  UNL     1      18.739   2.356  33.175  0.00  0.00    -0.281 N 
ATOM      4  H9  UNL     1      18.067   2.882  32.572  0.00  0.00    +0.155 HD
ENDROOT
BRANCH   3   5
ATOM      5  C12 UNL     1      18.231   1.736  34.368  0.00  0.00    +0.037 A 
ATOM      6  C13 UNL     1      18.423   2.379  35.618  0.00  0.00    +0.027 A 
ATOM      7  C14 UNL     1      17.917   1.813  36.802  0.00  0.00    +0.051 A 
ATOM      8  C15 UNL     1      17.213   0.618  36.702  0.00  0.00    +0.166 A 
ATOM      9  C16 UNL     1      17.007   0.005  35.510  0.00  0.00    +0.168 A 
ATOM     10  C17 UNL     1      17.491   0.530  34.314  0.00  0.00    +0.072 A 
ATOM     11  O2  UNL     1      16.271  -1.148  35.706  0.00  0.00    -0.453 OA
ATOM     12  C18 UNL     1      16.003  -1.269  37.110  0.00  0.00    +0.466 C 
ATOM     13  O3  UNL     1      16.622  -0.120  37.708  0.00  0.00    -0.453 OA
ENDBRANCH   3   5
BRANCH   1  20
ATOM     14  C1  UNL     1      20.643   0.275  30.739  0.00  0.00    +0.066 C 
ATOM     15  C2  UNL     1      20.768   1.743  30.452  0.00  0.00    +0.051 A 
ATOM     16  N1  UNL     1      21.118   2.120  29.191  0.00  0.00    -0.251 NA
ATOM     17  C3  UNL     1      21.280   3.420  28.826  0.00  0.00    +0.078 A 
ATOM     18  C8  UNL     1      21.082   4.426  29.778  0.00  0.00    +0.029 A 
ATOM     19  C9  UNL     1      20.717   4.080  31.079  0.00  0.00    +0.017 A 
ATOM     20  C10 UNL     1      20.546   2.735  31.441  0.00  0.00    +0.058 A 
BRANCH  17  21
ATOM     21  C4  UNL     1      21.661   3.740  27.436  0.00  0.00    +0.038 A 
ATOM     22  C5  UNL     1      22.572   3.026  26.661  0.00  0.00    +0.017 A 
ATOM     23  C6  UNL     1      22.743   3.554  25.375  0.00  0.00    +0.008 A 
ATOM     24  C7  UNL     1      21.974   4.682  25.127  0.00  0.00    +0.046 A 
ATOM     25  S1  UNL     1      21.079   5.022  26.508  0.00  0.00    -0.095 S 
ENDBRANCH  17  21
ENDBRANCH   1  20
TORSDOF 3
ENDMDL
MODEL 7
REMARK VINA RESULT:    -5.604      8.181     10.632
REMARK INTER + INTRA:          -7.197
REMARK INTER:                  -6.618
REMARK INTRA:                  -0.579
REMARK UNBOUND:                -0.610
REMARK  Name = /home/qwerty/github/datacon2025hack/step_04_hit_selection/docking/ligands/lig_811.pdb
REMARK  4 active torsions:
REMARK  status: ('A' for Active; 'I' for Inactive)
REMARK    1  A    between atoms: C1_1  and  C2_2
REMARK    2  A    between atoms: C3_4  and  C4_5
REMARK    3  A    between atoms: C10_12  and  C11_13
REMARK    4  A    between atoms: N2_15  and  C12_16
REMARK                            x       y       z     vdW  Elec       q    Type
REMARK                         _______ _______ _______ _____ _____    ______ ____
ROOT
ATOM      1  C11 UNL     1      21.087  14.975  30.545  0.00  0.00    +0.250 C 
ATOM      2  O1  UNL     1      21.621  15.627  31.482  0.00  0.00    -0.270 OA
ATOM      3  N2  UNL     1      19.889  14.219  30.791  0.00  0.00    -0.281 N 
ATOM      4  H9  UNL     1      19.269  14.008  29.976  0.00  0.00    +0.155 HD
ENDROOT
BRANCH   3   5
ATOM      5  C12 UNL     1      19.426  13.852  32.101  0.00  0.00    +0.037 A 
ATOM      6  C13 UNL     1      18.394  14.612  32.710  0.00  0.00    +0.027 A 
ATOM      7  C14 UNL     1      17.901  14.266  33.981  0.00  0.00    +0.051 A 
ATOM      8  C15 UNL     1      18.446  13.151  34.607  0.00  0.00    +0.166 A 
ATOM      9  C16 UNL     1      19.419  12.406  34.027  0.00  0.00    +0.168 A 
ATOM     10  C17 UNL     1      19.936  12.713  32.771  0.00  0.00    +0.072 A 
ATOM     11  O2  UNL     1      19.758  11.359  34.863  0.00  0.00    -0.453 OA
ATOM     12  C18 UNL     1      18.951  11.456  36.044  0.00  0.00    +0.466 C 
ATOM     13  O3  UNL     1      18.127  12.613  35.839  0.00  0.00    -0.453 OA
ENDBRANCH   3   5
BRANCH   1  20
ATOM     14  C1  UNL     1      20.320  17.049  28.472  0.00  0.00    +0.066 C 
ATOM     15  C2  UNL     1      21.344  15.982  28.217  0.00  0.00    +0.051 A 
ATOM     16  N1  UNL     1      21.954  15.961  27.000  0.00  0.00    -0.251 NA
ATOM     17  C3  UNL     1      22.881  15.028  26.654  0.00  0.00    +0.078 A 
ATOM     18  C8  UNL     1      23.233  14.039  27.580  0.00  0.00    +0.029 A 
ATOM     19  C9  UNL     1      22.634  14.031  28.839  0.00  0.00    +0.017 A 
ATOM     20  C10 UNL     1      21.684  15.005  29.185  0.00  0.00    +0.058 A 
BRANCH  17  21
ATOM     21  C4  UNL     1      23.494  15.078  25.311  0.00  0.00    +0.038 A 
ATOM     22  C5  UNL     1      24.176  16.166  24.773  0.00  0.00    +0.017 A 
ATOM     23  C6  UNL     1      24.655  15.937  23.476  0.00  0.00    +0.008 A 
ATOM     24  C7  UNL     1      24.355  14.674  22.984  0.00  0.00    +0.046 A 
ATOM     25  S1  UNL     1      23.495  13.842  24.165  0.00  0.00    -0.095 S 
ENDBRANCH  17  21
ENDBRANCH   1  20
TORSDOF 3
ENDMDL
MODEL 8
REMARK VINA RESULT:    -5.562     15.719     16.674
REMARK INTER + INTRA:          -7.147
REMARK INTER:                  -6.669
REMARK INTRA:                  -0.479
REMARK UNBOUND:                -0.610
REMARK  Name = /home/qwerty/github/datacon2025hack/step_04_hit_selection/docking/ligands/lig_811.pdb
REMARK  4 active torsions:
REMARK  status: ('A' for Active; 'I' for Inactive)
REMARK    1  A    between atoms: C1_1  and  C2_2
REMARK    2  A    between atoms: C3_4  and  C4_5
REMARK    3  A    between atoms: C10_12  and  C11_13
REMARK    4  A    between atoms: N2_15  and  C12_16
REMARK                            x       y       z     vdW  Elec       q    Type
REMARK                         _______ _______ _______ _____ _____    ______ ____
ROOT
ATOM      1  C11 UNL     1       8.010   0.448  27.116  0.00  0.00    +0.250 C 
ATOM      2  O1  UNL     1       7.481  -0.263  26.220  0.00  0.00    -0.270 OA
ATOM      3  N2  UNL     1       8.444   1.784  26.808  0.00  0.00    -0.281 N 
ATOM      4  H9  UNL     1       8.520   2.466  27.596  0.00  0.00    +0.155 HD
ENDROOT
BRANCH   3   5
ATOM      5  C12 UNL     1       8.647   2.273  25.471  0.00  0.00    +0.037 A 
ATOM      6  C13 UNL     1       9.732   1.771  24.707  0.00  0.00    +0.027 A 
ATOM      7  C14 UNL     1       9.946   2.210  23.388  0.00  0.00    +0.051 A 
ATOM      8  C15 UNL     1       9.052   3.135  22.859  0.00  0.00    +0.166 A 
ATOM      9  C16 UNL     1       8.001   3.608  23.574  0.00  0.00    +0.168 A 
ATOM     10  C17 UNL     1       7.754   3.201  24.883  0.00  0.00    +0.072 A 
ATOM     11  O2  UNL     1       7.279   4.496  22.799  0.00  0.00    -0.453 OA
ATOM     12  C18 UNL     1       7.921   4.590  21.520  0.00  0.00    +0.466 C 
ATOM     13  O3  UNL     1       9.047   3.705  21.601  0.00  0.00    -0.453 OA
ENDBRANCH   3   5
BRANCH   1  20
ATOM     14  C1  UNL     1       5.668   0.107  29.010  0.00  0.00    +0.066 C 
ATOM     15  C2  UNL     1       7.075  -0.267  29.378  0.00  0.00    +0.051 A 
ATOM     16  N1  UNL     1       7.294  -0.788  30.616  0.00  0.00    -0.251 NA
ATOM     17  C3  UNL     1       8.529  -1.143  31.061  0.00  0.00    +0.078 A 
ATOM     18  C8  UNL     1       9.634  -0.968  30.220  0.00  0.00    +0.029 A 
ATOM     19  C9  UNL     1       9.449  -0.441  28.943  0.00  0.00    +0.017 A 
ATOM     20  C10 UNL     1       8.167  -0.087  28.493  0.00  0.00    +0.058 A 
BRANCH  17  21
ATOM     21  C4  UNL     1       8.677  -1.702  32.420  0.00  0.00    +0.038 A 
ATOM     22  C5  UNL     1       7.914  -2.735  32.958  0.00  0.00    +0.017 A 
ATOM     23  C6  UNL     1       8.271  -3.065  34.272  0.00  0.00    +0.008 A 
ATOM     24  C7  UNL     1       9.312  -2.298  34.778  0.00  0.00    +0.046 A 
ATOM     25  S1  UNL     1       9.789  -1.210  33.589  0.00  0.00    -0.095 S 
ENDBRANCH  17  21
ENDBRANCH   1  20
TORSDOF 3
ENDMDL
MODEL 9
REMARK VINA RESULT:    -5.520     17.042     19.102
REMARK INTER + INTRA:          -7.098
REMARK INTER:                  -6.578
REMARK INTRA:                  -0.521
REMARK UNBOUND:                -0.610
REMARK  Name = /home/qwerty/github/datacon2025hack/step_04_hit_selection/docking/ligands/lig_811.pdb
REMARK  4 active torsions:
REMARK  status: ('A' for Active; 'I' for Inactive)
REMARK    1  A    between atoms: C1_1  and  C2_2
REMARK    2  A    between atoms: C3_4  and  C4_5
REMARK    3  A    between atoms: C10_12  and  C11_13
REMARK    4  A    between atoms: N2_15  and  C12_16
REMARK                            x       y       z     vdW  Elec       q    Type
REMARK                         _______ _______ _______ _____ _____    ______ ____
ROOT
ATOM      1  C11 UNL     1      12.243   3.146  21.213  0.00  0.00    +0.250 C 
ATOM      2  O1  UNL     1      11.624   2.065  21.408  0.00  0.00    -0.270 OA
ATOM      3  N2  UNL     1      13.632   3.119  20.841  0.00  0.00    -0.281 N 
ATOM      4  H9  UNL     1      14.017   3.948  20.333  0.00  0.00    +0.155 HD
ENDROOT
BRANCH   3   5
ATOM      5  C12 UNL     1      14.485   1.974  21.005  0.00  0.00    +0.037 A 
ATOM      6  C13 UNL     1      15.123   1.416  19.868  0.00  0.00    +0.027 A 
ATOM      7  C14 UNL     1      15.983   0.311  19.996  0.00  0.00    +0.051 A 
ATOM      8  C15 UNL     1      16.197  -0.201  21.272  0.00  0.00    +0.166 A 
ATOM      9  C16 UNL     1      15.607   0.337  22.368  0.00  0.00    +0.168 A 
ATOM     10  C17 UNL     1      14.748   1.430  22.286  0.00  0.00    +0.072 A 
ATOM     11  O2  UNL     1      16.007  -0.359  23.494  0.00  0.00    -0.453 OA
ATOM     12  C18 UNL     1      16.900  -1.401  23.076  0.00  0.00    +0.466 C 
ATOM     13  O3  UNL     1      16.994  -1.263  21.651  0.00  0.00    -0.453 OA
ENDBRANCH   3   5
BRANCH   1  20
ATOM     14  C1  UNL     1      12.005   4.603  23.860  0.00  0.00    +0.066 C 
ATOM     15  C2  UNL     1      11.433   5.140  22.580  0.00  0.00    +0.051 A 
ATOM     16  N1  UNL     1      10.789   6.338  22.622  0.00  0.00    -0.251 NA
ATOM     17  C3  UNL     1      10.216   6.908  21.528  0.00  0.00    +0.078 A 
ATOM     18  C8  UNL     1      10.283   6.244  20.298  0.00  0.00    +0.029 A 
ATOM     19  C9  UNL     1      10.939   5.016  20.214  0.00  0.00    +0.017 A 
ATOM     20  C10 UNL     1      11.533   4.443  21.350  0.00  0.00    +0.058 A 
BRANCH  17  21
ATOM     21  C4  UNL     1       9.536   8.212  21.662  0.00  0.00    +0.038 A 
ATOM     22  C5  UNL     1       8.521   8.506  22.568  0.00  0.00    +0.017 A 
ATOM     23  C6  UNL     1       8.057   9.825  22.477  0.00  0.00    +0.008 A 
ATOM     24  C7  UNL     1       8.699  10.577  21.502  0.00  0.00    +0.046 A 
ATOM     25  S1  UNL     1       9.845   9.600  20.756  0.00  0.00    -0.095 S 
ENDBRANCH  17  21
ENDBRANCH   1  20
TORSDOF 3
ENDMDL
