REMARK  Name = /home/qwerty/github/datacon2025hack/step_04_hit_selection/docking/ligands/lig_404.pdb
REMARK  8 active torsions:
REMARK  status: ('A' for Active; 'I' for Inactive)
REMARK    1  A    between atoms: C1_1  and  C2_2
REMARK    2  A    between atoms: C2_2  and  C3_3
REMARK    3  A    between atoms: C2_2  and  C4_4
REMARK    4  A    between atoms: C7_9  and  N2_10
REMARK    5  A    between atoms: C8_11  and  C9_13
REMARK    6  A    between atoms: N3_15  and  C11_16
REMARK    7  A    between atoms: C12_18  and  C13_19
REMARK    8  A    between atoms: C17_23  and  C18_24
REMARK                            x       y       z     vdW  Elec       q    Type
REMARK                         _______ _______ _______ _____ _____    ______ ____
ROOT
ATOM      1  N2  UNL     1       1.087  -0.345  -0.328  0.00  0.00    -0.308 N 
ATOM      2  C8  UNL     1       1.998  -1.449  -0.419  0.00  0.00    +0.248 C 
ATOM      3  O2  UNL     1       1.566  -2.597  -0.713  0.00  0.00    -0.270 OA
ATOM      4  H13 UNL     1       1.356   0.474   0.261  0.00  0.00    +0.149 HD
ENDROOT
BRANCH   1  10
ATOM      5  C4  UNL     1      -4.415   0.850  -0.601  0.00  0.00    +0.218 C 
ATOM      6  O1  UNL     1      -5.157   0.802  -1.619  0.00  0.00    -0.275 OA
ATOM      7  N1  UNL     1      -3.065   0.363  -0.693  0.00  0.00    -0.298 N 
ATOM      8  C5  UNL     1      -2.216   0.879  -1.774  0.00  0.00    +0.110 C 
ATOM      9  C6  UNL     1      -0.756   0.933  -1.323  0.00  0.00    +0.041 C 
ATOM     10  C7  UNL     1      -0.299  -0.433  -0.791  0.00  0.00    +0.076 C 
ATOM     11  C16 UNL     1      -1.204  -0.885   0.368  0.00  0.00    +0.044 C 
ATOM     12  C17 UNL     1      -2.696  -0.895  -0.022  0.00  0.00    +0.075 C 
ATOM     13  C18 UNL     1      -3.058  -2.100  -0.901  0.00  0.00    +0.028 C 
BRANCH   5  15
ATOM     14  C1  UNL     1      -3.856   1.970   1.600  0.00  0.00    +0.017 C 
ATOM     15  C2  UNL     1      -4.963   1.451   0.673  0.00  0.00    +0.069 C 
ATOM     16  C3  UNL     1      -5.877   0.460   1.401  0.00  0.00    +0.017 C 
ENDBRANCH   5  15
ENDBRANCH   1  10
BRANCH   2  17
ATOM     17  C9  UNL     1       3.438  -1.274  -0.147  0.00  0.00    +0.077 A 
ATOM     18  C10 UNL     1       4.327  -2.280   0.176  0.00  0.00    +0.121 A 
ATOM     19  N3  UNL     1       5.555  -1.740   0.278  0.00  0.00    -0.273 N 
ATOM     20  C11 UNL     1       6.788  -2.473   0.530  0.00  0.00    +0.172 C 
ATOM     21  N4  UNL     1       5.509  -0.447   0.000  0.00  0.00    -0.175 NA
ATOM     22  C12 UNL     1       4.222  -0.128  -0.248  0.00  0.00    +0.078 A 
BRANCH  22  23
ATOM     23  C13 UNL     1       3.770   1.232  -0.704  0.00  0.00    +0.040 C 
ATOM     24  C14 UNL     1       4.711   2.390  -0.393  0.00  0.00    +0.010 C 
ATOM     25  C15 UNL     1       3.452   2.193   0.432  0.00  0.00    +0.010 C 
ENDBRANCH  22  23
ENDBRANCH   2  17
TORSDOF 4
