MODEL 1
REMARK VINA RESULT:    -6.559      0.000      0.000
REMARK INTER + INTRA:          -8.978
REMARK INTER:                  -8.284
REMARK INTRA:                  -0.694
REMARK UNBOUND:                -0.694
REMARK  Name = /home/qwerty/github/datacon2025hack/step_04_hit_selection/docking/ligands/lig_197.pdb
REMARK  6 active torsions:
REMARK  status: ('A' for Active; 'I' for Inactive)
REMARK    1  A    between atoms: C1_1  and  O1_2
REMARK    2  A    between atoms: O1_2  and  C2_3
REMARK    3  A    between atoms: C2_3  and  C3_5
REMARK    4  A    between atoms: C6_8  and  N1_9
REMARK    5  A    between atoms: N1_9  and  C7_10
REMARK    6  A    between atoms: C16_22  and  N4_23
REMARK                            x       y       z     vdW  Elec       q    Type
REMARK                         _______ _______ _______ _____ _____    ______ ____
ROOT
ATOM      1  N1  UNL     1       9.371  13.259  29.683  0.00  0.00    -0.314 N 
ATOM      2  H6  UNL     1       8.590  13.944  29.806  0.00  0.00    +0.152 HD
ENDROOT
BRANCH   1   3
ATOM      3  C7  UNL     1      10.678  13.778  29.385  0.00  0.00    +0.032 A 
ATOM      4  C8  UNL     1      11.539  14.119  30.437  0.00  0.00    +0.025 A 
ATOM      5  C9  UNL     1      12.803  14.653  30.173  0.00  0.00    +0.025 A 
ATOM      6  C10 UNL     1      13.220  14.863  28.852  0.00  0.00    +0.040 A 
ATOM      7  C11 UNL     1      12.357  14.541  27.785  0.00  0.00    -0.007 A 
ATOM      8  C12 UNL     1      11.084  14.019  28.060  0.00  0.00    +0.030 A 
ATOM      9  C13 UNL     1      12.735  14.843  26.352  0.00  0.00    +0.143 C 
ATOM     10  N2  UNL     1      14.173  15.048  26.174  0.00  0.00    -0.295 N 
ATOM     11  C14 UNL     1      15.015  15.453  27.255  0.00  0.00    +0.304 C 
ATOM     12  O3  UNL     1      16.191  15.844  27.030  0.00  0.00    -0.252 OA
ATOM     13  N3  UNL     1      14.525  15.393  28.592  0.00  0.00    -0.269 N 
ATOM     14  H12 UNL     1      14.554  15.070  25.202  0.00  0.00    +0.151 HD
ATOM     15  H13 UNL     1      15.146  15.681  29.382  0.00  0.00    +0.156 HD
ENDBRANCH   1   3
BRANCH   1  19
ATOM     16  C3  UNL     1       8.534   9.095  30.037  0.00  0.00    +0.080 A 
ATOM     17  C4  UNL     1       9.776   9.623  30.427  0.00  0.00    +0.018 A 
ATOM     18  C5  UNL     1      10.039  10.989  30.312  0.00  0.00    +0.024 A 
ATOM     19  C6  UNL     1       9.064  11.861  29.820  0.00  0.00    +0.033 A 
ATOM     20  C15 UNL     1       7.820  11.344  29.423  0.00  0.00    +0.046 A 
ATOM     21  C16 UNL     1       7.533   9.975  29.550  0.00  0.00    +0.040 A 
BRANCH  21  22
ATOM     22  N4  UNL     1       6.212   9.520  29.228  0.00  0.00    -0.357 N 
ATOM     23  H15 UNL     1       6.075   8.707  28.589  0.00  0.00    +0.142 HD
ATOM     24  H16 UNL     1       5.361  10.058  29.498  0.00  0.00    +0.142 HD
ENDBRANCH  21  22
BRANCH  16  25
ATOM     25  C2  UNL     1       8.344   7.629  30.112  0.00  0.00    +0.341 C 
ATOM     26  O2  UNL     1       9.303   6.846  29.866  0.00  0.00    -0.245 OA
BRANCH  25  28
ATOM     27  C1  UNL     1       6.614   5.858  30.067  0.00  0.00    +0.280 C 
ATOM     28  O1  UNL     1       7.106   7.115  30.515  0.00  0.00    -0.464 OA
ENDBRANCH  25  28
ENDBRANCH  16  25
ENDBRANCH   1  19
TORSDOF 5
ENDMDL
MODEL 2
REMARK VINA RESULT:    -6.509     13.380     14.382
REMARK INTER + INTRA:          -8.915
REMARK INTER:                  -8.215
REMARK INTRA:                  -0.700
REMARK UNBOUND:                -0.694
REMARK  Name = /home/qwerty/github/datacon2025hack/step_04_hit_selection/docking/ligands/lig_197.pdb
REMARK  6 active torsions:
REMARK  status: ('A' for Active; 'I' for Inactive)
REMARK    1  A    between atoms: C1_1  and  O1_2
REMARK    2  A    between atoms: O1_2  and  C2_3
REMARK    3  A    between atoms: C2_3  and  C3_5
REMARK    4  A    between atoms: C6_8  and  N1_9
REMARK    5  A    between atoms: N1_9  and  C7_10
REMARK    6  A    between atoms: C16_22  and  N4_23
REMARK                            x       y       z     vdW  Elec       q    Type
REMARK                         _______ _______ _______ _____ _____    ______ ____
ROOT
ATOM      1  N1  UNL     1      21.504   0.903  28.268  0.00  0.00    -0.314 N 
ATOM      2  H6  UNL     1      22.240   0.161  28.304  0.00  0.00    +0.152 HD
ENDROOT
BRANCH   1   3
ATOM      3  C7  UNL     1      21.487   1.776  27.126  0.00  0.00    +0.032 A 
ATOM      4  C8  UNL     1      20.703   1.440  26.014  0.00  0.00    +0.025 A 
ATOM      5  C9  UNL     1      20.693   2.257  24.881  0.00  0.00    +0.025 A 
ATOM      6  C10 UNL     1      21.476   3.418  24.839  0.00  0.00    +0.040 A 
ATOM      7  C11 UNL     1      22.284   3.758  25.943  0.00  0.00    -0.007 A 
ATOM      8  C12 UNL     1      22.298   2.924  27.071  0.00  0.00    +0.030 A 
ATOM      9  C13 UNL     1      23.214   4.950  25.897  0.00  0.00    +0.143 C 
ATOM     10  N2  UNL     1      22.860   5.908  24.849  0.00  0.00    -0.295 N 
ATOM     11  C14 UNL     1      22.107   5.520  23.697  0.00  0.00    +0.304 C 
ATOM     12  O3  UNL     1      22.015   6.297  22.711  0.00  0.00    -0.252 OA
ATOM     13  N3  UNL     1      21.444   4.259  23.680  0.00  0.00    -0.269 N 
ATOM     14  H12 UNL     1      23.317   6.847  24.860  0.00  0.00    +0.151 HD
ATOM     15  H13 UNL     1      20.887   3.982  22.840  0.00  0.00    +0.156 HD
ENDBRANCH   1   3
BRANCH   1  19
ATOM     16  C3  UNL     1      18.761   1.233  31.513  0.00  0.00    +0.080 A 
ATOM     17  C4  UNL     1      18.459   1.765  30.248  0.00  0.00    +0.018 A 
ATOM     18  C5  UNL     1      19.362   1.649  29.190  0.00  0.00    +0.024 A 
ATOM     19  C6  UNL     1      20.578   0.983  29.365  0.00  0.00    +0.033 A 
ATOM     20  C15 UNL     1      20.892   0.450  30.626  0.00  0.00    +0.046 A 
ATOM     21  C16 UNL     1      19.987   0.544  31.695  0.00  0.00    +0.040 A 
BRANCH  21  22
ATOM     22  N4  UNL     1      20.316  -0.110  32.929  0.00  0.00    -0.357 N 
ATOM     23  H15 UNL     1      21.001  -0.897  32.943  0.00  0.00    +0.142 HD
ATOM     24  H16 UNL     1      19.791   0.075  33.810  0.00  0.00    +0.142 HD
ENDBRANCH  21  22
BRANCH  16  25
ATOM     25  C2  UNL     1      17.796   1.457  32.613  0.00  0.00    +0.341 C 
ATOM     26  O2  UNL     1      17.249   2.584  32.764  0.00  0.00    -0.245 OA
BRANCH  25  28
ATOM     27  C1  UNL     1      17.345   0.529  34.864  0.00  0.00    +0.280 C 
ATOM     28  O1  UNL     1      17.450   0.392  33.451  0.00  0.00    -0.464 OA
ENDBRANCH  25  28
ENDBRANCH  16  25
ENDBRANCH   1  19
TORSDOF 5
ENDMDL
MODEL 3
REMARK VINA RESULT:    -6.478      2.074      8.614
REMARK INTER + INTRA:          -8.877
REMARK INTER:                  -8.175
REMARK INTRA:                  -0.702
REMARK UNBOUND:                -0.694
REMARK  Name = /home/qwerty/github/datacon2025hack/step_04_hit_selection/docking/ligands/lig_197.pdb
REMARK  6 active torsions:
REMARK  status: ('A' for Active; 'I' for Inactive)
REMARK    1  A    between atoms: C1_1  and  O1_2
REMARK    2  A    between atoms: O1_2  and  C2_3
REMARK    3  A    between atoms: C2_3  and  C3_5
REMARK    4  A    between atoms: C6_8  and  N1_9
REMARK    5  A    between atoms: N1_9  and  C7_10
REMARK    6  A    between atoms: C16_22  and  N4_23
REMARK                            x       y       z     vdW  Elec       q    Type
REMARK                         _______ _______ _______ _____ _____    ______ ____
ROOT
ATOM      1  N1  UNL     1       8.570  12.220  27.538  0.00  0.00    -0.314 N 
ATOM      2  H6  UNL     1       7.822  12.936  27.389  0.00  0.00    +0.152 HD
ENDROOT
BRANCH   1   3
ATOM      3  C7  UNL     1       8.161  10.872  27.822  0.00  0.00    +0.032 A 
ATOM      4  C8  UNL     1       7.922   9.987  26.762  0.00  0.00    +0.025 A 
ATOM      5  C9  UNL     1       7.495   8.680  27.013  0.00  0.00    +0.025 A 
ATOM      6  C10 UNL     1       7.291   8.243  28.328  0.00  0.00    +0.040 A 
ATOM      7  C11 UNL     1       7.509   9.128  29.402  0.00  0.00    -0.007 A 
ATOM      8  C12 UNL     1       7.924  10.443  29.141  0.00  0.00    +0.030 A 
ATOM      9  C13 UNL     1       7.207   8.722  30.828  0.00  0.00    +0.143 C 
ATOM     10  N2  UNL     1       7.124   7.271  31.000  0.00  0.00    -0.295 N 
ATOM     11  C14 UNL     1       6.821   6.399  29.909  0.00  0.00    +0.304 C 
ATOM     12  O3  UNL     1       6.530   5.193  30.125  0.00  0.00    -0.252 OA
ATOM     13  N3  UNL     1       6.871   6.896  28.574  0.00  0.00    -0.269 N 
ATOM     14  H12 UNL     1       7.112   6.887  31.971  0.00  0.00    +0.151 HD
ATOM     15  H13 UNL     1       6.658   6.254  27.777  0.00  0.00    +0.156 HD
ENDBRANCH   1   3
BRANCH   1  19
ATOM     16  C3  UNL     1      12.652  13.430  27.323  0.00  0.00    +0.080 A 
ATOM     17  C4  UNL     1      12.257  12.131  26.960  0.00  0.00    +0.018 A 
ATOM     18  C5  UNL     1      10.918  11.745  27.029  0.00  0.00    +0.024 A 
ATOM     19  C6  UNL     1       9.939  12.651  27.446  0.00  0.00    +0.033 A 
ATOM     20  C15 UNL     1      10.322  13.951  27.816  0.00  0.00    +0.046 A 
ATOM     21  C16 UNL     1      11.662  14.360  27.735  0.00  0.00    +0.040 A 
BRANCH  21  22
ATOM     22  N4  UNL     1      11.979  15.728  28.024  0.00  0.00    -0.357 N 
ATOM     23  H15 UNL     1      12.131  16.410  27.248  0.00  0.00    +0.142 HD
ATOM     24  H16 UNL     1      12.204  16.052  28.988  0.00  0.00    +0.142 HD
ENDBRANCH  21  22
BRANCH  16  25
ATOM     25  C2  UNL     1      14.096  13.753  27.302  0.00  0.00    +0.341 C 
ATOM     26  O2  UNL     1      14.952  12.875  27.599  0.00  0.00    -0.245 OA
BRANCH  25  28
ATOM     27  C1  UNL     1      15.599  15.711  27.500  0.00  0.00    +0.280 C 
ATOM     28  O1  UNL     1      14.510  15.025  26.893  0.00  0.00    -0.464 OA
ENDBRANCH  25  28
ENDBRANCH  16  25
ENDBRANCH   1  19
TORSDOF 5
ENDMDL
MODEL 4
REMARK VINA RESULT:    -6.396      2.296      8.412
REMARK INTER + INTRA:          -8.773
REMARK INTER:                  -8.325
REMARK INTRA:                  -0.448
REMARK UNBOUND:                -0.694
REMARK  Name = /home/qwerty/github/datacon2025hack/step_04_hit_selection/docking/ligands/lig_197.pdb
REMARK  6 active torsions:
REMARK  status: ('A' for Active; 'I' for Inactive)
REMARK    1  A    between atoms: C1_1  and  O1_2
REMARK    2  A    between atoms: O1_2  and  C2_3
REMARK    3  A    between atoms: C2_3  and  C3_5
REMARK    4  A    between atoms: C6_8  and  N1_9
REMARK    5  A    between atoms: N1_9  and  C7_10
REMARK    6  A    between atoms: C16_22  and  N4_23
REMARK                            x       y       z     vdW  Elec       q    Type
REMARK                         _______ _______ _______ _____ _____    ______ ____
ROOT
ATOM      1  N1  UNL     1       8.352  12.287  27.890  0.00  0.00    -0.314 N 
ATOM      2  H6  UNL     1       7.727  12.875  27.292  0.00  0.00    +0.152 HD
ENDROOT
BRANCH   1   3
ATOM      3  C7  UNL     1       8.009  10.901  28.060  0.00  0.00    +0.032 A 
ATOM      4  C8  UNL     1       7.936  10.068  26.936  0.00  0.00    +0.025 A 
ATOM      5  C9  UNL     1       7.576   8.725  27.073  0.00  0.00    +0.025 A 
ATOM      6  C10 UNL     1       7.275   8.198  28.336  0.00  0.00    +0.040 A 
ATOM      7  C11 UNL     1       7.327   9.030  29.472  0.00  0.00    -0.007 A 
ATOM      8  C12 UNL     1       7.675  10.381  29.323  0.00  0.00    +0.030 A 
ATOM      9  C13 UNL     1       6.917   8.522  30.836  0.00  0.00    +0.143 C 
ATOM     10  N2  UNL     1       6.916   7.061  30.923  0.00  0.00    -0.295 N 
ATOM     11  C14 UNL     1       6.780   6.238  29.762  0.00  0.00    +0.304 C 
ATOM     12  O3  UNL     1       6.552   5.006  29.883  0.00  0.00    -0.252 OA
ATOM     13  N3  UNL     1       6.925   6.816  28.467  0.00  0.00    -0.269 N 
ATOM     14  H12 UNL     1       6.836   6.620  31.866  0.00  0.00    +0.151 HD
ATOM     15  H13 UNL     1       6.835   6.210  27.620  0.00  0.00    +0.156 HD
ENDBRANCH   1   3
BRANCH   1  19
ATOM     16  C3  UNL     1      11.689  14.191  29.736  0.00  0.00    +0.080 A 
ATOM     17  C4  UNL     1      10.971  13.180  30.397  0.00  0.00    +0.018 A 
ATOM     18  C5  UNL     1       9.882  12.559  29.783  0.00  0.00    +0.024 A 
ATOM     19  C6  UNL     1       9.496  12.921  28.489  0.00  0.00    +0.033 A 
ATOM     20  C15 UNL     1      10.203  13.933  27.820  0.00  0.00    +0.046 A 
ATOM     21  C16 UNL     1      11.311  14.555  28.418  0.00  0.00    +0.040 A 
BRANCH  21  22
ATOM     22  N4  UNL     1      12.059  15.506  27.648  0.00  0.00    -0.357 N 
ATOM     23  H15 UNL     1      12.211  16.474  28.009  0.00  0.00    +0.142 HD
ATOM     24  H16 UNL     1      12.348  15.317  26.665  0.00  0.00    +0.142 HD
ENDBRANCH  21  22
BRANCH  16  25
ATOM     25  C2  UNL     1      12.783  14.864  30.471  0.00  0.00    +0.341 C 
ATOM     26  O2  UNL     1      12.617  15.239  31.664  0.00  0.00    -0.245 OA
BRANCH  25  28
ATOM     27  C1  UNL     1      15.010  14.002  29.815  0.00  0.00    +0.280 C 
ATOM     28  O1  UNL     1      14.027  15.030  29.851  0.00  0.00    -0.464 OA
ENDBRANCH  25  28
ENDBRANCH  16  25
ENDBRANCH   1  19
TORSDOF 5
ENDMDL
MODEL 5
REMARK VINA RESULT:    -6.324     13.049     14.819
REMARK INTER + INTRA:          -8.681
REMARK INTER:                  -7.964
REMARK INTRA:                  -0.717
REMARK UNBOUND:                -0.694
REMARK  Name = /home/qwerty/github/datacon2025hack/step_04_hit_selection/docking/ligands/lig_197.pdb
REMARK  6 active torsions:
REMARK  status: ('A' for Active; 'I' for Inactive)
REMARK    1  A    between atoms: C1_1  and  O1_2
REMARK    2  A    between atoms: O1_2  and  C2_3
REMARK    3  A    between atoms: C2_3  and  C3_5
REMARK    4  A    between atoms: C6_8  and  N1_9
REMARK    5  A    between atoms: N1_9  and  C7_10
REMARK    6  A    between atoms: C16_22  and  N4_23
REMARK                            x       y       z     vdW  Elec       q    Type
REMARK                         _______ _______ _______ _____ _____    ______ ____
ROOT
ATOM      1  N1  UNL     1      15.750   2.215  19.604  0.00  0.00    -0.314 N 
ATOM      2  H6  UNL     1      16.354   2.446  18.783  0.00  0.00    +0.152 HD
ENDROOT
BRANCH   1   3
ATOM      3  C7  UNL     1      16.176   1.153  20.474  0.00  0.00    +0.032 A 
ATOM      4  C8  UNL     1      16.396  -0.125  19.943  0.00  0.00    +0.025 A 
ATOM      5  C9  UNL     1      16.782  -1.180  20.773  0.00  0.00    +0.025 A 
ATOM      6  C10 UNL     1      16.945  -0.975  22.149  0.00  0.00    +0.040 A 
ATOM      7  C11 UNL     1      16.710   0.302  22.699  0.00  0.00    -0.007 A 
ATOM      8  C12 UNL     1      16.308   1.352  21.860  0.00  0.00    +0.030 A 
ATOM      9  C13 UNL     1      16.782   0.538  24.192  0.00  0.00    +0.143 C 
ATOM     10  N2  UNL     1      17.529  -0.504  24.897  0.00  0.00    -0.295 N 
ATOM     11  C14 UNL     1      17.686  -1.817  24.355  0.00  0.00    +0.304 C 
ATOM     12  O3  UNL     1      18.127  -2.751  25.075  0.00  0.00    -0.252 OA
ATOM     13  N3  UNL     1      17.359  -2.058  22.988  0.00  0.00    -0.269 N 
ATOM     14  H12 UNL     1      17.798  -0.334  25.892  0.00  0.00    +0.151 HD
ATOM     15  H13 UNL     1      17.484  -3.018  22.591  0.00  0.00    +0.156 HD
ENDBRANCH   1   3
BRANCH   1  19
ATOM     16  C3  UNL     1      12.226   4.537  20.204  0.00  0.00    +0.080 A 
ATOM     17  C4  UNL     1      13.415   5.125  19.740  0.00  0.00    +0.018 A 
ATOM     18  C5  UNL     1      14.562   4.356  19.542  0.00  0.00    +0.024 A 
ATOM     19  C6  UNL     1      14.545   2.980  19.787  0.00  0.00    +0.033 A 
ATOM     20  C15 UNL     1      13.364   2.382  20.256  0.00  0.00    +0.046 A 
ATOM     21  C16 UNL     1      12.197   3.139  20.443  0.00  0.00    +0.040 A 
BRANCH  21  22
ATOM     22  N4  UNL     1      10.993   2.458  20.821  0.00  0.00    -0.357 N 
ATOM     23  H15 UNL     1      10.270   2.944  21.397  0.00  0.00    +0.142 HD
ATOM     24  H16 UNL     1      10.863   1.436  20.663  0.00  0.00    +0.142 HD
ENDBRANCH  21  22
BRANCH  16  25
ATOM     25  C2  UNL     1      11.067   5.419  20.468  0.00  0.00    +0.341 C 
ATOM     26  O2  UNL     1      11.243   6.616  20.826  0.00  0.00    -0.245 OA
BRANCH  25  28
ATOM     27  C1  UNL     1       8.693   5.220  21.141  0.00  0.00    +0.280 C 
ATOM     28  O1  UNL     1       9.772   4.934  20.259  0.00  0.00    -0.464 OA
ENDBRANCH  25  28
ENDBRANCH  16  25
ENDBRANCH   1  19
TORSDOF 5
ENDMDL
MODEL 6
REMARK VINA RESULT:    -6.307      9.321     10.876
REMARK INTER + INTRA:          -8.661
REMARK INTER:                  -7.990
REMARK INTRA:                  -0.671
REMARK UNBOUND:                -0.694
REMARK  Name = /home/qwerty/github/datacon2025hack/step_04_hit_selection/docking/ligands/lig_197.pdb
REMARK  6 active torsions:
REMARK  status: ('A' for Active; 'I' for Inactive)
REMARK    1  A    between atoms: C1_1  and  O1_2
REMARK    2  A    between atoms: O1_2  and  C2_3
REMARK    3  A    between atoms: C2_3  and  C3_5
REMARK    4  A    between atoms: C6_8  and  N1_9
REMARK    5  A    between atoms: N1_9  and  C7_10
REMARK    6  A    between atoms: C16_22  and  N4_23
REMARK                            x       y       z     vdW  Elec       q    Type
REMARK                         _______ _______ _______ _____ _____    ______ ____
ROOT
ATOM      1  N1  UNL     1      17.175  13.105  36.762  0.00  0.00    -0.314 N 
ATOM      2  H6  UNL     1      17.425  14.051  37.132  0.00  0.00    +0.152 HD
ENDROOT
BRANCH   1   3
ATOM      3  C7  UNL     1      18.209  12.107  36.717  0.00  0.00    +0.032 A 
ATOM      4  C8  UNL     1      19.375  12.357  35.982  0.00  0.00    +0.025 A 
ATOM      5  C9  UNL     1      20.381  11.390  35.900  0.00  0.00    +0.025 A 
ATOM      6  C10 UNL     1      20.229  10.155  36.544  0.00  0.00    +0.040 A 
ATOM      7  C11 UNL     1      19.053   9.885  37.272  0.00  0.00    -0.007 A 
ATOM      8  C12 UNL     1      18.042  10.856  37.337  0.00  0.00    +0.030 A 
ATOM      9  C13 UNL     1      18.814   8.529  37.899  0.00  0.00    +0.143 C 
ATOM     10  N2  UNL     1      20.043   7.752  38.061  0.00  0.00    -0.295 N 
ATOM     11  C14 UNL     1      21.198   7.992  37.255  0.00  0.00    +0.304 C 
ATOM     12  O3  UNL     1      22.151   7.169  37.253  0.00  0.00    -0.252 OA
ATOM     13  N3  UNL     1      21.274   9.179  36.468  0.00  0.00    -0.269 N 
ATOM     14  H12 UNL     1      20.012   6.893  38.654  0.00  0.00    +0.151 HD
ATOM     15  H13 UNL     1      22.124   9.357  35.887  0.00  0.00    +0.156 HD
ENDBRANCH   1   3
BRANCH   1  19
ATOM     16  C3  UNL     1      13.149  12.563  35.470  0.00  0.00    +0.080 A 
ATOM     17  C4  UNL     1      14.092  13.217  34.659  0.00  0.00    +0.018 A 
ATOM     18  C5  UNL     1      15.409  13.387  35.089  0.00  0.00    +0.024 A 
ATOM     19  C6  UNL     1      15.820  12.892  36.329  0.00  0.00    +0.033 A 
ATOM     20  C15 UNL     1      14.886  12.240  37.151  0.00  0.00    +0.046 A 
ATOM     21  C16 UNL     1      13.562  12.046  36.725  0.00  0.00    +0.040 A 
BRANCH  21  22
ATOM     22  N4  UNL     1      12.680  11.282  37.559  0.00  0.00    -0.357 N 
ATOM     23  H15 UNL     1      12.416  10.307  37.294  0.00  0.00    +0.142 HD
ATOM     24  H16 UNL     1      12.171  11.708  38.363  0.00  0.00    +0.142 HD
ENDBRANCH  21  22
BRANCH  16  25
ATOM     25  C2  UNL     1      11.751  12.485  34.992  0.00  0.00    +0.341 C 
ATOM     26  O2  UNL     1      11.217  11.366  34.757  0.00  0.00    -0.245 OA
BRANCH  25  28
ATOM     27  C1  UNL     1      10.139  14.141  35.880  0.00  0.00    +0.280 C 
ATOM     28  O1  UNL     1      11.003  13.660  34.858  0.00  0.00    -0.464 OA
ENDBRANCH  25  28
ENDBRANCH  16  25
ENDBRANCH   1  19
TORSDOF 5
ENDMDL
MODEL 7
REMARK VINA RESULT:    -6.307     12.034     13.397
REMARK INTER + INTRA:          -8.660
REMARK INTER:                  -7.908
REMARK INTRA:                  -0.752
REMARK UNBOUND:                -0.694
REMARK  Name = /home/qwerty/github/datacon2025hack/step_04_hit_selection/docking/ligands/lig_197.pdb
REMARK  6 active torsions:
REMARK  status: ('A' for Active; 'I' for Inactive)
REMARK    1  A    between atoms: C1_1  and  O1_2
REMARK    2  A    between atoms: O1_2  and  C2_3
REMARK    3  A    between atoms: C2_3  and  C3_5
REMARK    4  A    between atoms: C6_8  and  N1_9
REMARK    5  A    between atoms: N1_9  and  C7_10
REMARK    6  A    between atoms: C16_22  and  N4_23
REMARK                            x       y       z     vdW  Elec       q    Type
REMARK                         _______ _______ _______ _____ _____    ______ ____
ROOT
ATOM      1  N1  UNL     1      19.773   7.526  38.220  0.00  0.00    -0.314 N 
ATOM      2  H6  UNL     1      19.696   7.059  39.153  0.00  0.00    +0.152 HD
ENDROOT
BRANCH   1   3
ATOM      3  C7  UNL     1      20.880   7.164  37.378  0.00  0.00    +0.032 A 
ATOM      4  C8  UNL     1      22.138   6.942  37.953  0.00  0.00    +0.025 A 
ATOM      5  C9  UNL     1      23.236   6.618  37.152  0.00  0.00    +0.025 A 
ATOM      6  C10 UNL     1      23.093   6.521  35.762  0.00  0.00    +0.040 A 
ATOM      7  C11 UNL     1      21.837   6.760  35.169  0.00  0.00    -0.007 A 
ATOM      8  C12 UNL     1      20.744   7.099  35.980  0.00  0.00    +0.030 A 
ATOM      9  C13 UNL     1      21.667   6.758  33.665  0.00  0.00    +0.143 C 
ATOM     10  N2  UNL     1      22.754   6.068  32.970  0.00  0.00    -0.295 N 
ATOM     11  C14 UNL     1      24.045   5.909  33.562  0.00  0.00    +0.304 C 
ATOM     12  O3  UNL     1      25.018   5.523  32.862  0.00  0.00    -0.252 OA
ATOM     13  N3  UNL     1      24.221   6.170  34.952  0.00  0.00    -0.269 N 
ATOM     14  H12 UNL     1      22.633   5.846  31.957  0.00  0.00    +0.151 HD
ATOM     15  H13 UNL     1      25.165   6.044  35.384  0.00  0.00    +0.156 HD
ENDBRANCH   1   3
BRANCH   1  19
ATOM     16  C3  UNL     1      16.760  10.326  37.101  0.00  0.00    +0.080 A 
ATOM     17  C4  UNL     1      16.442   8.985  37.376  0.00  0.00    +0.018 A 
ATOM     18  C5  UNL     1      17.434   8.077  37.746  0.00  0.00    +0.024 A 
ATOM     19  C6  UNL     1      18.764   8.489  37.867  0.00  0.00    +0.033 A 
ATOM     20  C15 UNL     1      19.095   9.825  37.590  0.00  0.00    +0.046 A 
ATOM     21  C16 UNL     1      18.106  10.755  37.233  0.00  0.00    +0.040 A 
BRANCH  21  22
ATOM     22  N4  UNL     1      18.486  12.127  37.066  0.00  0.00    -0.357 N 
ATOM     23  H15 UNL     1      19.073  12.417  36.253  0.00  0.00    +0.142 HD
ATOM     24  H16 UNL     1      18.316  12.843  37.804  0.00  0.00    +0.142 HD
ENDBRANCH  21  22
BRANCH  16  25
ATOM     25  C2  UNL     1      15.676  11.221  36.638  0.00  0.00    +0.341 C 
ATOM     26  O2  UNL     1      14.914  10.869  35.695  0.00  0.00    -0.245 OA
BRANCH  25  28
ATOM     27  C1  UNL     1      14.445  13.353  36.902  0.00  0.00    +0.280 C 
ATOM     28  O1  UNL     1      15.462  12.438  37.294  0.00  0.00    -0.464 OA
ENDBRANCH  25  28
ENDBRANCH  16  25
ENDBRANCH   1  19
TORSDOF 5
ENDMDL
MODEL 8
REMARK VINA RESULT:    -6.247     14.022     16.133
REMARK INTER + INTRA:          -8.585
REMARK INTER:                  -7.877
REMARK INTRA:                  -0.708
REMARK UNBOUND:                -0.694
REMARK  Name = /home/qwerty/github/datacon2025hack/step_04_hit_selection/docking/ligands/lig_197.pdb
REMARK  6 active torsions:
REMARK  status: ('A' for Active; 'I' for Inactive)
REMARK    1  A    between atoms: C1_1  and  O1_2
REMARK    2  A    between atoms: O1_2  and  C2_3
REMARK    3  A    between atoms: C2_3  and  C3_5
REMARK    4  A    between atoms: C6_8  and  N1_9
REMARK    5  A    between atoms: N1_9  and  C7_10
REMARK    6  A    between atoms: C16_22  and  N4_23
REMARK                            x       y       z     vdW  Elec       q    Type
REMARK                         _______ _______ _______ _____ _____    ______ ____
ROOT
ATOM      1  N1  UNL     1      22.224   0.990  29.423  0.00  0.00    -0.314 N 
ATOM      2  H6  UNL     1      23.085   0.401  29.492  0.00  0.00    +0.152 HD
ENDROOT
BRANCH   1   3
ATOM      3  C7  UNL     1      21.432   1.161  30.610  0.00  0.00    +0.032 A 
ATOM      4  C8  UNL     1      21.810   2.123  31.557  0.00  0.00    +0.025 A 
ATOM      5  C9  UNL     1      21.073   2.288  32.732  0.00  0.00    +0.025 A 
ATOM      6  C10 UNL     1      19.953   1.485  32.983  0.00  0.00    +0.040 A 
ATOM      7  C11 UNL     1      19.572   0.501  32.048  0.00  0.00    -0.007 A 
ATOM      8  C12 UNL     1      20.327   0.333  30.877  0.00  0.00    +0.030 A 
ATOM      9  C13 UNL     1      18.428  -0.447  32.329  0.00  0.00    +0.143 C 
ATOM     10  N2  UNL     1      17.530   0.040  33.377  0.00  0.00    -0.295 N 
ATOM     11  C14 UNL     1      17.963   0.978  34.364  0.00  0.00    +0.304 C 
ATOM     12  O3  UNL     1      17.253   1.202  35.379  0.00  0.00    -0.252 OA
ATOM     13  N3  UNL     1      19.193   1.675  34.182  0.00  0.00    -0.269 N 
ATOM     14  H12 UNL     1      16.613  -0.443  33.508  0.00  0.00    +0.151 HD
ATOM     15  H13 UNL     1      19.503   2.368  34.901  0.00  0.00    +0.156 HD
ENDBRANCH   1   3
BRANCH   1  19
ATOM     16  C3  UNL     1      21.294   2.632  25.601  0.00  0.00    +0.080 A 
ATOM     17  C4  UNL     1      20.455   1.684  26.210  0.00  0.00    +0.018 A 
ATOM     18  C5  UNL     1      20.765   1.155  27.463  0.00  0.00    +0.024 A 
ATOM     19  C6  UNL     1      21.911   1.573  28.146  0.00  0.00    +0.033 A 
ATOM     20  C15 UNL     1      22.760   2.517  27.546  0.00  0.00    +0.046 A 
ATOM     21  C16 UNL     1      22.452   3.072  26.294  0.00  0.00    +0.040 A 
BRANCH  21  22
ATOM     22  N4  UNL     1      23.298   4.108  25.778  0.00  0.00    -0.357 N 
ATOM     23  H15 UNL     1      24.336   4.027  25.850  0.00  0.00    +0.142 HD
ATOM     24  H16 UNL     1      22.917   5.022  25.451  0.00  0.00    +0.142 HD
ENDBRANCH  21  22
BRANCH  16  25
ATOM     25  C2  UNL     1      20.951   3.097  24.239  0.00  0.00    +0.341 C 
ATOM     26  O2  UNL     1      20.641   2.267  23.339  0.00  0.00    -0.245 OA
BRANCH  25  28
ATOM     27  C1  UNL     1      21.012   4.995  22.650  0.00  0.00    +0.280 C 
ATOM     28  O1  UNL     1      20.915   4.469  23.969  0.00  0.00    -0.464 OA
ENDBRANCH  25  28
ENDBRANCH  16  25
ENDBRANCH   1  19
TORSDOF 5
ENDMDL
MODEL 9
REMARK VINA RESULT:    -6.225      5.592      6.926
REMARK INTER + INTRA:          -8.557
REMARK INTER:                  -7.792
REMARK INTRA:                  -0.765
REMARK UNBOUND:                -0.694
REMARK  Name = /home/qwerty/github/datacon2025hack/step_04_hit_selection/docking/ligands/lig_197.pdb
REMARK  6 active torsions:
REMARK  status: ('A' for Active; 'I' for Inactive)
REMARK    1  A    between atoms: C1_1  and  O1_2
REMARK    2  A    between atoms: O1_2  and  C2_3
REMARK    3  A    between atoms: C2_3  and  C3_5
REMARK    4  A    between atoms: C6_8  and  N1_9
REMARK    5  A    between atoms: N1_9  and  C7_10
REMARK    6  A    between atoms: C16_22  and  N4_23
REMARK                            x       y       z     vdW  Elec       q    Type
REMARK                         _______ _______ _______ _____ _____    ______ ____
ROOT
ATOM      1  N1  UNL     1       7.217   9.695  26.140  0.00  0.00    -0.314 N 
ATOM      2  H6  UNL     1       6.273   9.302  26.361  0.00  0.00    +0.152 HD
ENDROOT
BRANCH   1   3
ATOM      3  C7  UNL     1       7.920  10.383  27.189  0.00  0.00    +0.032 A 
ATOM      4  C8  UNL     1       7.937   9.837  28.479  0.00  0.00    +0.025 A 
ATOM      5  C9  UNL     1       8.589  10.501  29.521  0.00  0.00    +0.025 A 
ATOM      6  C10 UNL     1       9.224  11.728  29.289  0.00  0.00    +0.040 A 
ATOM      7  C11 UNL     1       9.199  12.298  28.001  0.00  0.00    -0.007 A 
ATOM      8  C12 UNL     1       8.529  11.630  26.964  0.00  0.00    +0.030 A 
ATOM      9  C13 UNL     1       9.790  13.665  27.735  0.00  0.00    +0.143 C 
ATOM     10  N2  UNL     1      10.736  14.086  28.770  0.00  0.00    -0.295 N 
ATOM     11  C14 UNL     1      10.690  13.552  30.094  0.00  0.00    +0.304 C 
ATOM     12  O3  UNL     1      11.354  14.091  31.018  0.00  0.00    -0.252 OA
ATOM     13  N3  UNL     1       9.905  12.392  30.360  0.00  0.00    -0.269 N 
ATOM     14  H12 UNL     1      11.337  14.919  28.583  0.00  0.00    +0.151 HD
ATOM     15  H13 UNL     1       9.881  11.998  31.328  0.00  0.00    +0.156 HD
ENDBRANCH   1   3
BRANCH   1  19
ATOM     16  C3  UNL     1       8.803   9.166  22.220  0.00  0.00    +0.080 A 
ATOM     17  C4  UNL     1       9.183   8.324  23.278  0.00  0.00    +0.018 A 
ATOM     18  C5  UNL     1       8.655   8.502  24.558  0.00  0.00    +0.024 A 
ATOM     19  C6  UNL     1       7.723   9.513  24.806  0.00  0.00    +0.033 A 
ATOM     20  C15 UNL     1       7.339  10.364  23.757  0.00  0.00    +0.046 A 
ATOM     21  C16 UNL     1       7.848  10.187  22.460  0.00  0.00    +0.040 A 
BRANCH  21  22
ATOM     22  N4  UNL     1       7.341  11.017  21.407  0.00  0.00    -0.357 N 
ATOM     23  H15 UNL     1       7.727  10.938  20.440  0.00  0.00    +0.142 HD
ATOM     24  H16 UNL     1       6.688  11.808  21.592  0.00  0.00    +0.142 HD
ENDBRANCH  21  22
BRANCH  16  25
ATOM     25  C2  UNL     1       9.457   8.975  20.906  0.00  0.00    +0.341 C 
ATOM     26  O2  UNL     1       9.494   7.833  20.370  0.00  0.00    -0.245 OA
BRANCH  25  28
ATOM     27  C1  UNL     1      11.266  10.067  19.615  0.00  0.00    +0.280 C 
ATOM     28  O1  UNL     1       9.984  10.082  20.232  0.00  0.00    -0.464 OA
ENDBRANCH  25  28
ENDBRANCH  16  25
ENDBRANCH   1  19
TORSDOF 5
ENDMDL
