MODEL 1
REMARK VINA RESULT:    -5.805      0.000      0.000
REMARK INTER + INTRA:          -7.568
REMARK INTER:                  -7.163
REMARK INTRA:                  -0.405
REMARK UNBOUND:                -0.405
REMARK  Name = /home/qwerty/github/datacon2025hack/step_04_hit_selection/docking/ligands/lig_436.pdb
REMARK  5 active torsions:
REMARK  status: ('A' for Active; 'I' for Inactive)
REMARK    1  A    between atoms: C1_1  and  C2_2
REMARK    2  A    between atoms: C5_5  and  C6_6
REMARK    3  A    between atoms: C7_8  and  C8_9
REMARK    4  A    between atoms: C8_9  and  N2_10
REMARK    5  A    between atoms: C11_13  and  C12_14
REMARK                            x       y       z     vdW  Elec       q    Type
REMARK                         _______ _______ _______ _____ _____    ______ ____
ROOT
ATOM      1  C6  UNL     1      21.104   5.452  24.196  0.00  0.00    +0.109 A 
ATOM      2  N1  UNL     1      21.718   4.654  25.097  0.00  0.00    -0.243 NA
ATOM      3  C7  UNL     1      21.093   4.659  26.306  0.00  0.00    +0.063 A 
ATOM      4  C14 UNL     1      19.959   5.464  26.379  0.00  0.00    +0.071 A 
ATOM      5  S1  UNL     1      19.752   6.191  24.878  0.00  0.00    -0.075 S 
ENDROOT
BRANCH   1  10
ATOM      6  C1  UNL     1      23.067   6.279  18.802  0.00  0.00    +0.044 C 
ATOM      7  C2  UNL     1      22.541   6.083  20.192  0.00  0.00    -0.050 A 
ATOM      8  C3  UNL     1      23.149   6.733  21.276  0.00  0.00    +0.004 A 
ATOM      9  C4  UNL     1      22.679   6.526  22.576  0.00  0.00    +0.011 A 
ATOM     10  C5  UNL     1      21.602   5.655  22.816  0.00  0.00    +0.007 A 
ATOM     11  C15 UNL     1      21.007   4.993  21.727  0.00  0.00    +0.011 A 
ATOM     12  C16 UNL     1      21.479   5.200  20.428  0.00  0.00    +0.004 A 
ENDBRANCH   1  10
BRANCH   3  13
ATOM     13  C8  UNL     1      21.623   3.871  27.477  0.00  0.00    +0.140 C 
BRANCH  13  14
ATOM     14  N2  UNL     1      22.237   2.574  27.102  0.00  0.00    -0.296 NA
ATOM     15  C9  UNL     1      21.260   1.488  26.942  0.00  0.00    +0.085 C 
ATOM     16  C10 UNL     1      21.307   0.624  28.193  0.00  0.00    +0.029 C 
ATOM     17  C11 UNL     1      22.626   0.966  28.884  0.00  0.00    +0.090 C 
ATOM     18  C13 UNL     1      23.246   2.099  28.059  0.00  0.00    +0.097 C 
BRANCH  17  19
ATOM     19  C12 UNL     1      23.548  -0.223  28.990  0.00  0.00    +0.215 C 
ATOM     20  N3  UNL     1      24.956  -0.034  29.141  0.00  0.00    -0.329 N 
ATOM     21  O1  UNL     1      23.084  -1.393  28.919  0.00  0.00    -0.276 OA
ATOM     22  H13 UNL     1      25.592  -0.860  29.207  0.00  0.00    +0.145 HD
ATOM     23  H14 UNL     1      25.367   0.924  29.181  0.00  0.00    +0.145 HD
ENDBRANCH  17  19
ENDBRANCH  13  14
ENDBRANCH   3  13
TORSDOF 4
ENDMDL
MODEL 2
REMARK VINA RESULT:    -5.763      9.999     11.362
REMARK INTER + INTRA:          -7.516
REMARK INTER:                  -7.124
REMARK INTRA:                  -0.392
REMARK UNBOUND:                -0.405
REMARK  Name = /home/qwerty/github/datacon2025hack/step_04_hit_selection/docking/ligands/lig_436.pdb
REMARK  5 active torsions:
REMARK  status: ('A' for Active; 'I' for Inactive)
REMARK    1  A    between atoms: C1_1  and  C2_2
REMARK    2  A    between atoms: C5_5  and  C6_6
REMARK    3  A    between atoms: C7_8  and  C8_9
REMARK    4  A    between atoms: C8_9  and  N2_10
REMARK    5  A    between atoms: C11_13  and  C12_14
REMARK                            x       y       z     vdW  Elec       q    Type
REMARK                         _______ _______ _______ _____ _____    ______ ____
ROOT
ATOM      1  C6  UNL     1      20.756  13.145  19.776  0.00  0.00    +0.109 A 
ATOM      2  N1  UNL     1      21.499  13.351  20.887  0.00  0.00    -0.243 NA
ATOM      3  C7  UNL     1      22.159  14.540  20.858  0.00  0.00    +0.063 A 
ATOM      4  C14 UNL     1      21.942  15.306  19.715  0.00  0.00    +0.071 A 
ATOM      5  S1  UNL     1      20.896  14.448  18.717  0.00  0.00    -0.075 S 
ENDROOT
BRANCH   1  10
ATOM      6  C1  UNL     1      17.650   8.332  18.870  0.00  0.00    +0.044 C 
ATOM      7  C2  UNL     1      18.459   9.568  19.128  0.00  0.00    -0.050 A 
ATOM      8  C3  UNL     1      17.832  10.748  19.553  0.00  0.00    +0.004 A 
ATOM      9  C4  UNL     1      18.582  11.909  19.764  0.00  0.00    +0.011 A 
ATOM     10  C5  UNL     1      19.970  11.913  19.539  0.00  0.00    +0.007 A 
ATOM     11  C15 UNL     1      20.591  10.732  19.096  0.00  0.00    +0.011 A 
ATOM     12  C16 UNL     1      19.840   9.572  18.886  0.00  0.00    +0.004 A 
ENDBRANCH   1  10
BRANCH   3  13
ATOM     13  C8  UNL     1      23.079  14.965  21.974  0.00  0.00    +0.140 C 
BRANCH  13  14
ATOM     14  N2  UNL     1      22.410  15.091  23.291  0.00  0.00    -0.296 NA
ATOM     15  C9  UNL     1      22.547  16.423  23.894  0.00  0.00    +0.085 C 
ATOM     16  C10 UNL     1      23.624  16.348  24.965  0.00  0.00    +0.029 C 
ATOM     17  C11 UNL     1      23.797  14.862  25.275  0.00  0.00    +0.090 C 
ATOM     18  C13 UNL     1      22.884  14.123  24.290  0.00  0.00    +0.097 C 
BRANCH  17  19
ATOM     19  C12 UNL     1      23.464  14.528  26.708  0.00  0.00    +0.215 C 
ATOM     20  N3  UNL     1      24.107  13.432  27.362  0.00  0.00    -0.329 N 
ATOM     21  O1  UNL     1      22.597  15.199  27.330  0.00  0.00    -0.276 OA
ATOM     22  H13 UNL     1      23.868  13.200  28.352  0.00  0.00    +0.145 HD
ATOM     23  H14 UNL     1      24.813  12.848  26.862  0.00  0.00    +0.145 HD
ENDBRANCH  17  19
ENDBRANCH  13  14
ENDBRANCH   3  13
TORSDOF 4
ENDMDL
MODEL 3
REMARK VINA RESULT:    -5.759     11.969     14.548
REMARK INTER + INTRA:          -7.511
REMARK INTER:                  -7.138
REMARK INTRA:                  -0.373
REMARK UNBOUND:                -0.405
REMARK  Name = /home/qwerty/github/datacon2025hack/step_04_hit_selection/docking/ligands/lig_436.pdb
REMARK  5 active torsions:
REMARK  status: ('A' for Active; 'I' for Inactive)
REMARK    1  A    between atoms: C1_1  and  C2_2
REMARK    2  A    between atoms: C5_5  and  C6_6
REMARK    3  A    between atoms: C7_8  and  C8_9
REMARK    4  A    between atoms: C8_9  and  N2_10
REMARK    5  A    between atoms: C11_13  and  C12_14
REMARK                            x       y       z     vdW  Elec       q    Type
REMARK                         _______ _______ _______ _____ _____    ______ ____
ROOT
ATOM      1  C6  UNL     1      20.934   8.810  36.179  0.00  0.00    +0.109 A 
ATOM      2  N1  UNL     1      20.537  10.071  35.898  0.00  0.00    -0.243 NA
ATOM      3  C7  UNL     1      19.458  10.452  36.634  0.00  0.00    +0.063 A 
ATOM      4  C14 UNL     1      18.984   9.492  37.524  0.00  0.00    +0.071 A 
ATOM      5  S1  UNL     1      19.952   8.128  37.365  0.00  0.00    -0.075 S 
ENDROOT
BRANCH   1  10
ATOM      6  C1  UNL     1      25.338   6.196  33.457  0.00  0.00    +0.044 C 
ATOM      7  C2  UNL     1      24.183   6.855  34.150  0.00  0.00    -0.050 A 
ATOM      8  C3  UNL     1      23.590   8.002  33.602  0.00  0.00    +0.004 A 
ATOM      9  C4  UNL     1      22.534   8.634  34.264  0.00  0.00    +0.011 A 
ATOM     10  C5  UNL     1      22.061   8.139  35.492  0.00  0.00    +0.007 A 
ATOM     11  C15 UNL     1      22.671   6.999  36.046  0.00  0.00    +0.011 A 
ATOM     12  C16 UNL     1      23.727   6.368  35.383  0.00  0.00    +0.004 A 
ENDBRANCH   1  10
BRANCH   3  13
ATOM     13  C8  UNL     1      18.817  11.806  36.460  0.00  0.00    +0.140 C 
BRANCH  13  14
ATOM     14  N2  UNL     1      17.395  11.749  36.041  0.00  0.00    -0.296 NA
ATOM     15  C9  UNL     1      17.120  12.484  34.800  0.00  0.00    +0.085 C 
ATOM     16  C10 UNL     1      16.479  13.813  35.169  0.00  0.00    +0.029 C 
ATOM     17  C11 UNL     1      15.988  13.649  36.607  0.00  0.00    +0.090 C 
ATOM     18  C13 UNL     1      16.460  12.261  37.052  0.00  0.00    +0.097 C 
BRANCH  17  19
ATOM     19  C12 UNL     1      14.491  13.799  36.726  0.00  0.00    +0.215 C 
ATOM     20  N3  UNL     1      13.692  12.715  37.202  0.00  0.00    -0.329 N 
ATOM     21  O1  UNL     1      13.933  14.876  36.381  0.00  0.00    -0.276 OA
ATOM     22  H13 UNL     1      12.655  12.821  37.276  0.00  0.00    +0.145 HD
ATOM     23  H14 UNL     1      14.128  11.807  37.474  0.00  0.00    +0.145 HD
ENDBRANCH  17  19
ENDBRANCH  13  14
ENDBRANCH   3  13
TORSDOF 4
ENDMDL
MODEL 4
REMARK VINA RESULT:    -5.752      5.652      7.230
REMARK INTER + INTRA:          -7.502
REMARK INTER:                  -7.112
REMARK INTRA:                  -0.390
REMARK UNBOUND:                -0.405
REMARK  Name = /home/qwerty/github/datacon2025hack/step_04_hit_selection/docking/ligands/lig_436.pdb
REMARK  5 active torsions:
REMARK  status: ('A' for Active; 'I' for Inactive)
REMARK    1  A    between atoms: C1_1  and  C2_2
REMARK    2  A    between atoms: C5_5  and  C6_6
REMARK    3  A    between atoms: C7_8  and  C8_9
REMARK    4  A    between atoms: C8_9  and  N2_10
REMARK    5  A    between atoms: C11_13  and  C12_14
REMARK                            x       y       z     vdW  Elec       q    Type
REMARK                         _______ _______ _______ _____ _____    ______ ____
ROOT
ATOM      1  C6  UNL     1      21.336   5.420  31.197  0.00  0.00    +0.109 A 
ATOM      2  N1  UNL     1      21.621   4.219  30.647  0.00  0.00    -0.243 NA
ATOM      3  C7  UNL     1      20.510   3.457  30.457  0.00  0.00    +0.063 A 
ATOM      4  C14 UNL     1      19.314   4.053  30.851  0.00  0.00    +0.071 A 
ATOM      5  S1  UNL     1      19.680   5.575  31.462  0.00  0.00    -0.075 S 
ENDROOT
BRANCH   1  10
ATOM      6  C1  UNL     1      25.385   9.335  32.578  0.00  0.00    +0.044 C 
ATOM      7  C2  UNL     1      24.322   8.335  32.237  0.00  0.00    -0.050 A 
ATOM      8  C3  UNL     1      24.278   7.097  32.894  0.00  0.00    +0.004 A 
ATOM      9  C4  UNL     1      23.306   6.152  32.554  0.00  0.00    +0.011 A 
ATOM     10  C5  UNL     1      22.369   6.423  31.542  0.00  0.00    +0.007 A 
ATOM     11  C15 UNL     1      22.428   7.660  30.874  0.00  0.00    +0.011 A 
ATOM     12  C16 UNL     1      23.401   8.603  31.214  0.00  0.00    +0.004 A 
ENDBRANCH   1  10
BRANCH   3  13
ATOM     13  C8  UNL     1      20.590   2.062  29.892  0.00  0.00    +0.140 C 
BRANCH  13  14
ATOM     14  N2  UNL     1      21.822   1.799  29.110  0.00  0.00    -0.296 NA
ATOM     15  C9  UNL     1      21.576   1.090  27.847  0.00  0.00    +0.085 C 
ATOM     16  C10 UNL     1      21.943  -0.372  28.047  0.00  0.00    +0.029 C 
ATOM     17  C11 UNL     1      22.815  -0.412  29.301  0.00  0.00    +0.090 C 
ATOM     18  C13 UNL     1      22.832   1.022  29.842  0.00  0.00    +0.097 C 
BRANCH  17  19
ATOM     19  C12 UNL     1      24.207  -0.924  29.020  0.00  0.00    +0.215 C 
ATOM     20  N3  UNL     1      24.432  -2.315  28.787  0.00  0.00    -0.329 N 
ATOM     21  O1  UNL     1      25.185  -0.129  29.016  0.00  0.00    -0.276 OA
ATOM     22  H13 UNL     1      25.398  -2.666  28.600  0.00  0.00    +0.145 HD
ATOM     23  H14 UNL     1      23.641  -2.997  28.806  0.00  0.00    +0.145 HD
ENDBRANCH  17  19
ENDBRANCH  13  14
ENDBRANCH   3  13
TORSDOF 4
ENDMDL
MODEL 5
REMARK VINA RESULT:    -5.748     15.370     16.150
REMARK INTER + INTRA:          -7.497
REMARK INTER:                  -7.087
REMARK INTRA:                  -0.410
REMARK UNBOUND:                -0.405
REMARK  Name = /home/qwerty/github/datacon2025hack/step_04_hit_selection/docking/ligands/lig_436.pdb
REMARK  5 active torsions:
REMARK  status: ('A' for Active; 'I' for Inactive)
REMARK    1  A    between atoms: C1_1  and  C2_2
REMARK    2  A    between atoms: C5_5  and  C6_6
REMARK    3  A    between atoms: C7_8  and  C8_9
REMARK    4  A    between atoms: C8_9  and  N2_10
REMARK    5  A    between atoms: C11_13  and  C12_14
REMARK                            x       y       z     vdW  Elec       q    Type
REMARK                         _______ _______ _______ _____ _____    ______ ____
ROOT
ATOM      1  C6  UNL     1      11.058  13.319  30.586  0.00  0.00    +0.109 A 
ATOM      2  N1  UNL     1      11.312  13.646  31.873  0.00  0.00    -0.243 NA
ATOM      3  C7  UNL     1      12.343  14.526  31.991  0.00  0.00    +0.063 A 
ATOM      4  C14 UNL     1      12.923  14.919  30.787  0.00  0.00    +0.071 A 
ATOM      5  S1  UNL     1      12.113  14.123  29.548  0.00  0.00    -0.075 S 
ENDROOT
BRANCH   1  10
ATOM      6  C1  UNL     1       6.936   9.557  29.009  0.00  0.00    +0.044 C 
ATOM      7  C2  UNL     1       7.991  10.531  29.440  0.00  0.00    -0.050 A 
ATOM      8  C3  UNL     1       7.868  11.892  29.127  0.00  0.00    +0.004 A 
ATOM      9  C4  UNL     1       8.866  12.796  29.501  0.00  0.00    +0.011 A 
ATOM     10  C5  UNL     1      10.012  12.351  30.184  0.00  0.00    +0.007 A 
ATOM     11  C15 UNL     1      10.139  10.982  30.480  0.00  0.00    +0.011 A 
ATOM     12  C16 UNL     1       9.140  10.080  30.104  0.00  0.00    +0.004 A 
ENDBRANCH   1  10
BRANCH   3  13
ATOM     13  C8  UNL     1      12.830  15.003  33.336  0.00  0.00    +0.140 C 
BRANCH  13  14
ATOM     14  N2  UNL     1      13.222  13.910  34.258  0.00  0.00    -0.296 NA
ATOM     15  C9  UNL     1      12.884  14.176  35.662  0.00  0.00    +0.085 C 
ATOM     16  C10 UNL     1      14.153  14.613  36.378  0.00  0.00    +0.029 C 
ATOM     17  C11 UNL     1      15.307  14.173  35.479  0.00  0.00    +0.090 C 
ATOM     18  C13 UNL     1      14.656  13.591  34.220  0.00  0.00    +0.097 C 
BRANCH  17  19
ATOM     19  C12 UNL     1      16.217  13.177  36.154  0.00  0.00    +0.215 C 
ATOM     20  N3  UNL     1      16.750  13.447  37.452  0.00  0.00    -0.329 N 
ATOM     21  O1  UNL     1      16.535  12.109  35.565  0.00  0.00    -0.276 OA
ATOM     22  H13 UNL     1      17.385  12.758  37.912  0.00  0.00    +0.145 HD
ATOM     23  H14 UNL     1      16.519  14.334  37.952  0.00  0.00    +0.145 HD
ENDBRANCH  17  19
ENDBRANCH  13  14
ENDBRANCH   3  13
TORSDOF 4
ENDMDL
MODEL 6
REMARK VINA RESULT:    -5.736      4.968      8.041
REMARK INTER + INTRA:          -7.482
REMARK INTER:                  -7.381
REMARK INTRA:                  -0.102
REMARK UNBOUND:                -0.405
REMARK  Name = /home/qwerty/github/datacon2025hack/step_04_hit_selection/docking/ligands/lig_436.pdb
REMARK  5 active torsions:
REMARK  status: ('A' for Active; 'I' for Inactive)
REMARK    1  A    between atoms: C1_1  and  C2_2
REMARK    2  A    between atoms: C5_5  and  C6_6
REMARK    3  A    between atoms: C7_8  and  C8_9
REMARK    4  A    between atoms: C8_9  and  N2_10
REMARK    5  A    between atoms: C11_13  and  C12_14
REMARK                            x       y       z     vdW  Elec       q    Type
REMARK                         _______ _______ _______ _____ _____    ______ ____
ROOT
ATOM      1  C6  UNL     1      22.260   4.332  32.184  0.00  0.00    +0.109 A 
ATOM      2  N1  UNL     1      22.010   3.710  31.010  0.00  0.00    -0.243 NA
ATOM      3  C7  UNL     1      21.337   2.539  31.176  0.00  0.00    +0.063 A 
ATOM      4  C14 UNL     1      21.033   2.217  32.496  0.00  0.00    +0.071 A 
ATOM      5  S1  UNL     1      21.642   3.441  33.473  0.00  0.00    -0.075 S 
ENDROOT
BRANCH   1  10
ATOM      6  C1  UNL     1      25.210   9.306  32.622  0.00  0.00    +0.044 C 
ATOM      7  C2  UNL     1      24.430   8.030  32.525  0.00  0.00    -0.050 A 
ATOM      8  C3  UNL     1      24.763   6.932  33.332  0.00  0.00    +0.004 A 
ATOM      9  C4  UNL     1      24.056   5.732  33.220  0.00  0.00    +0.011 A 
ATOM     10  C5  UNL     1      23.011   5.604  32.288  0.00  0.00    +0.007 A 
ATOM     11  C15 UNL     1      22.692   6.701  31.468  0.00  0.00    +0.011 A 
ATOM     12  C16 UNL     1      23.401   7.900  31.581  0.00  0.00    +0.004 A 
ENDBRANCH   1  10
BRANCH   3  13
ATOM     13  C8  UNL     1      20.983   1.654  30.008  0.00  0.00    +0.140 C 
BRANCH  13  14
ATOM     14  N2  UNL     1      20.588   2.398  28.787  0.00  0.00    -0.296 NA
ATOM     15  C9  UNL     1      19.801   1.596  27.841  0.00  0.00    +0.085 C 
ATOM     16  C10 UNL     1      20.723   1.153  26.715  0.00  0.00    +0.029 C 
ATOM     17  C11 UNL     1      21.942   2.072  26.794  0.00  0.00    +0.090 C 
ATOM     18  C13 UNL     1      21.725   2.945  28.034  0.00  0.00    +0.097 C 
BRANCH  17  19
ATOM     19  C12 UNL     1      22.121   2.901  25.546  0.00  0.00    +0.215 C 
ATOM     20  N3  UNL     1      21.477   2.523  24.329  0.00  0.00    -0.329 N 
ATOM     21  O1  UNL     1      22.863   3.920  25.564  0.00  0.00    -0.276 OA
ATOM     22  H13 UNL     1      21.609   3.097  23.466  0.00  0.00    +0.145 HD
ATOM     23  H14 UNL     1      20.874   1.672  24.282  0.00  0.00    +0.145 HD
ENDBRANCH  17  19
ENDBRANCH  13  14
ENDBRANCH   3  13
TORSDOF 4
ENDMDL
MODEL 7
REMARK VINA RESULT:    -5.699     15.086     17.270
REMARK INTER + INTRA:          -7.436
REMARK INTER:                  -7.280
REMARK INTRA:                  -0.157
REMARK UNBOUND:                -0.405
REMARK  Name = /home/qwerty/github/datacon2025hack/step_04_hit_selection/docking/ligands/lig_436.pdb
REMARK  5 active torsions:
REMARK  status: ('A' for Active; 'I' for Inactive)
REMARK    1  A    between atoms: C1_1  and  C2_2
REMARK    2  A    between atoms: C5_5  and  C6_6
REMARK    3  A    between atoms: C7_8  and  C8_9
REMARK    4  A    between atoms: C8_9  and  N2_10
REMARK    5  A    between atoms: C11_13  and  C12_14
REMARK                            x       y       z     vdW  Elec       q    Type
REMARK                         _______ _______ _______ _____ _____    ______ ____
ROOT
ATOM      1  C6  UNL     1      11.598  13.187  32.447  0.00  0.00    +0.109 A 
ATOM      2  N1  UNL     1      10.877  12.752  31.389  0.00  0.00    -0.243 NA
ATOM      3  C7  UNL     1      11.173  13.427  30.246  0.00  0.00    +0.063 A 
ATOM      4  C14 UNL     1      12.148  14.412  30.380  0.00  0.00    +0.071 A 
ATOM      5  S1  UNL     1      12.637  14.431  31.987  0.00  0.00    -0.075 S 
ENDROOT
BRANCH   1  10
ATOM      6  C1  UNL     1      10.997  11.099  37.824  0.00  0.00    +0.044 C 
ATOM      7  C2  UNL     1      11.178  11.637  36.436  0.00  0.00    -0.050 A 
ATOM      8  C3  UNL     1      11.150  13.020  36.204  0.00  0.00    +0.004 A 
ATOM      9  C4  UNL     1      11.287  13.520  34.906  0.00  0.00    +0.011 A 
ATOM     10  C5  UNL     1      11.441  12.646  33.816  0.00  0.00    +0.007 A 
ATOM     11  C15 UNL     1      11.452  11.260  34.052  0.00  0.00    +0.011 A 
ATOM     12  C16 UNL     1      11.314  10.761  35.351  0.00  0.00    +0.004 A 
ENDBRANCH   1  10
BRANCH   3  13
ATOM     13  C8  UNL     1      10.464  13.139  28.947  0.00  0.00    +0.140 C 
BRANCH  13  14
ATOM     14  N2  UNL     1      10.202  11.698  28.711  0.00  0.00    -0.296 NA
ATOM     15  C9  UNL     1      10.046  11.355  27.291  0.00  0.00    +0.085 C 
ATOM     16  C10 UNL     1       8.560  11.200  27.004  0.00  0.00    +0.029 C 
ATOM     17  C11 UNL     1       7.892  11.025  28.366  0.00  0.00    +0.090 C 
ATOM     18  C13 UNL     1       9.008  11.193  29.402  0.00  0.00    +0.097 C 
BRANCH  17  19
ATOM     19  C12 UNL     1       7.195   9.693  28.501  0.00  0.00    +0.215 C 
ATOM     20  N3  UNL     1       6.419   9.398  29.664  0.00  0.00    -0.329 N 
ATOM     21  O1  UNL     1       7.316   8.821  27.599  0.00  0.00    -0.276 OA
ATOM     22  H13 UNL     1       5.945   8.472  29.756  0.00  0.00    +0.145 HD
ATOM     23  H14 UNL     1       6.321  10.095  30.434  0.00  0.00    +0.145 HD
ENDBRANCH  17  19
ENDBRANCH  13  14
ENDBRANCH   3  13
TORSDOF 4
ENDMDL
MODEL 8
REMARK VINA RESULT:    -5.694     14.302     15.414
REMARK INTER + INTRA:          -7.430
REMARK INTER:                  -7.001
REMARK INTRA:                  -0.429
REMARK UNBOUND:                -0.405
REMARK  Name = /home/qwerty/github/datacon2025hack/step_04_hit_selection/docking/ligands/lig_436.pdb
REMARK  5 active torsions:
REMARK  status: ('A' for Active; 'I' for Inactive)
REMARK    1  A    between atoms: C1_1  and  C2_2
REMARK    2  A    between atoms: C5_5  and  C6_6
REMARK    3  A    between atoms: C7_8  and  C8_9
REMARK    4  A    between atoms: C8_9  and  N2_10
REMARK    5  A    between atoms: C11_13  and  C12_14
REMARK                            x       y       z     vdW  Elec       q    Type
REMARK                         _______ _______ _______ _____ _____    ______ ____
ROOT
ATOM      1  C6  UNL     1       8.480  10.078  26.306  0.00  0.00    +0.109 A 
ATOM      2  N1  UNL     1       8.913  11.023  27.170  0.00  0.00    -0.243 NA
ATOM      3  C7  UNL     1       8.500  10.790  28.445  0.00  0.00    +0.063 A 
ATOM      4  C14 UNL     1       7.732   9.641  28.614  0.00  0.00    +0.071 A 
ATOM      5  S1  UNL     1       7.566   8.912  27.109  0.00  0.00    -0.075 S 
ENDROOT
BRANCH   1  10
ATOM      6  C1  UNL     1       9.534  10.211  20.605  0.00  0.00    +0.044 C 
ATOM      7  C2  UNL     1       9.263  10.150  22.078  0.00  0.00    -0.050 A 
ATOM      8  C3  UNL     1       7.947  10.199  22.558  0.00  0.00    +0.004 A 
ATOM      9  C4  UNL     1       7.695  10.174  23.933  0.00  0.00    +0.011 A 
ATOM     10  C5  UNL     1       8.757  10.115  24.852  0.00  0.00    +0.007 A 
ATOM     11  C15 UNL     1      10.077  10.085  24.366  0.00  0.00    +0.011 A 
ATOM     12  C16 UNL     1      10.326  10.110  22.991  0.00  0.00    +0.004 A 
ENDBRANCH   1  10
BRANCH   3  13
ATOM     13  C8  UNL     1       8.832  11.734  29.573  0.00  0.00    +0.140 C 
BRANCH  13  14
ATOM     14  N2  UNL     1      10.236  12.213  29.563  0.00  0.00    -0.296 NA
ATOM     15  C9  UNL     1      11.126  11.439  30.439  0.00  0.00    +0.085 C 
ATOM     16  C10 UNL     1      11.346  12.238  31.714  0.00  0.00    +0.029 C 
ATOM     17  C11 UNL     1      10.930  13.670  31.381  0.00  0.00    +0.090 C 
ATOM     18  C13 UNL     1      10.382  13.623  29.951  0.00  0.00    +0.097 C 
BRANCH  17  19
ATOM     19  C12 UNL     1      12.071  14.649  31.514  0.00  0.00    +0.215 C 
ATOM     20  N3  UNL     1      12.027  15.681  32.500  0.00  0.00    -0.329 N 
ATOM     21  O1  UNL     1      13.061  14.577  30.736  0.00  0.00    -0.276 OA
ATOM     22  H13 UNL     1      12.816  16.360  32.584  0.00  0.00    +0.145 HD
ATOM     23  H14 UNL     1      11.210  15.774  33.142  0.00  0.00    +0.145 HD
ENDBRANCH  17  19
ENDBRANCH  13  14
ENDBRANCH   3  13
TORSDOF 4
ENDMDL
MODEL 9
REMARK VINA RESULT:    -5.693      4.512      7.067
REMARK INTER + INTRA:          -7.430
REMARK INTER:                  -7.351
REMARK INTRA:                  -0.078
REMARK UNBOUND:                -0.405
REMARK  Name = /home/qwerty/github/datacon2025hack/step_04_hit_selection/docking/ligands/lig_436.pdb
REMARK  5 active torsions:
REMARK  status: ('A' for Active; 'I' for Inactive)
REMARK    1  A    between atoms: C1_1  and  C2_2
REMARK    2  A    between atoms: C5_5  and  C6_6
REMARK    3  A    between atoms: C7_8  and  C8_9
REMARK    4  A    between atoms: C8_9  and  N2_10
REMARK    5  A    between atoms: C11_13  and  C12_14
REMARK                            x       y       z     vdW  Elec       q    Type
REMARK                         _______ _______ _______ _____ _____    ______ ____
ROOT
ATOM      1  C6  UNL     1      18.987   0.580  25.779  0.00  0.00    +0.109 A 
ATOM      2  N1  UNL     1      19.574   0.913  26.950  0.00  0.00    -0.243 NA
ATOM      3  C7  UNL     1      20.645   1.735  26.778  0.00  0.00    +0.063 A 
ATOM      4  C14 UNL     1      20.920   2.074  25.456  0.00  0.00    +0.071 A 
ATOM      5  S1  UNL     1      19.784   1.306  24.485  0.00  0.00    -0.075 S 
ENDROOT
BRANCH   1  10
ATOM      6  C1  UNL     1      14.446  -3.004  25.366  0.00  0.00    +0.044 C 
ATOM      7  C2  UNL     1      15.608  -2.062  25.456  0.00  0.00    -0.050 A 
ATOM      8  C3  UNL     1      16.760  -2.282  24.686  0.00  0.00    +0.004 A 
ATOM      9  C4  UNL     1      17.856  -1.422  24.793  0.00  0.00    +0.011 A 
ATOM     10  C5  UNL     1      17.825  -0.333  25.682  0.00  0.00    +0.007 A 
ATOM     11  C15 UNL     1      16.675  -0.126  26.465  0.00  0.00    +0.011 A 
ATOM     12  C16 UNL     1      15.580  -0.988  26.357  0.00  0.00    +0.004 A 
ENDBRANCH   1  10
BRANCH   3  13
ATOM     13  C8  UNL     1      21.479   2.206  27.943  0.00  0.00    +0.140 C 
BRANCH  13  14
ATOM     14  N2  UNL     1      20.698   2.468  29.176  0.00  0.00    -0.296 NA
ATOM     15  C9  UNL     1      21.397   3.327  30.141  0.00  0.00    +0.085 C 
ATOM     16  C10 UNL     1      21.962   2.440  31.240  0.00  0.00    +0.029 C 
ATOM     17  C11 UNL     1      21.209   1.115  31.130  0.00  0.00    +0.090 C 
ATOM     18  C13 UNL     1      20.307   1.250  29.898  0.00  0.00    +0.097 C 
BRANCH  17  19
ATOM     19  C12 UNL     1      20.417   0.795  32.374  0.00  0.00    +0.215 C 
ATOM     20  N3  UNL     1      20.692   1.476  33.599  0.00  0.00    -0.329 N 
ATOM     21  O1  UNL     1      19.525  -0.094  32.346  0.00  0.00    -0.276 OA
ATOM     22  H13 UNL     1      20.146   1.247  34.460  0.00  0.00    +0.145 HD
ATOM     23  H14 UNL     1      21.439   2.203  33.654  0.00  0.00    +0.145 HD
ENDBRANCH  17  19
ENDBRANCH  13  14
ENDBRANCH   3  13
TORSDOF 4
ENDMDL
