REMARK  Name = /home/qwerty/github/datacon2025hack/step_04_hit_selection/docking/ligands/lig_69.pdb
REMARK  3 active torsions:
REMARK  status: ('A' for Active; 'I' for Inactive)
REMARK    1  A    between atoms: C1_2  and  C12_16
REMARK    2  A    between atoms: N1_3  and  C2_4
REMARK    3  A    between atoms: C4_6  and  C5_7
REMARK                            x       y       z     vdW  Elec       q    Type
REMARK                         _______ _______ _______ _____ _____    ______ ____
ROOT
ATOM      1  O1  UNL     1      -0.947  -1.996  -0.690  0.00  0.00    -0.270 OA
ATOM      2  C1  UNL     1      -1.677  -1.234   0.000  0.00  0.00    +0.252 C 
ATOM      3  N1  UNL     1      -1.227  -0.778   1.284  0.00  0.00    -0.265 N 
ATOM      4  H1  UNL     1      -1.945  -0.629   2.029  0.00  0.00    +0.157 HD
ENDROOT
BRANCH   2   5
ATOM      5  C12 UNL     1      -3.020  -0.884  -0.495  0.00  0.00    +0.067 A 
ATOM      6  C13 UNL     1      -3.735  -1.573  -1.481  0.00  0.00    +0.127 A 
ATOM      7  N4  UNL     1      -4.941  -1.004  -1.743  0.00  0.00    -0.237 NA
ATOM      8  C14 UNL     1      -4.996   0.057  -0.921  0.00  0.00    +0.141 A 
ATOM      9  N5  UNL     1      -5.995   0.966  -0.846  0.00  0.00    -0.330 N 
ATOM     10  C15 UNL     1      -5.849   2.021   0.012  0.00  0.00    +0.197 A 
ATOM     11  N6  UNL     1      -4.710   2.166   0.765  0.00  0.00    -0.245 NA
ATOM     12  C16 UNL     1      -3.680   1.271   0.713  0.00  0.00    +0.124 A 
ATOM     13  C17 UNL     1      -3.819   0.177  -0.129  0.00  0.00    +0.049 A 
ATOM     14  H10 UNL     1      -6.853   0.871  -1.434  0.00  0.00    +0.168 HD
ENDBRANCH   2   5
BRANCH   3  15
ATOM     15  C2  UNL     1       0.154  -0.675   1.662  0.00  0.00    +0.148 A 
ATOM     16  C3  UNL     1       1.161  -0.419   0.720  0.00  0.00    +0.055 A 
ATOM     17  C4  UNL     1       2.494  -0.306   1.141  0.00  0.00    +0.005 A 
ATOM     18  C11 UNL     1       2.770  -0.442   2.509  0.00  0.00    +0.143 A 
ATOM     19  N2  UNL     1       1.756  -0.665   3.384  0.00  0.00    -0.155 NA
ATOM     20  N3  UNL     1       0.492  -0.774   2.975  0.00  0.00    -0.134 NA
BRANCH  17  21
ATOM     21  C5  UNL     1       3.583  -0.041   0.167  0.00  0.00    -0.016 A 
ATOM     22  C6  UNL     1       4.826  -0.692   0.289  0.00  0.00    +0.008 A 
ATOM     23  C7  UNL     1       5.850  -0.441  -0.630  0.00  0.00    +0.001 A 
ATOM     24  C8  UNL     1       5.647   0.459  -1.678  0.00  0.00    +0.000 A 
ATOM     25  C9  UNL     1       4.419   1.112  -1.809  0.00  0.00    +0.001 A 
ATOM     26  C10 UNL     1       3.392   0.865  -0.894  0.00  0.00    +0.008 A 
ENDBRANCH  17  21
ENDBRANCH   3  15
TORSDOF 3
