MODEL 1
REMARK VINA RESULT:    -5.911      0.000      0.000
REMARK INTER + INTRA:          -9.566
REMARK INTER:                  -7.984
REMARK INTRA:                  -1.582
REMARK UNBOUND:                -1.582
REMARK  Name = /home/qwerty/github/datacon2025hack/step_04_hit_selection/docking/ligands/lig_612.pdb
REMARK  8 active torsions:
REMARK  status: ('A' for Active; 'I' for Inactive)
REMARK    1  A    between atoms: C1_1  and  C2_2
REMARK    2  A    between atoms: N1_4  and  C3_5
REMARK    3  A    between atoms: C6_8  and  N2_9
REMARK    4  A    between atoms: N3_12  and  C8_13
REMARK    5  A    between atoms: C12_17  and  C13_18
REMARK    6  A    between atoms: C13_18  and  N4_19
REMARK    7  A    between atoms: N4_19  and  S1_20
REMARK    8  A    between atoms: S1_20  and  C14_21
REMARK                            x       y       z     vdW  Elec       q    Type
REMARK                         _______ _______ _______ _____ _____    ______ ____
ROOT
ATOM      1  N2  UNL     1      11.572   4.497  19.817  0.00  0.00    -0.269 N 
ATOM      2  C7  UNL     1      11.616   5.788  20.440  0.00  0.00    +0.304 C 
ATOM      3  O2  UNL     1      12.501   6.046  21.301  0.00  0.00    -0.253 OA
ATOM      4  N3  UNL     1      10.667   6.793  20.057  0.00  0.00    -0.296 N 
ATOM      5  H7  UNL     1      11.104   4.422  18.885  0.00  0.00    +0.156 HD
ATOM      6  H8  UNL     1       9.941   6.533  19.352  0.00  0.00    +0.151 HD
ENDROOT
BRANCH   1  10
ATOM      7  C3  UNL     1      13.356   1.038  21.542  0.00  0.00    +0.033 A 
ATOM      8  C4  UNL     1      12.075   1.456  21.929  0.00  0.00    +0.025 A 
ATOM      9  C5  UNL     1      11.491   2.585  21.349  0.00  0.00    +0.025 A 
ATOM     10  C6  UNL     1      12.179   3.320  20.373  0.00  0.00    +0.035 A 
ATOM     11  C15 UNL     1      13.481   2.927  20.013  0.00  0.00    +0.025 A 
ATOM     12  C16 UNL     1      14.065   1.798  20.594  0.00  0.00    +0.025 A 
BRANCH   7  16
ATOM     13  C1  UNL     1      14.966  -1.345  24.143  0.00  0.00    +0.109 C 
ATOM     14  C2  UNL     1      14.606  -0.068  23.456  0.00  0.00    +0.214 C 
ATOM     15  O1  UNL     1      14.960   1.028  23.966  0.00  0.00    -0.276 OA
ATOM     16  N1  UNL     1      13.948  -0.106  22.180  0.00  0.00    -0.286 N 
ATOM     17  H4  UNL     1      13.959  -1.011  21.656  0.00  0.00    +0.155 HD
ENDBRANCH   7  16
ENDBRANCH   1  10
BRANCH   4  18
ATOM     18  C8  UNL     1      10.490   8.034  20.819  0.00  0.00    +0.079 C 
ATOM     19  C9  UNL     1      11.290   9.188  20.199  0.00  0.00    +0.022 C 
ATOM     20  C10 UNL     1      10.319  10.353  20.015  0.00  0.00    +0.002 C 
ATOM     21  C11 UNL     1       9.075   9.999  20.813  0.00  0.00    +0.007 C 
ATOM     22  C12 UNL     1       9.021   8.476  20.806  0.00  0.00    +0.025 C 
BRANCH  22  23
ATOM     23  C13 UNL     1       8.226   7.896  21.989  0.00  0.00    +0.110 C 
BRANCH  23  24
ATOM     24  N4  UNL     1       8.751   6.581  22.366  0.00  0.00    -0.194 NA
ATOM     25  H19 UNL     1       9.694   6.467  21.928  0.00  0.00    +0.148 HD
BRANCH  24  26
ATOM     26  S1  UNL     1       7.743   5.328  21.704  0.00  0.00    +0.027 S 
ATOM     27  C14 UNL     1       7.254   4.176  22.971  0.00  0.00    +0.214 C 
ATOM     28  O3  UNL     1       6.510   5.954  21.115  0.00  0.00    -0.158 OA
ATOM     29  O4  UNL     1       8.484   4.596  20.622  0.00  0.00    -0.158 OA
ENDBRANCH  24  26
ENDBRANCH  23  24
ENDBRANCH  22  23
ENDBRANCH   4  18
TORSDOF 6
ENDMDL
MODEL 2
REMARK VINA RESULT:    -5.790      2.908      8.355
REMARK INTER + INTRA:          -9.403
REMARK INTER:                  -8.150
REMARK INTRA:                  -1.252
REMARK UNBOUND:                -1.582
REMARK  Name = /home/qwerty/github/datacon2025hack/step_04_hit_selection/docking/ligands/lig_612.pdb
REMARK  8 active torsions:
REMARK  status: ('A' for Active; 'I' for Inactive)
REMARK    1  A    between atoms: C1_1  and  C2_2
REMARK    2  A    between atoms: N1_4  and  C3_5
REMARK    3  A    between atoms: C6_8  and  N2_9
REMARK    4  A    between atoms: N3_12  and  C8_13
REMARK    5  A    between atoms: C12_17  and  C13_18
REMARK    6  A    between atoms: C13_18  and  N4_19
REMARK    7  A    between atoms: N4_19  and  S1_20
REMARK    8  A    between atoms: S1_20  and  C14_21
REMARK                            x       y       z     vdW  Elec       q    Type
REMARK                         _______ _______ _______ _____ _____    ______ ____
ROOT
ATOM      1  N2  UNL     1      11.245   2.669  20.638  0.00  0.00    -0.269 N 
ATOM      2  C7  UNL     1      12.340   2.308  21.492  0.00  0.00    +0.304 C 
ATOM      3  O2  UNL     1      12.505   2.898  22.594  0.00  0.00    -0.253 OA
ATOM      4  N3  UNL     1      13.228   1.253  21.099  0.00  0.00    -0.296 N 
ATOM      5  H7  UNL     1      10.911   1.959  19.948  0.00  0.00    +0.156 HD
ATOM      6  H8  UNL     1      13.065   0.801  20.170  0.00  0.00    +0.151 HD
ENDROOT
BRANCH   1  10
ATOM      7  C3  UNL     1       9.255   6.423  20.904  0.00  0.00    +0.033 A 
ATOM      8  C4  UNL     1      10.494   6.310  20.258  0.00  0.00    +0.025 A 
ATOM      9  C5  UNL     1      11.135   5.071  20.164  0.00  0.00    +0.025 A 
ATOM     10  C6  UNL     1      10.550   3.924  20.718  0.00  0.00    +0.035 A 
ATOM     11  C15 UNL     1       9.326   4.043  21.402  0.00  0.00    +0.025 A 
ATOM     12  C16 UNL     1       8.686   5.282  21.496  0.00  0.00    +0.025 A 
BRANCH   7  16
ATOM     13  C1  UNL     1       8.462  10.089  21.888  0.00  0.00    +0.109 C 
ATOM     14  C2  UNL     1       8.985   8.695  22.006  0.00  0.00    +0.214 C 
ATOM     15  O1  UNL     1       9.661   8.374  23.020  0.00  0.00    -0.276 OA
ATOM     16  N1  UNL     1       8.634   7.715  21.017  0.00  0.00    -0.286 N 
ATOM     17  H4  UNL     1       7.832   7.933  20.382  0.00  0.00    +0.155 HD
ENDBRANCH   7  16
ENDBRANCH   1  10
BRANCH   4  18
ATOM     18  C8  UNL     1      14.499   1.002  21.786  0.00  0.00    +0.079 C 
ATOM     19  C9  UNL     1      14.373  -0.156  22.786  0.00  0.00    +0.022 C 
ATOM     20  C10 UNL     1      15.508  -1.132  22.479  0.00  0.00    +0.002 C 
ATOM     21  C11 UNL     1      16.460  -0.398  21.551  0.00  0.00    +0.007 C 
ATOM     22  C12 UNL     1      15.585   0.588  20.785  0.00  0.00    +0.025 C 
BRANCH  22  23
ATOM     23  C13 UNL     1      16.372   1.795  20.243  0.00  0.00    +0.110 C 
BRANCH  23  24
ATOM     24  N4  UNL     1      15.522   2.611  19.371  0.00  0.00    -0.194 NA
ATOM     25  H19 UNL     1      15.911   2.570  18.401  0.00  0.00    +0.148 HD
BRANCH  24  26
ATOM     26  S1  UNL     1      15.595   4.277  19.863  0.00  0.00    +0.027 S 
ATOM     27  C14 UNL     1      15.565   4.412  21.639  0.00  0.00    +0.214 C 
ATOM     28  O3  UNL     1      16.874   4.881  19.353  0.00  0.00    -0.158 OA
ATOM     29  O4  UNL     1      14.433   5.032  19.284  0.00  0.00    -0.158 OA
ENDBRANCH  24  26
ENDBRANCH  23  24
ENDBRANCH  22  23
ENDBRANCH   4  18
TORSDOF 6
ENDMDL
MODEL 3
REMARK VINA RESULT:    -5.701      2.936      8.748
REMARK INTER + INTRA:          -9.282
REMARK INTER:                  -7.733
REMARK INTRA:                  -1.549
REMARK UNBOUND:                -1.582
REMARK  Name = /home/qwerty/github/datacon2025hack/step_04_hit_selection/docking/ligands/lig_612.pdb
REMARK  8 active torsions:
REMARK  status: ('A' for Active; 'I' for Inactive)
REMARK    1  A    between atoms: C1_1  and  C2_2
REMARK    2  A    between atoms: N1_4  and  C3_5
REMARK    3  A    between atoms: C6_8  and  N2_9
REMARK    4  A    between atoms: N3_12  and  C8_13
REMARK    5  A    between atoms: C12_17  and  C13_18
REMARK    6  A    between atoms: C13_18  and  N4_19
REMARK    7  A    between atoms: N4_19  and  S1_20
REMARK    8  A    between atoms: S1_20  and  C14_21
REMARK                            x       y       z     vdW  Elec       q    Type
REMARK                         _______ _______ _______ _____ _____    ______ ____
ROOT
ATOM      1  N2  UNL     1      11.640   1.751  21.522  0.00  0.00    -0.269 N 
ATOM      2  C7  UNL     1      12.427   1.477  22.690  0.00  0.00    +0.304 C 
ATOM      3  O2  UNL     1      12.521   2.337  23.607  0.00  0.00    -0.253 OA
ATOM      4  N3  UNL     1      13.081   0.207  22.822  0.00  0.00    -0.296 N 
ATOM      5  H7  UNL     1      11.277   0.937  20.977  0.00  0.00    +0.156 HD
ATOM      6  H8  UNL     1      12.990  -0.472  22.032  0.00  0.00    +0.151 HD
ENDROOT
BRANCH   1  10
ATOM      7  C3  UNL     1      10.641   5.702  20.291  0.00  0.00    +0.033 A 
ATOM      8  C4  UNL     1      11.894   5.150  19.989  0.00  0.00    +0.025 A 
ATOM      9  C5  UNL     1      12.210   3.847  20.386  0.00  0.00    +0.025 A 
ATOM     10  C6  UNL     1      11.279   3.075  21.095  0.00  0.00    +0.035 A 
ATOM     11  C15 UNL     1      10.037   3.641  21.435  0.00  0.00    +0.025 A 
ATOM     12  C16 UNL     1       9.722   4.944  21.038  0.00  0.00    +0.025 A 
BRANCH   7  16
ATOM     13  C1  UNL     1      10.769   9.556  19.888  0.00  0.00    +0.109 C 
ATOM     14  C2  UNL     1      10.937   8.214  20.520  0.00  0.00    +0.214 C 
ATOM     15  O1  UNL     1      11.515   8.125  21.636  0.00  0.00    -0.276 OA
ATOM     16  N1  UNL     1      10.354   7.056  19.901  0.00  0.00    -0.286 N 
ATOM     17  H4  UNL     1       9.629   7.214  19.165  0.00  0.00    +0.155 HD
ENDBRANCH   7  16
ENDBRANCH   1  10
BRANCH   4  18
ATOM     18  C8  UNL     1      14.094  -0.049  23.851  0.00  0.00    +0.079 C 
ATOM     19  C9  UNL     1      13.461  -0.619  25.128  0.00  0.00    +0.022 C 
ATOM     20  C10 UNL     1      14.240  -1.885  25.481  0.00  0.00    +0.002 C 
ATOM     21  C11 UNL     1      15.496  -1.864  24.627  0.00  0.00    +0.007 C 
ATOM     22  C12 UNL     1      15.106  -1.096  23.369  0.00  0.00    +0.025 C 
BRANCH  22  23
ATOM     23  C13 UNL     1      16.312  -0.460  22.655  0.00  0.00    +0.110 C 
BRANCH  23  24
ATOM     24  N4  UNL     1      15.982   0.892  22.197  0.00  0.00    -0.194 NA
ATOM     25  H19 UNL     1      15.043   1.148  22.580  0.00  0.00    +0.148 HD
BRANCH  24  26
ATOM     26  S1  UNL     1      15.832   0.912  20.465  0.00  0.00    +0.027 S 
ATOM     27  C14 UNL     1      16.557  -0.552  19.753  0.00  0.00    +0.214 C 
ATOM     28  O3  UNL     1      14.374   0.957  20.101  0.00  0.00    -0.158 OA
ATOM     29  O4  UNL     1      16.513   2.129  19.907  0.00  0.00    -0.158 OA
ENDBRANCH  24  26
ENDBRANCH  23  24
ENDBRANCH  22  23
ENDBRANCH   4  18
TORSDOF 6
ENDMDL
MODEL 4
REMARK VINA RESULT:    -5.533     16.591     18.788
REMARK INTER + INTRA:          -9.056
REMARK INTER:                  -7.541
REMARK INTRA:                  -1.515
REMARK UNBOUND:                -1.582
REMARK  Name = /home/qwerty/github/datacon2025hack/step_04_hit_selection/docking/ligands/lig_612.pdb
REMARK  8 active torsions:
REMARK  status: ('A' for Active; 'I' for Inactive)
REMARK    1  A    between atoms: C1_1  and  C2_2
REMARK    2  A    between atoms: N1_4  and  C3_5
REMARK    3  A    between atoms: C6_8  and  N2_9
REMARK    4  A    between atoms: N3_12  and  C8_13
REMARK    5  A    between atoms: C12_17  and  C13_18
REMARK    6  A    between atoms: C13_18  and  N4_19
REMARK    7  A    between atoms: N4_19  and  S1_20
REMARK    8  A    between atoms: S1_20  and  C14_21
REMARK                            x       y       z     vdW  Elec       q    Type
REMARK                         _______ _______ _______ _____ _____    ______ ____
ROOT
ATOM      1  N2  UNL     1      18.297  12.118  36.787  0.00  0.00    -0.269 N 
ATOM      2  C7  UNL     1      18.777  10.942  36.120  0.00  0.00    +0.304 C 
ATOM      3  O2  UNL     1      18.223  10.544  35.060  0.00  0.00    -0.253 OA
ATOM      4  N3  UNL     1      19.909  10.238  36.651  0.00  0.00    -0.296 N 
ATOM      5  H7  UNL     1      18.961  12.627  37.414  0.00  0.00    +0.156 HD
ATOM      6  H8  UNL     1      20.329  10.592  37.541  0.00  0.00    +0.151 HD
ENDROOT
BRANCH   1  10
ATOM      7  C3  UNL     1      14.368  13.654  36.218  0.00  0.00    +0.033 A 
ATOM      8  C4  UNL     1      14.614  12.637  37.151  0.00  0.00    +0.025 A 
ATOM      9  C5  UNL     1      15.910  12.146  37.341  0.00  0.00    +0.025 A 
ATOM     10  C6  UNL     1      16.981  12.662  36.599  0.00  0.00    +0.035 A 
ATOM     11  C15 UNL     1      16.730  13.654  35.633  0.00  0.00    +0.025 A 
ATOM     12  C16 UNL     1      15.434  14.144  35.443  0.00  0.00    +0.025 A 
BRANCH   7  16
ATOM     13  C1  UNL     1      10.587  13.823  35.375  0.00  0.00    +0.109 C 
ATOM     14  C2  UNL     1      12.010  13.374  35.316  0.00  0.00    +0.214 C 
ATOM     15  O1  UNL     1      12.321  12.399  34.581  0.00  0.00    -0.276 OA
ATOM     16  N1  UNL     1      13.021  14.115  36.017  0.00  0.00    -0.286 N 
ATOM     17  H4  UNL     1      12.777  15.078  36.345  0.00  0.00    +0.155 HD
ENDBRANCH   7  16
ENDBRANCH   1  10
BRANCH   4  18
ATOM     18  C8  UNL     1      20.295   8.904  36.177  0.00  0.00    +0.079 C 
ATOM     19  C9  UNL     1      21.692   8.921  35.542  0.00  0.00    +0.022 C 
ATOM     20  C10 UNL     1      22.496   7.808  36.211  0.00  0.00    +0.002 C 
ATOM     21  C11 UNL     1      21.493   6.956  36.970  0.00  0.00    +0.007 C 
ATOM     22  C12 UNL     1      20.366   7.912  37.344  0.00  0.00    +0.025 C 
BRANCH  22  23
ATOM     23  C13 UNL     1      19.025   7.196  37.586  0.00  0.00    +0.110 C 
BRANCH  23  24
ATOM     24  N4  UNL     1      18.060   7.546  36.540  0.00  0.00    -0.194 NA
ATOM     25  H19 UNL     1      18.408   8.399  36.046  0.00  0.00    +0.148 HD
BRANCH  24  26
ATOM     26  S1  UNL     1      16.537   7.977  37.259  0.00  0.00    +0.027 S 
ATOM     27  C14 UNL     1      15.406   8.584  36.024  0.00  0.00    +0.214 C 
ATOM     28  O3  UNL     1      15.941   6.759  37.907  0.00  0.00    -0.158 OA
ATOM     29  O4  UNL     1      16.748   9.034  38.306  0.00  0.00    -0.158 OA
ENDBRANCH  24  26
ENDBRANCH  23  24
ENDBRANCH  22  23
ENDBRANCH   4  18
TORSDOF 6
ENDMDL
MODEL 5
REMARK VINA RESULT:    -5.507     14.272     17.102
REMARK INTER + INTRA:          -9.021
REMARK INTER:                  -7.420
REMARK INTRA:                  -1.601
REMARK UNBOUND:                -1.582
REMARK  Name = /home/qwerty/github/datacon2025hack/step_04_hit_selection/docking/ligands/lig_612.pdb
REMARK  8 active torsions:
REMARK  status: ('A' for Active; 'I' for Inactive)
REMARK    1  A    between atoms: C1_1  and  C2_2
REMARK    2  A    between atoms: N1_4  and  C3_5
REMARK    3  A    between atoms: C6_8  and  N2_9
REMARK    4  A    between atoms: N3_12  and  C8_13
REMARK    5  A    between atoms: C12_17  and  C13_18
REMARK    6  A    between atoms: C13_18  and  N4_19
REMARK    7  A    between atoms: N4_19  and  S1_20
REMARK    8  A    between atoms: S1_20  and  C14_21
REMARK                            x       y       z     vdW  Elec       q    Type
REMARK                         _______ _______ _______ _____ _____    ______ ____
ROOT
ATOM      1  N2  UNL     1      22.550   4.262  34.024  0.00  0.00    -0.269 N 
ATOM      2  C7  UNL     1      22.278   3.924  32.657  0.00  0.00    +0.304 C 
ATOM      3  O2  UNL     1      22.162   4.833  31.791  0.00  0.00    -0.253 OA
ATOM      4  N3  UNL     1      22.168   2.545  32.275  0.00  0.00    -0.296 N 
ATOM      5  H7  UNL     1      22.998   3.534  34.626  0.00  0.00    +0.156 HD
ATOM      6  H8  UNL     1      22.255   1.824  33.027  0.00  0.00    +0.151 HD
ENDROOT
BRANCH   1  10
ATOM      7  C3  UNL     1      21.736   8.110  35.652  0.00  0.00    +0.033 A 
ATOM      8  C4  UNL     1      20.698   7.201  35.400  0.00  0.00    +0.025 A 
ATOM      9  C5  UNL     1      20.975   5.935  34.877  0.00  0.00    +0.025 A 
ATOM     10  C6  UNL     1      22.295   5.556  34.593  0.00  0.00    +0.035 A 
ATOM     11  C15 UNL     1      23.333   6.481  34.807  0.00  0.00    +0.025 A 
ATOM     12  C16 UNL     1      23.056   7.747  35.329  0.00  0.00    +0.025 A 
BRANCH   7  16
ATOM     13  C1  UNL     1      20.418  11.741  35.992  0.00  0.00    +0.109 C 
ATOM     14  C2  UNL     1      20.951  10.506  35.344  0.00  0.00    +0.214 C 
ATOM     15  O1  UNL     1      21.064  10.467  34.089  0.00  0.00    -0.276 OA
ATOM     16  N1  UNL     1      21.420   9.419  36.157  0.00  0.00    -0.286 N 
ATOM     17  H4  UNL     1      21.603   9.614  37.168  0.00  0.00    +0.155 HD
ENDBRANCH   7  16
ENDBRANCH   1  10
BRANCH   4  18
ATOM     18  C8  UNL     1      21.647   2.134  30.968  0.00  0.00    +0.079 C 
ATOM     19  C9  UNL     1      22.786   1.841  29.981  0.00  0.00    +0.022 C 
ATOM     20  C10 UNL     1      22.518   0.456  29.394  0.00  0.00    +0.002 C 
ATOM     21  C11 UNL     1      21.092   0.100  29.777  0.00  0.00    +0.007 C 
ATOM     22  C12 UNL     1      20.840   0.835  31.088  0.00  0.00    +0.025 C 
BRANCH  22  23
ATOM     23  C13 UNL     1      19.346   1.098  31.353  0.00  0.00    +0.110 C 
BRANCH  23  24
ATOM     24  N4  UNL     1      19.160   2.403  31.993  0.00  0.00    -0.194 NA
ATOM     25  H19 UNL     1      20.066   2.923  31.947  0.00  0.00    +0.148 HD
BRANCH  24  26
ATOM     26  S1  UNL     1      18.798   2.189  33.680  0.00  0.00    +0.027 S 
ATOM     27  C14 UNL     1      17.667   3.444  34.247  0.00  0.00    +0.214 C 
ATOM     28  O3  UNL     1      18.163   0.841  33.876  0.00  0.00    -0.158 OA
ATOM     29  O4  UNL     1      20.063   2.256  34.487  0.00  0.00    -0.158 OA
ENDBRANCH  24  26
ENDBRANCH  23  24
ENDBRANCH  22  23
ENDBRANCH   4  18
TORSDOF 6
ENDMDL
MODEL 6
REMARK VINA RESULT:    -5.358     16.703     17.694
REMARK INTER + INTRA:          -8.820
REMARK INTER:                  -7.337
REMARK INTRA:                  -1.483
REMARK UNBOUND:                -1.582
REMARK  Name = /home/qwerty/github/datacon2025hack/step_04_hit_selection/docking/ligands/lig_612.pdb
REMARK  8 active torsions:
REMARK  status: ('A' for Active; 'I' for Inactive)
REMARK    1  A    between atoms: C1_1  and  C2_2
REMARK    2  A    between atoms: N1_4  and  C3_5
REMARK    3  A    between atoms: C6_8  and  N2_9
REMARK    4  A    between atoms: N3_12  and  C8_13
REMARK    5  A    between atoms: C12_17  and  C13_18
REMARK    6  A    between atoms: C13_18  and  N4_19
REMARK    7  A    between atoms: N4_19  and  S1_20
REMARK    8  A    between atoms: S1_20  and  C14_21
REMARK                            x       y       z     vdW  Elec       q    Type
REMARK                         _______ _______ _______ _____ _____    ______ ____
ROOT
ATOM      1  N2  UNL     1      16.655  10.676  37.877  0.00  0.00    -0.269 N 
ATOM      2  C7  UNL     1      15.421  10.516  37.162  0.00  0.00    +0.304 C 
ATOM      3  O2  UNL     1      15.325   9.648  36.252  0.00  0.00    -0.253 OA
ATOM      4  N3  UNL     1      14.290  11.327  37.508  0.00  0.00    -0.296 N 
ATOM      5  H7  UNL     1      16.613  11.106  38.829  0.00  0.00    +0.156 HD
ATOM      6  H8  UNL     1      14.417  12.045  38.257  0.00  0.00    +0.151 HD
ENDROOT
BRANCH   1  10
ATOM      7  C3  UNL     1      20.455   9.349  36.493  0.00  0.00    +0.033 A 
ATOM      8  C4  UNL     1      19.746   8.619  37.457  0.00  0.00    +0.025 A 
ATOM      9  C5  UNL     1      18.493   9.055  37.897  0.00  0.00    +0.025 A 
ATOM     10  C6  UNL     1      17.928  10.231  37.383  0.00  0.00    +0.035 A 
ATOM     11  C15 UNL     1      18.656  10.986  36.446  0.00  0.00    +0.025 A 
ATOM     12  C16 UNL     1      19.909  10.551  36.006  0.00  0.00    +0.025 A 
BRANCH   7  16
ATOM     13  C1  UNL     1      23.400   7.868  34.450  0.00  0.00    +0.109 C 
ATOM     14  C2  UNL     1      22.001   8.076  34.931  0.00  0.00    +0.214 C 
ATOM     15  O1  UNL     1      21.057   7.457  34.370  0.00  0.00    -0.276 OA
ATOM     16  N1  UNL     1      21.758   8.898  36.083  0.00  0.00    -0.286 N 
ATOM     17  H4  UNL     1      22.573   9.127  36.696  0.00  0.00    +0.155 HD
ENDBRANCH   7  16
ENDBRANCH   1  10
BRANCH   4  18
ATOM     18  C8  UNL     1      13.090  11.398  36.667  0.00  0.00    +0.079 C 
ATOM     19  C9  UNL     1      11.895  10.710  37.340  0.00  0.00    +0.022 C 
ATOM     20  C10 UNL     1      10.739  11.707  37.318  0.00  0.00    +0.002 C 
ATOM     21  C11 UNL     1      11.150  12.814  36.363  0.00  0.00    +0.007 C 
ATOM     22  C12 UNL     1      12.672  12.856  36.439  0.00  0.00    +0.025 C 
BRANCH  22  23
ATOM     23  C13 UNL     1      13.321  13.461  35.180  0.00  0.00    +0.110 C 
BRANCH  23  24
ATOM     24  N4  UNL     1      14.720  13.040  35.071  0.00  0.00    -0.194 NA
ATOM     25  H19 UNL     1      14.837  12.148  35.606  0.00  0.00    +0.148 HD
BRANCH  24  26
ATOM     26  S1  UNL     1      15.753  14.212  35.833  0.00  0.00    +0.027 S 
ATOM     27  C14 UNL     1      14.854  15.709  36.188  0.00  0.00    +0.214 C 
ATOM     28  O3  UNL     1      16.273  13.641  37.122  0.00  0.00    -0.158 OA
ATOM     29  O4  UNL     1      16.915  14.529  34.935  0.00  0.00    -0.158 OA
ENDBRANCH  24  26
ENDBRANCH  23  24
ENDBRANCH  22  23
ENDBRANCH   4  18
TORSDOF 6
ENDMDL
MODEL 7
REMARK VINA RESULT:    -5.316      1.668      2.301
REMARK INTER + INTRA:          -8.763
REMARK INTER:                  -7.434
REMARK INTRA:                  -1.329
REMARK UNBOUND:                -1.582
REMARK  Name = /home/qwerty/github/datacon2025hack/step_04_hit_selection/docking/ligands/lig_612.pdb
REMARK  8 active torsions:
REMARK  status: ('A' for Active; 'I' for Inactive)
REMARK    1  A    between atoms: C1_1  and  C2_2
REMARK    2  A    between atoms: N1_4  and  C3_5
REMARK    3  A    between atoms: C6_8  and  N2_9
REMARK    4  A    between atoms: N3_12  and  C8_13
REMARK    5  A    between atoms: C12_17  and  C13_18
REMARK    6  A    between atoms: C13_18  and  N4_19
REMARK    7  A    between atoms: N4_19  and  S1_20
REMARK    8  A    between atoms: S1_20  and  C14_21
REMARK                            x       y       z     vdW  Elec       q    Type
REMARK                         _______ _______ _______ _____ _____    ______ ____
ROOT
ATOM      1  N2  UNL     1      13.566   4.155  20.488  0.00  0.00    -0.269 N 
ATOM      2  C7  UNL     1      13.349   5.371  21.217  0.00  0.00    +0.304 C 
ATOM      3  O2  UNL     1      13.742   5.472  22.411  0.00  0.00    -0.253 OA
ATOM      4  N3  UNL     1      12.712   6.482  20.570  0.00  0.00    -0.296 N 
ATOM      5  H7  UNL     1      13.581   4.208  19.444  0.00  0.00    +0.156 HD
ATOM      6  H8  UNL     1      12.388   6.351  19.585  0.00  0.00    +0.151 HD
ENDROOT
BRANCH   1  10
ATOM      7  C3  UNL     1      14.348   0.365  22.263  0.00  0.00    +0.033 A 
ATOM      8  C4  UNL     1      15.385   1.125  21.704  0.00  0.00    +0.025 A 
ATOM      9  C5  UNL     1      15.122   2.375  21.134  0.00  0.00    +0.025 A 
ATOM     10  C6  UNL     1      13.816   2.884  21.110  0.00  0.00    +0.035 A 
ATOM     11  C15 UNL     1      12.768   2.106  21.634  0.00  0.00    +0.025 A 
ATOM     12  C16 UNL     1      13.032   0.856  22.204  0.00  0.00    +0.025 A 
BRANCH   7  16
ATOM     13  C1  UNL     1      15.047  -2.561  24.710  0.00  0.00    +0.109 C 
ATOM     14  C2  UNL     1      15.006  -1.165  24.181  0.00  0.00    +0.214 C 
ATOM     15  O1  UNL     1      15.376  -0.213  24.919  0.00  0.00    -0.276 OA
ATOM     16  N1  UNL     1      14.641  -0.931  22.811  0.00  0.00    -0.286 N 
ATOM     17  H4  UNL     1      14.652  -1.750  22.161  0.00  0.00    +0.155 HD
ENDBRANCH   7  16
ENDBRANCH   1  10
BRANCH   4  18
ATOM     18  C8  UNL     1      12.234   7.652  21.314  0.00  0.00    +0.079 C 
ATOM     19  C9  UNL     1      13.384   8.619  21.630  0.00  0.00    +0.022 C 
ATOM     20  C10 UNL     1      12.942  10.003  21.155  0.00  0.00    +0.002 C 
ATOM     21  C11 UNL     1      11.452   9.902  20.879  0.00  0.00    +0.007 C 
ATOM     22  C12 UNL     1      11.221   8.448  20.482  0.00  0.00    +0.025 C 
BRANCH  22  23
ATOM     23  C13 UNL     1       9.773   7.982  20.721  0.00  0.00    +0.110 C 
BRANCH  23  24
ATOM     24  N4  UNL     1       9.476   6.797  19.912  0.00  0.00    -0.194 NA
ATOM     25  H19 UNL     1       8.567   6.956  19.419  0.00  0.00    +0.148 HD
BRANCH  24  26
ATOM     26  S1  UNL     1       9.245   5.418  20.944  0.00  0.00    +0.027 S 
ATOM     27  C14 UNL     1       7.619   4.725  20.717  0.00  0.00    +0.214 C 
ATOM     28  O3  UNL     1      10.269   4.373  20.600  0.00  0.00    -0.158 OA
ATOM     29  O4  UNL     1       9.420   5.820  22.381  0.00  0.00    -0.158 OA
ENDBRANCH  24  26
ENDBRANCH  23  24
ENDBRANCH  22  23
ENDBRANCH   4  18
TORSDOF 6
ENDMDL
MODEL 8
REMARK VINA RESULT:    -5.281     13.186     14.830
REMARK INTER + INTRA:          -8.715
REMARK INTER:                  -7.198
REMARK INTRA:                  -1.517
REMARK UNBOUND:                -1.582
REMARK  Name = /home/qwerty/github/datacon2025hack/step_04_hit_selection/docking/ligands/lig_612.pdb
REMARK  8 active torsions:
REMARK  status: ('A' for Active; 'I' for Inactive)
REMARK    1  A    between atoms: C1_1  and  C2_2
REMARK    2  A    between atoms: N1_4  and  C3_5
REMARK    3  A    between atoms: C6_8  and  N2_9
REMARK    4  A    between atoms: N3_12  and  C8_13
REMARK    5  A    between atoms: C12_17  and  C13_18
REMARK    6  A    between atoms: C13_18  and  N4_19
REMARK    7  A    between atoms: N4_19  and  S1_20
REMARK    8  A    between atoms: S1_20  and  C14_21
REMARK                            x       y       z     vdW  Elec       q    Type
REMARK                         _______ _______ _______ _____ _____    ______ ____
ROOT
ATOM      1  N2  UNL     1      11.587  14.105  33.188  0.00  0.00    -0.269 N 
ATOM      2  C7  UNL     1      11.137  13.297  32.091  0.00  0.00    +0.304 C 
ATOM      3  O2  UNL     1      11.208  12.040  32.159  0.00  0.00    -0.253 OA
ATOM      4  N3  UNL     1      10.579  13.926  30.929  0.00  0.00    -0.296 N 
ATOM      5  H7  UNL     1      11.195  15.070  33.275  0.00  0.00    +0.156 HD
ATOM      6  H8  UNL     1      10.554  14.971  30.906  0.00  0.00    +0.151 HD
ENDROOT
BRANCH   1  10
ATOM      7  C3  UNL     1      14.315  12.682  36.130  0.00  0.00    +0.033 A 
ATOM      8  C4  UNL     1      14.759  13.028  34.846  0.00  0.00    +0.025 A 
ATOM      9  C5  UNL     1      13.858  13.507  33.889  0.00  0.00    +0.025 A 
ATOM     10  C6  UNL     1      12.498  13.644  34.199  0.00  0.00    +0.035 A 
ATOM     11  C15 UNL     1      12.044  13.258  35.473  0.00  0.00    +0.025 A 
ATOM     12  C16 UNL     1      12.945  12.779  36.429  0.00  0.00    +0.025 A 
BRANCH   7  16
ATOM     13  C1  UNL     1      16.846  10.403  37.984  0.00  0.00    +0.109 C 
ATOM     14  C2  UNL     1      15.689  10.790  37.122  0.00  0.00    +0.214 C 
ATOM     15  O1  UNL     1      15.052   9.896  36.505  0.00  0.00    -0.276 OA
ATOM     16  N1  UNL     1      15.256  12.159  37.083  0.00  0.00    -0.286 N 
ATOM     17  H4  UNL     1      15.599  12.798  37.837  0.00  0.00    +0.155 HD
ENDBRANCH   7  16
ENDBRANCH   1  10
BRANCH   4  18
ATOM     18  C8  UNL     1      10.336  13.193  29.682  0.00  0.00    +0.079 C 
ATOM     19  C9  UNL     1       8.896  12.667  29.616  0.00  0.00    +0.022 C 
ATOM     20  C10 UNL     1       8.319  13.122  28.277  0.00  0.00    +0.002 C 
ATOM     21  C11 UNL     1       9.496  13.608  27.449  0.00  0.00    +0.007 C 
ATOM     22  C12 UNL     1      10.513  14.113  28.467  0.00  0.00    +0.025 C 
BRANCH  22  23
ATOM     23  C13 UNL     1      11.956  14.105  27.931  0.00  0.00    +0.110 C 
BRANCH  23  24
ATOM     24  N4  UNL     1      12.688  15.280  28.412  0.00  0.00    -0.194 NA
ATOM     25  H19 UNL     1      13.284  15.637  27.630  0.00  0.00    +0.148 HD
BRANCH  24  26
ATOM     26  S1  UNL     1      13.772  14.821  29.691  0.00  0.00    +0.027 S 
ATOM     27  C14 UNL     1      15.436  15.339  29.324  0.00  0.00    +0.214 C 
ATOM     28  O3  UNL     1      13.329  15.480  30.967  0.00  0.00    -0.158 OA
ATOM     29  O4  UNL     1      13.742  13.330  29.875  0.00  0.00    -0.158 OA
ENDBRANCH  24  26
ENDBRANCH  23  24
ENDBRANCH  22  23
ENDBRANCH   4  18
TORSDOF 6
ENDMDL
MODEL 9
REMARK VINA RESULT:    -5.280     14.096     16.790
REMARK INTER + INTRA:          -8.714
REMARK INTER:                  -7.250
REMARK INTRA:                  -1.464
REMARK UNBOUND:                -1.582
REMARK  Name = /home/qwerty/github/datacon2025hack/step_04_hit_selection/docking/ligands/lig_612.pdb
REMARK  8 active torsions:
REMARK  status: ('A' for Active; 'I' for Inactive)
REMARK    1  A    between atoms: C1_1  and  C2_2
REMARK    2  A    between atoms: N1_4  and  C3_5
REMARK    3  A    between atoms: C6_8  and  N2_9
REMARK    4  A    between atoms: N3_12  and  C8_13
REMARK    5  A    between atoms: C12_17  and  C13_18
REMARK    6  A    between atoms: C13_18  and  N4_19
REMARK    7  A    between atoms: N4_19  and  S1_20
REMARK    8  A    between atoms: S1_20  and  C14_21
REMARK                            x       y       z     vdW  Elec       q    Type
REMARK                         _______ _______ _______ _____ _____    ______ ____
ROOT
ATOM      1  N2  UNL     1      22.319   3.981  33.437  0.00  0.00    -0.269 N 
ATOM      2  C7  UNL     1      22.240   3.624  32.050  0.00  0.00    +0.304 C 
ATOM      3  O2  UNL     1      21.837   4.466  31.201  0.00  0.00    -0.253 OA
ATOM      4  N3  UNL     1      22.650   2.315  31.630  0.00  0.00    -0.296 N 
ATOM      5  H7  UNL     1      22.976   3.438  34.043  0.00  0.00    +0.156 HD
ATOM      6  H8  UNL     1      22.962   1.643  32.367  0.00  0.00    +0.151 HD
ENDROOT
BRANCH   1  10
ATOM      7  C3  UNL     1      20.210   7.206  35.246  0.00  0.00    +0.033 A 
ATOM      8  C4  UNL     1      21.611   7.183  35.229  0.00  0.00    +0.025 A 
ATOM      9  C5  UNL     1      22.297   6.127  34.622  0.00  0.00    +0.025 A 
ATOM     10  C6  UNL     1      21.592   5.072  34.024  0.00  0.00    +0.035 A 
ATOM     11  C15 UNL     1      20.186   5.073  34.076  0.00  0.00    +0.025 A 
ATOM     12  C16 UNL     1      19.501   6.129  34.684  0.00  0.00    +0.025 A 
BRANCH   7  16
ATOM     13  C1  UNL     1      18.671   9.527  37.944  0.00  0.00    +0.109 C 
ATOM     14  C2  UNL     1      19.146   8.270  37.292  0.00  0.00    +0.214 C 
ATOM     15  O1  UNL     1      19.122   7.191  37.941  0.00  0.00    -0.276 OA
ATOM     16  N1  UNL     1      19.530   8.286  35.908  0.00  0.00    -0.286 N 
ATOM     17  H4  UNL     1      19.238   9.110  35.334  0.00  0.00    +0.155 HD
ENDBRANCH   7  16
ENDBRANCH   1  10
BRANCH   4  18
ATOM     18  C8  UNL     1      22.363   1.798  30.287  0.00  0.00    +0.079 C 
ATOM     19  C9  UNL     1      23.657   1.522  29.508  0.00  0.00    +0.022 C 
ATOM     20  C10 UNL     1      23.559   0.092  28.980  0.00  0.00    +0.002 C 
ATOM     21  C11 UNL     1      22.112  -0.331  29.162  0.00  0.00    +0.007 C 
ATOM     22  C12 UNL     1      21.618   0.460  30.368  0.00  0.00    +0.025 C 
BRANCH  22  23
ATOM     23  C13 UNL     1      20.089   0.641  30.383  0.00  0.00    +0.110 C 
BRANCH  23  24
ATOM     24  N4  UNL     1      19.514   0.048  31.594  0.00  0.00    -0.194 NA
ATOM     25  H19 UNL     1      18.603  -0.398  31.340  0.00  0.00    +0.148 HD
BRANCH  24  26
ATOM     26  S1  UNL     1      19.150   1.295  32.749  0.00  0.00    +0.027 S 
ATOM     27  C14 UNL     1      17.793   0.809  33.796  0.00  0.00    +0.214 C 
ATOM     28  O3  UNL     1      20.361   1.537  33.606  0.00  0.00    -0.158 OA
ATOM     29  O4  UNL     1      18.797   2.568  32.033  0.00  0.00    -0.158 OA
ENDBRANCH  24  26
ENDBRANCH  23  24
ENDBRANCH  22  23
ENDBRANCH   4  18
TORSDOF 6
ENDMDL
