REMARK  Name = /home/qwerty/github/datacon2025hack/step_04_hit_selection/docking/ligands/lig_157.pdb
REMARK  5 active torsions:
REMARK  status: ('A' for Active; 'I' for Inactive)
REMARK    1  A    between atoms: C2_2  and  C3_3
REMARK    2  A    between atoms: C2_2  and  C4_4
REMARK    3  A    between atoms: C4_4  and  N1_5
REMARK    4  A    between atoms: C13_21  and  C14_22
REMARK    5  A    between atoms: C14_22  and  O3_23
REMARK                            x       y       z     vdW  Elec       q    Type
REMARK                         _______ _______ _______ _____ _____    ______ ____
ROOT
ATOM      1  N1  UNL     1      -1.161   0.618  -0.691  0.00  0.00    -0.293 N 
ATOM      2  C5  UNL     1      -0.147   0.320  -1.531  0.00  0.00    +0.220 A 
ATOM      3  N2  UNL     1       1.049  -0.382  -1.157  0.00  0.00    -0.300 N 
ATOM      4  C6  UNL     1       2.345   0.170  -1.571  0.00  0.00    +0.110 C 
ATOM      5  C7  UNL     1       3.517  -0.599  -0.941  0.00  0.00    +0.054 C 
ATOM      6  C8  UNL     1       3.181  -1.033   0.500  0.00  0.00    +0.115 C 
ATOM      7  C9  UNL     1       1.931  -1.952   0.553  0.00  0.00    +0.054 C 
ATOM      8  C10 UNL     1       0.974  -1.752  -0.637  0.00  0.00    +0.110 C 
ATOM      9  N3  UNL     1       2.983   0.145   1.352  0.00  0.00    -0.285 N 
ATOM     10  C11 UNL     1       3.966   0.125   2.376  0.00  0.00    +0.307 C 
ATOM     11  O1  UNL     1       4.050   1.004   3.273  0.00  0.00    -0.252 OA
ATOM     12  N4  UNL     1       4.838  -0.983   2.288  0.00  0.00    -0.238 N 
ATOM     13  C12 UNL     1       4.374  -1.693   1.150  0.00  0.00    +0.244 C 
ATOM     14  O2  UNL     1       4.919  -2.751   0.738  0.00  0.00    -0.273 OA
ATOM     15  N5  UNL     1      -0.338   0.851  -2.753  0.00  0.00    -0.113 NA
ATOM     16  N6  UNL     1      -1.499   1.489  -2.716  0.00  0.00    -0.130 NA
ATOM     17  C13 UNL     1      -1.986   1.354  -1.466  0.00  0.00    +0.167 A 
ATOM     18  H16 UNL     1       2.224   0.857   1.257  0.00  0.00    +0.151 HD
ATOM     19  H17 UNL     1       5.641  -1.220   2.911  0.00  0.00    +0.159 HD
ENDROOT
BRANCH  17  20
ATOM     20  C14 UNL     1      -3.285   1.959  -1.014  0.00  0.00    +0.125 C 
ATOM     21  C15 UNL     1      -3.654   3.344  -1.521  0.00  0.00    +0.046 C 
ATOM     22  C16 UNL     1      -3.196   3.153  -0.080  0.00  0.00    +0.046 C 
BRANCH  20  23
ATOM     23  O3  UNL     1      -4.365   1.107  -0.761  0.00  0.00    -0.381 OA
ATOM     24  H18 UNL     1      -4.622   0.734  -1.643  0.00  0.00    +0.211 HD
ENDBRANCH  20  23
ENDBRANCH  17  20
BRANCH   1  25
ATOM     25  C4  UNL     1      -1.287   0.326   0.740  0.00  0.00    +0.156 C 
BRANCH  25  27
ATOM     26  C1  UNL     1      -2.692  -0.952   2.302  0.00  0.00    +0.009 C 
ATOM     27  C2  UNL     1      -2.299  -0.768   1.034  0.00  0.00    -0.060 C 
ATOM     28  C3  UNL     1      -2.848  -1.690  -0.030  0.00  0.00    +0.040 C 
ENDBRANCH  25  27
ENDBRANCH   1  25
TORSDOF 4
