REMARK  Name = /home/qwerty/github/datacon2025hack/step_04_hit_selection/docking/ligands/lig_146.pdb
REMARK  8 active torsions:
REMARK  status: ('A' for Active; 'I' for Inactive)
REMARK    1  A    between atoms: C1_1  and  C2_2
REMARK    2  A    between atoms: C2_2  and  C3_3
REMARK    3  A    between atoms: C3_3  and  C4_4
REMARK    4  A    between atoms: C3_3  and  C5_5
REMARK    5  A    between atoms: N1_7  and  C6_8
REMARK    6  A    between atoms: C8_11  and  C9_13
REMARK    7  A    between atoms: C13_18  and  O3_19
REMARK    8  A    between atoms: C17_24  and  O5_25
REMARK                            x       y       z     vdW  Elec       q    Type
REMARK                         _______ _______ _______ _____ _____    ______ ____
ROOT
ATOM      1  C6  UNL     1       1.298   1.670   1.305  0.00  0.00    +0.120 C 
ATOM      2  C7  UNL     1       0.018   1.268   2.043  0.00  0.00    +0.133 C 
ATOM      3  N2  UNL     1      -0.955   0.966   1.006  0.00  0.00    -0.293 N 
ATOM      4  C8  UNL     1      -2.132   0.175   1.250  0.00  0.00    +0.247 C 
ATOM      5  O2  UNL     1      -2.202  -0.531   2.293  0.00  0.00    -0.270 OA
ATOM      6  C16 UNL     1      -0.472   1.309  -0.324  0.00  0.00    +0.141 C 
ATOM      7  C17 UNL     1       0.832   2.073  -0.104  0.00  0.00    +0.153 C 
ENDROOT
BRANCH   4   8
ATOM      8  C9  UNL     1      -3.263   0.156   0.302  0.00  0.00    +0.041 A 
ATOM      9  C10 UNL     1      -3.773   1.368  -0.237  0.00  0.00    +0.015 A 
ATOM     10  C11 UNL     1      -4.864   1.355  -1.127  0.00  0.00    +0.032 A 
ATOM     11  C12 UNL     1      -5.426   0.122  -1.444  0.00  0.00    +0.113 A 
ATOM     12  N3  UNL     1      -6.466  -0.126  -2.258  0.00  0.00    -0.175 NA
ATOM     13  C13 UNL     1      -6.563  -1.478  -2.172  0.00  0.00    +0.394 A 
ATOM     14  O4  UNL     1      -5.667  -2.032  -1.373  0.00  0.00    -0.409 OA
ATOM     15  C14 UNL     1      -4.953  -1.040  -0.914  0.00  0.00    +0.160 A 
ATOM     16  C15 UNL     1      -3.878  -1.072  -0.032  0.00  0.00    +0.061 A 
BRANCH  13  17
ATOM     17  O3  UNL     1      -7.523  -2.208  -2.862  0.00  0.00    -0.465 OA
ATOM     18  H16 UNL     1      -7.564  -3.216  -2.771  0.00  0.00    +0.297 HD
ENDBRANCH  13  17
ENDBRANCH   4   8
BRANCH   1  21
ATOM     19  C5  UNL     1       3.603   0.718   0.830  0.00  0.00    +0.216 C 
ATOM     20  O1  UNL     1       4.062   1.879   0.652  0.00  0.00    -0.276 OA
ATOM     21  N1  UNL     1       2.231   0.540   1.217  0.00  0.00    -0.308 N 
ATOM     22  H10 UNL     1       1.884  -0.429   1.395  0.00  0.00    +0.149 HD
BRANCH  19  23
ATOM     23  C3  UNL     1       4.506  -0.472   0.622  0.00  0.00    +0.072 C 
ATOM     24  C4  UNL     1       4.675  -1.244   1.938  0.00  0.00    +0.017 C 
BRANCH  23  26
ATOM     25  C1  UNL     1       4.965  -2.414  -0.979  0.00  0.00    +0.004 C 
ATOM     26  C2  UNL     1       3.957  -1.362  -0.514  0.00  0.00    +0.009 C 
ENDBRANCH  23  26
ENDBRANCH  19  23
ENDBRANCH   1  21
BRANCH   7  27
ATOM     27  O5  UNL     1       0.580   3.453  -0.150  0.00  0.00    -0.388 OA
ATOM     28  H21 UNL     1       1.464   3.900  -0.217  0.00  0.00    +0.210 HD
ENDBRANCH   7  27
TORSDOF 6
