REMARK  Name = /home/qwerty/github/datacon2025hack/step_04_hit_selection/docking/ligands/lig_328.pdb
REMARK  7 active torsions:
REMARK  status: ('A' for Active; 'I' for Inactive)
REMARK    1  A    between atoms: C1_1  and  C2_2
REMARK    2  A    between atoms: C2_2  and  C3_3
REMARK    3  A    between atoms: C2_2  and  N1_4
REMARK    4  A    between atoms: C4_5  and  C5_7
REMARK    5  A    between atoms: C5_7  and  N2_8
REMARK    6  A    between atoms: C8_12  and  C9_14
REMARK    7  A    between atoms: C12_17  and  C13_18
REMARK                            x       y       z     vdW  Elec       q    Type
REMARK                         _______ _______ _______ _____ _____    ______ ____
ROOT
ATOM      1  N2  UNL     1      -2.291  -1.877  -0.570  0.00  0.00    -0.291 NA
ATOM      2  C6  UNL     1      -2.161  -1.355  -1.953  0.00  0.00    +0.104 C 
ATOM      3  C7  UNL     1      -0.706  -1.340  -2.472  0.00  0.00    +0.123 C 
ATOM      4  N3  UNL     1       0.266  -1.445  -1.376  0.00  0.00    -0.293 N 
ATOM      5  C8  UNL     1       1.573  -0.876  -1.553  0.00  0.00    +0.282 C 
ATOM      6  O2  UNL     1       2.158  -0.989  -2.663  0.00  0.00    -0.267 OA
ATOM      7  C19 UNL     1       0.068  -2.445  -0.319  0.00  0.00    +0.123 C 
ATOM      8  C20 UNL     1      -1.358  -2.993  -0.340  0.00  0.00    +0.104 C 
ENDROOT
BRANCH   5   9
ATOM      9  C9  UNL     1       2.246  -0.153  -0.463  0.00  0.00    +0.190 A 
ATOM     10  C10 UNL     1       1.645   0.391   0.655  0.00  0.00    +0.055 A 
ATOM     11  C11 UNL     1       2.660   0.984   1.376  0.00  0.00    +0.050 A 
ATOM     12  C12 UNL     1       3.821   0.768   0.650  0.00  0.00    +0.136 A 
ATOM     13  O3  UNL     1       3.535   0.091  -0.441  0.00  0.00    -0.450 OA
BRANCH  12  14
ATOM     14  C13 UNL     1       5.191   1.211   1.002  0.00  0.00    +0.020 A 
ATOM     15  C14 UNL     1       5.439   2.013   2.133  0.00  0.00    +0.031 A 
ATOM     16  C15 UNL     1       6.742   2.423   2.438  0.00  0.00    +0.043 A 
ATOM     17 CL1  UNL     1       7.038   3.432   3.843  0.00  0.00    -0.083 Cl
ATOM     18  C16 UNL     1       7.808   2.034   1.621  0.00  0.00    +0.040 A 
ATOM     19  C17 UNL     1       7.574   1.238   0.497  0.00  0.00    +0.043 A 
ATOM     20 CL2  UNL     1       8.915   0.743  -0.518  0.00  0.00    -0.083 Cl
ATOM     21  C18 UNL     1       6.272   0.829   0.187  0.00  0.00    +0.031 A 
ENDBRANCH  12  14
ENDBRANCH   5   9
BRANCH   1  22
ATOM     22  C5  UNL     1      -3.678  -2.294  -0.280  0.00  0.00    +0.180 C 
BRANCH  22  24
ATOM     23  N1  UNL     1      -4.515  -0.138   0.776  0.00  0.00    -0.312 N 
ATOM     24  C4  UNL     1      -4.598  -1.109  -0.276  0.00  0.00    +0.227 C 
ATOM     25  O1  UNL     1      -5.427  -0.962  -1.216  0.00  0.00    -0.274 OA
ATOM     26  H8  UNL     1      -3.860  -0.322   1.571  0.00  0.00    +0.149 HD
BRANCH  23  28
ATOM     27  C1  UNL     1      -4.555   2.110  -0.198  0.00  0.00    +0.027 C 
ATOM     28  C2  UNL     1      -5.258   1.123   0.735  0.00  0.00    +0.067 C 
ATOM     29  C3  UNL     1      -5.387   1.712   2.144  0.00  0.00    +0.027 C 
ENDBRANCH  23  28
ENDBRANCH  22  24
ENDBRANCH   1  22
TORSDOF 5
