MODEL 1
REMARK VINA RESULT:    -5.417      0.000      0.000
REMARK INTER + INTRA:          -7.525
REMARK INTER:                  -6.842
REMARK INTRA:                  -0.683
REMARK UNBOUND:                -0.683
REMARK  Name = /home/qwerty/github/datacon2025hack/step_04_hit_selection/docking/ligands/lig_508.pdb
REMARK  6 active torsions:
REMARK  status: ('A' for Active; 'I' for Inactive)
REMARK    1  A    between atoms: C1_1  and  O1_2
REMARK    2  A    between atoms: O1_2  and  C2_3
REMARK    3  A    between atoms: C4_5  and  C5_6
REMARK    4  A    between atoms: C8_11  and  O3_12
REMARK    5  A    between atoms: C12_16  and  O4_17
REMARK    6  A    between atoms: O4_17  and  C13_18
REMARK                            x       y       z     vdW  Elec       q    Type
REMARK                         _______ _______ _______ _____ _____    ______ ____
ROOT
ATOM      1  C2  UNL     1       9.141  11.542  27.495  0.00  0.00    +0.162 A 
ATOM      2  C3  UNL     1       8.985  10.444  26.626  0.00  0.00    +0.062 A 
ATOM      3  C4  UNL     1      10.027  10.055  25.772  0.00  0.00    +0.041 A 
ATOM      4  C10 UNL     1      11.219  10.790  25.766  0.00  0.00    +0.017 A 
ATOM      5  C11 UNL     1      11.383  11.879  26.623  0.00  0.00    +0.050 A 
ATOM      6  C12 UNL     1      10.345  12.263  27.495  0.00  0.00    +0.162 A 
ENDROOT
BRANCH   3   7
ATOM      7  C5  UNL     1       9.843   8.909  24.858  0.00  0.00    +0.247 C 
ATOM      8  O2  UNL     1      10.409   7.815  25.130  0.00  0.00    -0.270 OA
ATOM      9  N1  UNL     1       9.051   9.017  23.661  0.00  0.00    -0.295 N 
ATOM     10  C6  UNL     1       8.641   7.855  22.890  0.00  0.00    +0.111 C 
ATOM     11  C7  UNL     1       7.909   8.401  21.671  0.00  0.00    +0.052 C 
ATOM     12  C8  UNL     1       8.354   9.862  21.556  0.00  0.00    +0.133 C 
ATOM     13  C9  UNL     1       8.812  10.269  22.957  0.00  0.00    +0.139 C 
BRANCH  12  14
ATOM     14  O3  UNL     1       7.334  10.696  21.062  0.00  0.00    -0.390 OA
ATOM     15  H10 UNL     1       6.763  10.155  20.456  0.00  0.00    +0.210 HD
ENDBRANCH  12  14
ENDBRANCH   3   7
BRANCH   1  17
ATOM     16  C1  UNL     1       7.813  11.304  29.605  0.00  0.00    +0.277 C 
ATOM     17  O1  UNL     1       8.123  11.948  28.373  0.00  0.00    -0.491 OA
ENDBRANCH   1  17
BRANCH   6  18
ATOM     18  O4  UNL     1      10.465  13.349  28.379  0.00  0.00    -0.485 OA
BRANCH  18  19
ATOM     19  C13 UNL     1      11.470  13.505  29.385  0.00  0.00    +0.178 C 
ATOM     20  C14 UNL     1      12.316  14.758  29.114  0.00  0.00    +0.072 C 
ATOM     21  C15 UNL     1      13.315  15.010  30.268  0.00  0.00    +0.163 C 
ATOM     22  O5  UNL     1      13.065  14.207  31.410  0.00  0.00    -0.380 OA
ATOM     23  C16 UNL     1      11.707  14.312  31.790  0.00  0.00    +0.163 C 
ATOM     24  C17 UNL     1      10.790  13.627  30.759  0.00  0.00    +0.072 C 
ENDBRANCH  18  19
ENDBRANCH   6  18
TORSDOF 5
ENDMDL
MODEL 2
REMARK VINA RESULT:    -5.370      8.899     11.632
REMARK INTER + INTRA:          -7.466
REMARK INTER:                  -6.809
REMARK INTRA:                  -0.656
REMARK UNBOUND:                -0.683
REMARK  Name = /home/qwerty/github/datacon2025hack/step_04_hit_selection/docking/ligands/lig_508.pdb
REMARK  6 active torsions:
REMARK  status: ('A' for Active; 'I' for Inactive)
REMARK    1  A    between atoms: C1_1  and  O1_2
REMARK    2  A    between atoms: O1_2  and  C2_3
REMARK    3  A    between atoms: C4_5  and  C5_6
REMARK    4  A    between atoms: C8_11  and  O3_12
REMARK    5  A    between atoms: C12_16  and  O4_17
REMARK    6  A    between atoms: O4_17  and  C13_18
REMARK                            x       y       z     vdW  Elec       q    Type
REMARK                         _______ _______ _______ _____ _____    ______ ____
ROOT
ATOM      1  C2  UNL     1      15.058  10.254  36.421  0.00  0.00    +0.162 A 
ATOM      2  C3  UNL     1      13.698  10.625  36.408  0.00  0.00    +0.062 A 
ATOM      3  C4  UNL     1      13.311  11.929  36.748  0.00  0.00    +0.041 A 
ATOM      4  C10 UNL     1      14.287  12.856  37.133  0.00  0.00    +0.017 A 
ATOM      5  C11 UNL     1      15.636  12.498  37.147  0.00  0.00    +0.050 A 
ATOM      6  C12 UNL     1      16.032  11.193  36.791  0.00  0.00    +0.162 A 
ENDROOT
BRANCH   3   7
ATOM      7  C5  UNL     1      11.880  12.299  36.743  0.00  0.00    +0.247 C 
ATOM      8  O2  UNL     1      11.098  11.718  37.544  0.00  0.00    -0.270 OA
ATOM      9  N1  UNL     1      11.360  13.289  35.838  0.00  0.00    -0.295 N 
ATOM     10  C6  UNL     1      10.029  13.856  35.985  0.00  0.00    +0.111 C 
ATOM     11  C7  UNL     1       9.837  14.782  34.790  0.00  0.00    +0.052 C 
ATOM     12  C8  UNL     1      10.879  14.332  33.761  0.00  0.00    +0.133 C 
ATOM     13  C9  UNL     1      11.973  13.622  34.560  0.00  0.00    +0.139 C 
BRANCH  12  14
ATOM     14  O3  UNL     1      11.380  15.405  33.002  0.00  0.00    -0.390 OA
ATOM     15  H10 UNL     1      11.193  16.244  33.498  0.00  0.00    +0.210 HD
ENDBRANCH  12  14
ENDBRANCH   3   7
BRANCH   1  17
ATOM     16  C1  UNL     1      15.617   8.488  34.736  0.00  0.00    +0.277 C 
ATOM     17  O1  UNL     1      15.479   8.960  36.072  0.00  0.00    -0.491 OA
ENDBRANCH   1  17
BRANCH   6  18
ATOM     18  O4  UNL     1      17.377  10.788  36.786  0.00  0.00    -0.485 OA
BRANCH  18  19
ATOM     19  C13 UNL     1      18.383  11.228  35.870  0.00  0.00    +0.178 C 
ATOM     20  C14 UNL     1      19.366  12.183  36.564  0.00  0.00    +0.072 C 
ATOM     21  C15 UNL     1      20.533  12.556  35.621  0.00  0.00    +0.163 C 
ATOM     22  O5  UNL     1      20.580  11.761  34.447  0.00  0.00    -0.380 OA
ATOM     23  C16 UNL     1      20.532  10.390  34.788  0.00  0.00    +0.163 C 
ATOM     24  C17 UNL     1      19.143  10.004  35.332  0.00  0.00    +0.072 C 
ENDBRANCH  18  19
ENDBRANCH   6  18
TORSDOF 5
ENDMDL
MODEL 3
REMARK VINA RESULT:    -5.354      4.722      8.035
REMARK INTER + INTRA:          -7.446
REMARK INTER:                  -6.841
REMARK INTRA:                  -0.604
REMARK UNBOUND:                -0.683
REMARK  Name = /home/qwerty/github/datacon2025hack/step_04_hit_selection/docking/ligands/lig_508.pdb
REMARK  6 active torsions:
REMARK  status: ('A' for Active; 'I' for Inactive)
REMARK    1  A    between atoms: C1_1  and  O1_2
REMARK    2  A    between atoms: O1_2  and  C2_3
REMARK    3  A    between atoms: C4_5  and  C5_6
REMARK    4  A    between atoms: C8_11  and  O3_12
REMARK    5  A    between atoms: C12_16  and  O4_17
REMARK    6  A    between atoms: O4_17  and  C13_18
REMARK                            x       y       z     vdW  Elec       q    Type
REMARK                         _______ _______ _______ _____ _____    ______ ____
ROOT
ATOM      1  C2  UNL     1      11.852  13.657  34.567  0.00  0.00    +0.162 A 
ATOM      2  C3  UNL     1      11.779  14.286  33.309  0.00  0.00    +0.062 A 
ATOM      3  C4  UNL     1      12.364  13.695  32.180  0.00  0.00    +0.041 A 
ATOM      4  C10 UNL     1      13.054  12.484  32.319  0.00  0.00    +0.017 A 
ATOM      5  C11 UNL     1      13.132  11.854  33.561  0.00  0.00    +0.050 A 
ATOM      6  C12 UNL     1      12.531  12.435  34.696  0.00  0.00    +0.162 A 
ENDROOT
BRANCH   3   7
ATOM      7  C5  UNL     1      12.290  14.373  30.869  0.00  0.00    +0.247 C 
ATOM      8  O2  UNL     1      13.066  15.341  30.639  0.00  0.00    -0.270 OA
ATOM      9  N1  UNL     1      11.344  13.968  29.862  0.00  0.00    -0.295 N 
ATOM     10  C6  UNL     1      11.423  14.436  28.487  0.00  0.00    +0.111 C 
ATOM     11  C7  UNL     1      10.205  13.855  27.781  0.00  0.00    +0.052 C 
ATOM     12  C8  UNL     1       9.231  13.479  28.902  0.00  0.00    +0.133 C 
ATOM     13  C9  UNL     1      10.089  13.291  30.153  0.00  0.00    +0.139 C 
BRANCH  12  14
ATOM     14  O3  UNL     1       8.475  12.334  28.593  0.00  0.00    -0.390 OA
ATOM     15  H10 UNL     1       8.739  11.614  29.223  0.00  0.00    +0.210 HD
ENDBRANCH  12  14
ENDBRANCH   3   7
BRANCH   1  17
ATOM     16  C1  UNL     1       9.863  14.265  35.961  0.00  0.00    +0.277 C 
ATOM     17  O1  UNL     1      11.264  14.215  35.714  0.00  0.00    -0.491 OA
ENDBRANCH   1  17
BRANCH   6  18
ATOM     18  O4  UNL     1      12.578  11.836  35.966  0.00  0.00    -0.485 OA
BRANCH  18  19
ATOM     19  C13 UNL     1      13.738  11.714  36.794  0.00  0.00    +0.178 C 
ATOM     20  C14 UNL     1      14.567  10.487  36.386  0.00  0.00    +0.072 C 
ATOM     21  C15 UNL     1      15.890  10.425  37.185  0.00  0.00    +0.163 C 
ATOM     22  O5  UNL     1      16.162  11.614  37.911  0.00  0.00    -0.380 OA
ATOM     23  C16 UNL     1      16.056  12.737  37.060  0.00  0.00    +0.163 C 
ATOM     24  C17 UNL     1      14.591  12.986  36.654  0.00  0.00    +0.072 C 
ENDBRANCH  18  19
ENDBRANCH   6  18
TORSDOF 5
ENDMDL
MODEL 4
REMARK VINA RESULT:    -5.310     12.918     15.238
REMARK INTER + INTRA:          -7.390
REMARK INTER:                  -6.777
REMARK INTRA:                  -0.613
REMARK UNBOUND:                -0.683
REMARK  Name = /home/qwerty/github/datacon2025hack/step_04_hit_selection/docking/ligands/lig_508.pdb
REMARK  6 active torsions:
REMARK  status: ('A' for Active; 'I' for Inactive)
REMARK    1  A    between atoms: C1_1  and  O1_2
REMARK    2  A    between atoms: O1_2  and  C2_3
REMARK    3  A    between atoms: C4_5  and  C5_6
REMARK    4  A    between atoms: C8_11  and  O3_12
REMARK    5  A    between atoms: C12_16  and  O4_17
REMARK    6  A    between atoms: O4_17  and  C13_18
REMARK                            x       y       z     vdW  Elec       q    Type
REMARK                         _______ _______ _______ _____ _____    ______ ____
ROOT
ATOM      1  C2  UNL     1      20.671   1.409  25.550  0.00  0.00    +0.162 A 
ATOM      2  C3  UNL     1      20.712   0.795  26.818  0.00  0.00    +0.062 A 
ATOM      3  C4  UNL     1      21.471   1.352  27.856  0.00  0.00    +0.041 A 
ATOM      4  C10 UNL     1      22.219   2.511  27.614  0.00  0.00    +0.017 A 
ATOM      5  C11 UNL     1      22.185   3.126  26.362  0.00  0.00    +0.050 A 
ATOM      6  C12 UNL     1      21.410   2.580  25.320  0.00  0.00    +0.162 A 
ENDROOT
BRANCH   3   7
ATOM      7  C5  UNL     1      21.514   0.690  29.176  0.00  0.00    +0.247 C 
ATOM      8  O2  UNL     1      22.464  -0.100  29.431  0.00  0.00    -0.270 OA
ATOM      9  N1  UNL     1      20.492   0.911  30.166  0.00  0.00    -0.295 N 
ATOM     10  C6  UNL     1      20.642   0.487  31.549  0.00  0.00    +0.111 C 
ATOM     11  C7  UNL     1      19.322   0.822  32.231  0.00  0.00    +0.052 C 
ATOM     12  C8  UNL     1      18.309   0.982  31.093  0.00  0.00    +0.133 C 
ATOM     13  C9  UNL     1      19.131   1.320  29.849  0.00  0.00    +0.139 C 
BRANCH  12  14
ATOM     14  O3  UNL     1      17.336   1.957  31.375  0.00  0.00    -0.390 OA
ATOM     15  H10 UNL     1      17.135   1.917  32.346  0.00  0.00    +0.210 HD
ENDBRANCH  12  14
ENDBRANCH   3   7
BRANCH   1  17
ATOM     16  C1  UNL     1      18.511   1.095  24.323  0.00  0.00    +0.277 C 
ATOM     17  O1  UNL     1      19.909   0.885  24.493  0.00  0.00    -0.491 OA
ENDBRANCH   1  17
BRANCH   6  18
ATOM     18  O4  UNL     1      21.339   3.166  24.044  0.00  0.00    -0.485 OA
BRANCH  18  19
ATOM     19  C13 UNL     1      20.686   4.396  23.720  0.00  0.00    +0.178 C 
ATOM     20  C14 UNL     1      21.715   5.516  23.508  0.00  0.00    +0.072 C 
ATOM     21  C15 UNL     1      21.028   6.814  23.025  0.00  0.00    +0.163 C 
ATOM     22  O5  UNL     1      19.673   6.622  22.646  0.00  0.00    -0.380 OA
ATOM     23  C16 UNL     1      19.572   5.544  21.738  0.00  0.00    +0.163 C 
ATOM     24  C17 UNL     1      19.859   4.202  22.437  0.00  0.00    +0.072 C 
ENDBRANCH  18  19
ENDBRANCH   6  18
TORSDOF 5
ENDMDL
MODEL 5
REMARK VINA RESULT:    -5.304      2.820      4.156
REMARK INTER + INTRA:          -7.383
REMARK INTER:                  -6.812
REMARK INTRA:                  -0.571
REMARK UNBOUND:                -0.683
REMARK  Name = /home/qwerty/github/datacon2025hack/step_04_hit_selection/docking/ligands/lig_508.pdb
REMARK  6 active torsions:
REMARK  status: ('A' for Active; 'I' for Inactive)
REMARK    1  A    between atoms: C1_1  and  O1_2
REMARK    2  A    between atoms: O1_2  and  C2_3
REMARK    3  A    between atoms: C4_5  and  C5_6
REMARK    4  A    between atoms: C8_11  and  O3_12
REMARK    5  A    between atoms: C12_16  and  O4_17
REMARK    6  A    between atoms: O4_17  and  C13_18
REMARK                            x       y       z     vdW  Elec       q    Type
REMARK                         _______ _______ _______ _____ _____    ______ ____
ROOT
ATOM      1  C2  UNL     1       9.027  12.789  27.941  0.00  0.00    +0.162 A 
ATOM      2  C3  UNL     1       8.227  11.676  27.611  0.00  0.00    +0.062 A 
ATOM      3  C4  UNL     1       8.775  10.581  26.927  0.00  0.00    +0.041 A 
ATOM      4  C10 UNL     1      10.121  10.615  26.545  0.00  0.00    +0.017 A 
ATOM      5  C11 UNL     1      10.921  11.712  26.868  0.00  0.00    +0.050 A 
ATOM      6  C12 UNL     1      10.380  12.808  27.569  0.00  0.00    +0.162 A 
ENDROOT
BRANCH   3   7
ATOM      7  C5  UNL     1       7.920   9.428  26.577  0.00  0.00    +0.247 C 
ATOM      8  O2  UNL     1       7.302   9.439  25.478  0.00  0.00    -0.270 OA
ATOM      9  N1  UNL     1       7.764   8.306  27.466  0.00  0.00    -0.295 N 
ATOM     10  C6  UNL     1       7.150   7.057  27.043  0.00  0.00    +0.111 C 
ATOM     11  C7  UNL     1       7.097   6.179  28.287  0.00  0.00    +0.052 C 
ATOM     12  C8  UNL     1       7.243   7.144  29.468  0.00  0.00    +0.133 C 
ATOM     13  C9  UNL     1       7.943   8.383  28.908  0.00  0.00    +0.139 C 
BRANCH  12  14
ATOM     14  O3  UNL     1       7.944   6.571  30.544  0.00  0.00    -0.390 OA
ATOM     15  H10 UNL     1       7.301   6.035  31.078  0.00  0.00    +0.210 HD
ENDBRANCH  12  14
ENDBRANCH   3   7
BRANCH   1  17
ATOM     16  C1  UNL     1       7.528  13.818  29.663  0.00  0.00    +0.277 C 
ATOM     17  O1  UNL     1       8.513  13.895  28.638  0.00  0.00    -0.491 OA
ENDBRANCH   1  17
BRANCH   6  18
ATOM     18  O4  UNL     1      11.146  13.932  27.921  0.00  0.00    -0.485 OA
BRANCH  18  19
ATOM     19  C13 UNL     1      12.569  13.968  28.060  0.00  0.00    +0.178 C 
ATOM     20  C14 UNL     1      13.190  14.914  27.022  0.00  0.00    +0.072 C 
ATOM     21  C15 UNL     1      14.712  15.064  27.253  0.00  0.00    +0.163 C 
ATOM     22  O5  UNL     1      15.148  14.519  28.489  0.00  0.00    -0.380 OA
ATOM     23  C16 UNL     1      14.353  15.017  29.546  0.00  0.00    +0.163 C 
ATOM     24  C17 UNL     1      12.922  14.450  29.478  0.00  0.00    +0.072 C 
ENDBRANCH  18  19
ENDBRANCH   6  18
TORSDOF 5
ENDMDL
MODEL 6
REMARK VINA RESULT:    -5.282     11.356     14.547
REMARK INTER + INTRA:          -7.354
REMARK INTER:                  -6.716
REMARK INTRA:                  -0.638
REMARK UNBOUND:                -0.683
REMARK  Name = /home/qwerty/github/datacon2025hack/step_04_hit_selection/docking/ligands/lig_508.pdb
REMARK  6 active torsions:
REMARK  status: ('A' for Active; 'I' for Inactive)
REMARK    1  A    between atoms: C1_1  and  O1_2
REMARK    2  A    between atoms: O1_2  and  C2_3
REMARK    3  A    between atoms: C4_5  and  C5_6
REMARK    4  A    between atoms: C8_11  and  O3_12
REMARK    5  A    between atoms: C12_16  and  O4_17
REMARK    6  A    between atoms: O4_17  and  C13_18
REMARK                            x       y       z     vdW  Elec       q    Type
REMARK                         _______ _______ _______ _____ _____    ______ ____
ROOT
ATOM      1  C2  UNL     1      21.789  12.497  20.302  0.00  0.00    +0.162 A 
ATOM      2  C3  UNL     1      22.490  13.387  21.140  0.00  0.00    +0.062 A 
ATOM      3  C4  UNL     1      21.845  14.500  21.698  0.00  0.00    +0.041 A 
ATOM      4  C10 UNL     1      20.500  14.740  21.389  0.00  0.00    +0.017 A 
ATOM      5  C11 UNL     1      19.798  13.864  20.561  0.00  0.00    +0.050 A 
ATOM      6  C12 UNL     1      20.437  12.735  20.010  0.00  0.00    +0.162 A 
ENDROOT
BRANCH   3   7
ATOM      7  C5  UNL     1      22.597  15.430  22.565  0.00  0.00    +0.247 C 
ATOM      8  O2  UNL     1      23.120  16.456  22.049  0.00  0.00    -0.270 OA
ATOM      9  N1  UNL     1      22.760  15.186  23.974  0.00  0.00    -0.295 N 
ATOM     10  C6  UNL     1      23.261  16.199  24.888  0.00  0.00    +0.111 C 
ATOM     11  C7  UNL     1      23.366  15.518  26.246  0.00  0.00    +0.052 C 
ATOM     12  C8  UNL     1      23.378  14.017  25.944  0.00  0.00    +0.133 C 
ATOM     13  C9  UNL     1      22.708  13.862  24.578  0.00  0.00    +0.139 C 
BRANCH  12  14
ATOM     14  O3  UNL     1      22.736  13.264  26.945  0.00  0.00    -0.390 OA
ATOM     15  H10 UNL     1      22.211  13.889  27.508  0.00  0.00    +0.210 HD
ENDBRANCH  12  14
ENDBRANCH   3   7
BRANCH   1  17
ATOM     16  C1  UNL     1      22.633  10.143  20.431  0.00  0.00    +0.277 C 
ATOM     17  O1  UNL     1      22.401  11.365  19.739  0.00  0.00    -0.491 OA
ENDBRANCH   1  17
BRANCH   6  18
ATOM     18  O4  UNL     1      19.770  11.822  19.175  0.00  0.00    -0.485 OA
BRANCH  18  19
ATOM     19  C13 UNL     1      18.796  10.861  19.590  0.00  0.00    +0.178 C 
ATOM     20  C14 UNL     1      17.385  11.309  19.180  0.00  0.00    +0.072 C 
ATOM     21  C15 UNL     1      16.342  10.214  19.504  0.00  0.00    +0.163 C 
ATOM     22  O5  UNL     1      16.927   8.971  19.859  0.00  0.00    -0.380 OA
ATOM     23  C16 UNL     1      17.881   8.589  18.888  0.00  0.00    +0.163 C 
ATOM     24  C17 UNL     1      19.118   9.506  18.938  0.00  0.00    +0.072 C 
ENDBRANCH  18  19
ENDBRANCH   6  18
TORSDOF 5
ENDMDL
MODEL 7
REMARK VINA RESULT:    -5.235      2.522      8.553
REMARK INTER + INTRA:          -7.295
REMARK INTER:                  -6.807
REMARK INTRA:                  -0.488
REMARK UNBOUND:                -0.683
REMARK  Name = /home/qwerty/github/datacon2025hack/step_04_hit_selection/docking/ligands/lig_508.pdb
REMARK  6 active torsions:
REMARK  status: ('A' for Active; 'I' for Inactive)
REMARK    1  A    between atoms: C1_1  and  O1_2
REMARK    2  A    between atoms: O1_2  and  C2_3
REMARK    3  A    between atoms: C4_5  and  C5_6
REMARK    4  A    between atoms: C8_11  and  O3_12
REMARK    5  A    between atoms: C12_16  and  O4_17
REMARK    6  A    between atoms: O4_17  and  C13_18
REMARK                            x       y       z     vdW  Elec       q    Type
REMARK                         _______ _______ _______ _____ _____    ______ ____
ROOT
ATOM      1  C2  UNL     1       8.140   9.407  24.100  0.00  0.00    +0.162 A 
ATOM      2  C3  UNL     1       7.801  10.045  25.311  0.00  0.00    +0.062 A 
ATOM      3  C4  UNL     1       8.345   9.604  26.526  0.00  0.00    +0.041 A 
ATOM      4  C10 UNL     1       9.205   8.500  26.533  0.00  0.00    +0.017 A 
ATOM      5  C11 UNL     1       9.547   7.862  25.339  0.00  0.00    +0.050 A 
ATOM      6  C12 UNL     1       9.016   8.311  24.113  0.00  0.00    +0.162 A 
ENDROOT
BRANCH   3   7
ATOM      7  C5  UNL     1       7.970  10.276  27.788  0.00  0.00    +0.247 C 
ATOM      8  O2  UNL     1       7.054   9.775  28.496  0.00  0.00    -0.270 OA
ATOM      9  N1  UNL     1       8.612  11.491  28.216  0.00  0.00    -0.295 N 
ATOM     10  C6  UNL     1       8.453  12.024  29.559  0.00  0.00    +0.111 C 
ATOM     11  C7  UNL     1       9.208  13.347  29.573  0.00  0.00    +0.052 C 
ATOM     12  C8  UNL     1       9.359  13.740  28.101  0.00  0.00    +0.133 C 
ATOM     13  C9  UNL     1       9.245  12.437  27.309  0.00  0.00    +0.139 C 
BRANCH  12  14
ATOM     14  O3  UNL     1      10.565  14.418  27.848  0.00  0.00    -0.390 OA
ATOM     15  H10 UNL     1      10.712  14.425  26.867  0.00  0.00    +0.210 HD
ENDBRANCH  12  14
ENDBRANCH   3   7
BRANCH   1  17
ATOM     16  C1  UNL     1       8.250  10.788  22.015  0.00  0.00    +0.277 C 
ATOM     17  O1  UNL     1       7.625   9.833  22.865  0.00  0.00    -0.491 OA
ENDBRANCH   1  17
BRANCH   6  18
ATOM     18  O4  UNL     1       9.334   7.705  22.886  0.00  0.00    -0.485 OA
BRANCH  18  19
ATOM     19  C13 UNL     1       8.749   6.509  22.364  0.00  0.00    +0.178 C 
ATOM     20  C14 UNL     1       7.655   6.845  21.339  0.00  0.00    +0.072 C 
ATOM     21  C15 UNL     1       7.112   5.560  20.670  0.00  0.00    +0.163 C 
ATOM     22  O5  UNL     1       7.895   4.410  20.949  0.00  0.00    -0.380 OA
ATOM     23  C16 UNL     1       9.256   4.671  20.674  0.00  0.00    +0.163 C 
ATOM     24  C17 UNL     1       9.846   5.665  21.693  0.00  0.00    +0.072 C 
ENDBRANCH  18  19
ENDBRANCH   6  18
TORSDOF 5
ENDMDL
MODEL 8
REMARK VINA RESULT:    -5.187     12.960     14.481
REMARK INTER + INTRA:          -7.235
REMARK INTER:                  -6.586
REMARK INTRA:                  -0.649
REMARK UNBOUND:                -0.683
REMARK  Name = /home/qwerty/github/datacon2025hack/step_04_hit_selection/docking/ligands/lig_508.pdb
REMARK  6 active torsions:
REMARK  status: ('A' for Active; 'I' for Inactive)
REMARK    1  A    between atoms: C1_1  and  O1_2
REMARK    2  A    between atoms: O1_2  and  C2_3
REMARK    3  A    between atoms: C4_5  and  C5_6
REMARK    4  A    between atoms: C8_11  and  O3_12
REMARK    5  A    between atoms: C12_16  and  O4_17
REMARK    6  A    between atoms: O4_17  and  C13_18
REMARK                            x       y       z     vdW  Elec       q    Type
REMARK                         _______ _______ _______ _____ _____    ______ ____
ROOT
ATOM      1  C2  UNL     1      20.807   3.244  25.051  0.00  0.00    +0.162 A 
ATOM      2  C3  UNL     1      20.461   4.324  24.213  0.00  0.00    +0.062 A 
ATOM      3  C4  UNL     1      21.352   5.387  24.014  0.00  0.00    +0.041 A 
ATOM      4  C10 UNL     1      22.583   5.385  24.683  0.00  0.00    +0.017 A 
ATOM      5  C11 UNL     1      22.935   4.321  25.513  0.00  0.00    +0.050 A 
ATOM      6  C12 UNL     1      22.049   3.241  25.704  0.00  0.00    +0.162 A 
ENDROOT
BRANCH   3   7
ATOM      7  C5  UNL     1      20.970   6.518  23.143  0.00  0.00    +0.247 C 
ATOM      8  O2  UNL     1      20.236   7.429  23.615  0.00  0.00    -0.270 OA
ATOM      9  N1  UNL     1      21.398   6.593  21.771  0.00  0.00    -0.295 N 
ATOM     10  C6  UNL     1      21.260   7.803  20.977  0.00  0.00    +0.111 C 
ATOM     11  C7  UNL     1      21.742   7.439  19.579  0.00  0.00    +0.052 C 
ATOM     12  C8  UNL     1      21.680   5.910  19.516  0.00  0.00    +0.133 C 
ATOM     13  C9  UNL     1      21.751   5.432  20.967  0.00  0.00    +0.139 C 
BRANCH  12  14
ATOM     14  O3  UNL     1      22.704   5.365  18.721  0.00  0.00    -0.390 OA
ATOM     15  H10 UNL     1      22.752   5.891  17.881  0.00  0.00    +0.210 HD
ENDBRANCH  12  14
ENDBRANCH   3   7
BRANCH   1  17
ATOM     16  C1  UNL     1      19.834   1.033  24.393  0.00  0.00    +0.277 C 
ATOM     17  O1  UNL     1      19.943   2.157  25.260  0.00  0.00    -0.491 OA
ENDBRANCH   1  17
BRANCH   6  18
ATOM     18  O4  UNL     1      22.360   2.145  26.526  0.00  0.00    -0.485 OA
BRANCH  18  19
ATOM     19  C13 UNL     1      22.468   2.169  27.952  0.00  0.00    +0.178 C 
ATOM     20  C14 UNL     1      21.441   3.139  28.556  0.00  0.00    +0.072 C 
ATOM     21  C15 UNL     1      21.458   3.070  30.101  0.00  0.00    +0.163 C 
ATOM     22  O5  UNL     1      22.209   1.976  30.604  0.00  0.00    -0.380 OA
ATOM     23  C16 UNL     1      21.798   0.777  29.978  0.00  0.00    +0.163 C 
ATOM     24  C17 UNL     1      22.224   0.752  28.498  0.00  0.00    +0.072 C 
ENDBRANCH  18  19
ENDBRANCH   6  18
TORSDOF 5
ENDMDL
MODEL 9
REMARK VINA RESULT:    -5.170      2.430      4.264
REMARK INTER + INTRA:          -7.213
REMARK INTER:                  -6.583
REMARK INTRA:                  -0.629
REMARK UNBOUND:                -0.683
REMARK  Name = /home/qwerty/github/datacon2025hack/step_04_hit_selection/docking/ligands/lig_508.pdb
REMARK  6 active torsions:
REMARK  status: ('A' for Active; 'I' for Inactive)
REMARK    1  A    between atoms: C1_1  and  O1_2
REMARK    2  A    between atoms: O1_2  and  C2_3
REMARK    3  A    between atoms: C4_5  and  C5_6
REMARK    4  A    between atoms: C8_11  and  O3_12
REMARK    5  A    between atoms: C12_16  and  O4_17
REMARK    6  A    between atoms: O4_17  and  C13_18
REMARK                            x       y       z     vdW  Elec       q    Type
REMARK                         _______ _______ _______ _____ _____    ______ ____
ROOT
ATOM      1  C2  UNL     1       9.308   8.810  25.798  0.00  0.00    +0.162 A 
ATOM      2  C3  UNL     1       9.660   8.245  24.556  0.00  0.00    +0.062 A 
ATOM      3  C4  UNL     1       9.056   8.693  23.372  0.00  0.00    +0.041 A 
ATOM      4  C10 UNL     1       8.073   9.688  23.437  0.00  0.00    +0.017 A 
ATOM      5  C11 UNL     1       7.719  10.253  24.663  0.00  0.00    +0.050 A 
ATOM      6  C12 UNL     1       8.335   9.818  25.854  0.00  0.00    +0.162 A 
ENDROOT
BRANCH   3   7
ATOM      7  C5  UNL     1       9.425   8.082  22.078  0.00  0.00    +0.247 C 
ATOM      8  O2  UNL     1      10.015   8.790  21.216  0.00  0.00    -0.270 OA
ATOM      9  N1  UNL     1       9.114   6.710  21.774  0.00  0.00    -0.295 N 
ATOM     10  C6  UNL     1       9.688   6.015  20.633  0.00  0.00    +0.111 C 
ATOM     11  C7  UNL     1       9.041   4.636  20.618  0.00  0.00    +0.052 C 
ATOM     12  C8  UNL     1       7.773   4.777  21.465  0.00  0.00    +0.133 C 
ATOM     13  C9  UNL     1       8.019   5.972  22.388  0.00  0.00    +0.139 C 
BRANCH  12  14
ATOM     14  O3  UNL     1       7.471   3.602  22.178  0.00  0.00    -0.390 OA
ATOM     15  H10 UNL     1       8.072   2.884  21.851  0.00  0.00    +0.210 HD
ENDBRANCH  12  14
ENDBRANCH   3   7
BRANCH   1  17
ATOM     16  C1  UNL     1       9.527   7.231  27.729  0.00  0.00    +0.277 C 
ATOM     17  O1  UNL     1       9.905   8.394  27.000  0.00  0.00    -0.491 OA
ENDBRANCH   1  17
BRANCH   6  18
ATOM     18  O4  UNL     1       8.015  10.360  27.110  0.00  0.00    -0.485 OA
BRANCH  18  19
ATOM     19  C13 UNL     1       8.306  11.690  27.549  0.00  0.00    +0.178 C 
ATOM     20  C14 UNL     1       7.942  11.862  29.032  0.00  0.00    +0.072 C 
ATOM     21  C15 UNL     1       8.378  13.252  29.550  0.00  0.00    +0.163 C 
ATOM     22  O5  UNL     1       9.224  13.946  28.647  0.00  0.00    -0.380 OA
ATOM     23  C16 UNL     1      10.297  13.116  28.251  0.00  0.00    +0.163 C 
ATOM     24  C17 UNL     1       9.806  11.968  27.349  0.00  0.00    +0.072 C 
ENDBRANCH  18  19
ENDBRANCH   6  18
TORSDOF 5
ENDMDL
