MODEL 1
REMARK VINA RESULT:    -5.740      0.000      0.000
REMARK INTER + INTRA:          -7.493
REMARK INTER:                  -7.082
REMARK INTRA:                  -0.411
REMARK UNBOUND:                -0.411
REMARK  Name = /home/qwerty/github/datacon2025hack/step_04_hit_selection/docking/ligands/lig_539.pdb
REMARK  6 active torsions:
REMARK  status: ('A' for Active; 'I' for Inactive)
REMARK    1  A    between atoms: C1_1  and  C2_2
REMARK    2  A    between atoms: C2_2  and  C3_3
REMARK    3  A    between atoms: C2_2  and  O1_4
REMARK    4  A    between atoms: O1_4  and  C4_5
REMARK    5  A    between atoms: C7_8  and  N1_9
REMARK    6  A    between atoms: N1_9  and  C8_10
REMARK                            x       y       z     vdW  Elec       q    Type
REMARK                         _______ _______ _______ _____ _____    ______ ____
ROOT
ATOM      1  N1  UNL     1      19.721   7.395  38.127  0.00  0.00    -0.297 N 
ATOM      2  H10 UNL     1      19.498   6.804  38.958  0.00  0.00    +0.154 HD
ENDROOT
BRANCH   1   3
ATOM      3  C8  UNL     1      18.822   8.471  37.818  0.00  0.00    +0.143 A 
ATOM      4  C9  UNL     1      17.447   8.258  37.636  0.00  0.00    +0.155 A 
ATOM      5  N2  UNL     1      16.646   9.304  37.311  0.00  0.00    -0.241 NA
ATOM      6  C10 UNL     1      17.142  10.558  37.145  0.00  0.00    +0.146 A 
ATOM      7 BR1  UNL     1      15.926  11.964  36.689  0.00  0.00    -0.025 Br
ATOM      8  C11 UNL     1      18.523  10.774  37.301  0.00  0.00    +0.151 A 
ATOM      9  N3  UNL     1      19.109  12.066  37.125  0.00  0.00    -0.341 N 
ATOM     10  N4  UNL     1      19.321   9.721  37.626  0.00  0.00    -0.213 NA
ATOM     11  H12 UNL     1      20.139  12.190  37.248  0.00  0.00    +0.144 HD
ATOM     12  H13 UNL     1      18.541  12.904  36.874  0.00  0.00    +0.144 HD
ENDBRANCH   1   3
BRANCH   1  16
ATOM     13  C4  UNL     1      23.150   6.523  35.818  0.00  0.00    +0.215 A 
ATOM     14  C5  UNL     1      23.279   6.634  37.205  0.00  0.00    +0.069 A 
ATOM     15  C6  UNL     1      22.153   6.917  37.979  0.00  0.00    +0.030 A 
ATOM     16  C7  UNL     1      20.897   7.071  37.366  0.00  0.00    +0.051 A 
ATOM     17  C12 UNL     1      20.818   6.971  35.971  0.00  0.00    +0.138 A 
ATOM     18  N5  UNL     1      21.930   6.695  35.239  0.00  0.00    -0.219 NA
BRANCH  13  19
ATOM     19  O1  UNL     1      24.281   6.234  35.046  0.00  0.00    -0.474 OA
BRANCH  19  21
ATOM     20  C1  UNL     1      24.653   7.949  33.368  0.00  0.00    +0.051 C 
ATOM     21  C2  UNL     1      24.363   6.470  33.640  0.00  0.00    +0.169 C 
ATOM     22  C3  UNL     1      25.469   5.594  33.055  0.00  0.00    +0.051 C 
ENDBRANCH  19  21
ENDBRANCH  13  19
ENDBRANCH   1  16
TORSDOF 4
ENDMDL
MODEL 2
REMARK VINA RESULT:    -5.420      5.547      9.679
REMARK INTER + INTRA:          -7.099
REMARK INTER:                  -6.701
REMARK INTRA:                  -0.398
REMARK UNBOUND:                -0.411
REMARK  Name = /home/qwerty/github/datacon2025hack/step_04_hit_selection/docking/ligands/lig_539.pdb
REMARK  6 active torsions:
REMARK  status: ('A' for Active; 'I' for Inactive)
REMARK    1  A    between atoms: C1_1  and  C2_2
REMARK    2  A    between atoms: C2_2  and  C3_3
REMARK    3  A    between atoms: C2_2  and  O1_4
REMARK    4  A    between atoms: O1_4  and  C4_5
REMARK    5  A    between atoms: C7_8  and  N1_9
REMARK    6  A    between atoms: N1_9  and  C8_10
REMARK                            x       y       z     vdW  Elec       q    Type
REMARK                         _______ _______ _______ _____ _____    ______ ____
ROOT
ATOM      1  N1  UNL     1      17.468  13.025  37.149  0.00  0.00    -0.297 N 
ATOM      2  H10 UNL     1      17.823  13.355  38.074  0.00  0.00    +0.154 HD
ENDROOT
BRANCH   1   3
ATOM      3  C8  UNL     1      18.363  12.254  36.333  0.00  0.00    +0.143 A 
ATOM      4  C9  UNL     1      18.789  10.972  36.709  0.00  0.00    +0.155 A 
ATOM      5  N2  UNL     1      19.664  10.300  35.920  0.00  0.00    -0.241 NA
ATOM      6  C10 UNL     1      20.151  10.841  34.772  0.00  0.00    +0.146 A 
ATOM      7 BR1  UNL     1      21.379   9.808  33.728  0.00  0.00    -0.025 Br
ATOM      8  C11 UNL     1      19.748  12.136  34.402  0.00  0.00    +0.151 A 
ATOM      9  N3  UNL     1      20.235  12.768  33.215  0.00  0.00    -0.341 N 
ATOM     10  N4  UNL     1      18.871  12.805  35.199  0.00  0.00    -0.213 NA
ATOM     11  H12 UNL     1      19.915  13.732  32.971  0.00  0.00    +0.144 HD
ATOM     12  H13 UNL     1      20.909  12.298  32.573  0.00  0.00    +0.144 HD
ENDBRANCH   1   3
BRANCH   1  16
ATOM     13  C4  UNL     1      13.489  14.045  36.162  0.00  0.00    +0.215 A 
ATOM     14  C5  UNL     1      14.523  14.902  35.775  0.00  0.00    +0.069 A 
ATOM     15  C6  UNL     1      15.842  14.574  36.091  0.00  0.00    +0.030 A 
ATOM     16  C7  UNL     1      16.126  13.380  36.777  0.00  0.00    +0.051 A 
ATOM     17  C12 UNL     1      15.057  12.561  37.164  0.00  0.00    +0.138 A 
ATOM     18  N5  UNL     1      13.780  12.903  36.845  0.00  0.00    -0.219 NA
BRANCH  13  19
ATOM     19  O1  UNL     1      12.168  14.376  35.839  0.00  0.00    -0.474 OA
BRANCH  19  21
ATOM     20  C1  UNL     1       9.754  14.137  35.924  0.00  0.00    +0.051 C 
ATOM     21  C2  UNL     1      11.103  13.426  35.784  0.00  0.00    +0.169 C 
ATOM     22  C3  UNL     1      11.177  12.677  34.455  0.00  0.00    +0.051 C 
ENDBRANCH  19  21
ENDBRANCH  13  19
ENDBRANCH   1  16
TORSDOF 4
ENDMDL
MODEL 3
REMARK VINA RESULT:    -5.361      9.197     11.957
REMARK INTER + INTRA:          -7.026
REMARK INTER:                  -6.630
REMARK INTRA:                  -0.396
REMARK UNBOUND:                -0.411
REMARK  Name = /home/qwerty/github/datacon2025hack/step_04_hit_selection/docking/ligands/lig_539.pdb
REMARK  6 active torsions:
REMARK  status: ('A' for Active; 'I' for Inactive)
REMARK    1  A    between atoms: C1_1  and  C2_2
REMARK    2  A    between atoms: C2_2  and  C3_3
REMARK    3  A    between atoms: C2_2  and  O1_4
REMARK    4  A    between atoms: O1_4  and  C4_5
REMARK    5  A    between atoms: C7_8  and  N1_9
REMARK    6  A    between atoms: N1_9  and  C8_10
REMARK                            x       y       z     vdW  Elec       q    Type
REMARK                         _______ _______ _______ _____ _____    ______ ____
ROOT
ATOM      1  N1  UNL     1      23.028   2.783  26.991  0.00  0.00    -0.297 N 
ATOM      2  H10 UNL     1      24.064   2.921  26.988  0.00  0.00    +0.154 HD
ENDROOT
BRANCH   1   3
ATOM      3  C8  UNL     1      22.293   3.260  25.854  0.00  0.00    +0.143 A 
ATOM      4  C9  UNL     1      21.315   2.477  25.223  0.00  0.00    +0.155 A 
ATOM      5  N2  UNL     1      20.674   2.961  24.130  0.00  0.00    -0.241 NA
ATOM      6  C10 UNL     1      20.961   4.187  23.619  0.00  0.00    +0.146 A 
ATOM      7 BR1  UNL     1      19.996   4.778  22.074  0.00  0.00    -0.025 Br
ATOM      8  C11 UNL     1      21.958   4.967  24.231  0.00  0.00    +0.151 A 
ATOM      9  N3  UNL     1      22.318   6.258  23.734  0.00  0.00    -0.341 N 
ATOM     10  N4  UNL     1      22.598   4.475  25.327  0.00  0.00    -0.213 NA
ATOM     11  H12 UNL     1      23.064   6.810  24.213  0.00  0.00    +0.144 HD
ATOM     12  H13 UNL     1      21.858   6.679  22.897  0.00  0.00    +0.144 HD
ENDBRANCH   1   3
BRANCH   1  16
ATOM     13  C4  UNL     1      21.198   0.948  30.328  0.00  0.00    +0.215 A 
ATOM     14  C5  UNL     1      21.965   0.165  29.462  0.00  0.00    +0.069 A 
ATOM     15  C6  UNL     1      22.578   0.760  28.358  0.00  0.00    +0.030 A 
ATOM     16  C7  UNL     1      22.438   2.141  28.134  0.00  0.00    +0.051 A 
ATOM     17  C12 UNL     1      21.643   2.884  29.017  0.00  0.00    +0.138 A 
ATOM     18  N5  UNL     1      21.055   2.281  30.084  0.00  0.00    -0.219 NA
BRANCH  13  19
ATOM     19  O1  UNL     1      20.587   0.348  31.435  0.00  0.00    -0.474 OA
BRANCH  19  21
ATOM     20  C1  UNL     1      18.446  -0.226  32.425  0.00  0.00    +0.051 C 
ATOM     21  C2  UNL     1      19.446   0.888  32.102  0.00  0.00    +0.169 C 
ATOM     22  C3  UNL     1      19.904   1.582  33.383  0.00  0.00    +0.051 C 
ENDBRANCH  19  21
ENDBRANCH  13  19
ENDBRANCH   1  16
TORSDOF 4
ENDMDL
MODEL 4
REMARK VINA RESULT:    -5.336     12.174     14.195
REMARK INTER + INTRA:          -6.995
REMARK INTER:                  -6.617
REMARK INTRA:                  -0.378
REMARK UNBOUND:                -0.411
REMARK  Name = /home/qwerty/github/datacon2025hack/step_04_hit_selection/docking/ligands/lig_539.pdb
REMARK  6 active torsions:
REMARK  status: ('A' for Active; 'I' for Inactive)
REMARK    1  A    between atoms: C1_1  and  C2_2
REMARK    2  A    between atoms: C2_2  and  C3_3
REMARK    3  A    between atoms: C2_2  and  O1_4
REMARK    4  A    between atoms: O1_4  and  C4_5
REMARK    5  A    between atoms: C7_8  and  N1_9
REMARK    6  A    between atoms: N1_9  and  C8_10
REMARK                            x       y       z     vdW  Elec       q    Type
REMARK                         _______ _______ _______ _____ _____    ______ ____
ROOT
ATOM      1  N1  UNL     1       8.799  13.287  29.116  0.00  0.00    -0.297 N 
ATOM      2  H10 UNL     1       8.024  13.962  29.305  0.00  0.00    +0.154 HD
ENDROOT
BRANCH   1   3
ATOM      3  C8  UNL     1       8.439  11.981  28.641  0.00  0.00    +0.143 A 
ATOM      4  C9  UNL     1       8.849  11.511  27.385  0.00  0.00    +0.155 A 
ATOM      5  N2  UNL     1       8.451  10.283  26.968  0.00  0.00    -0.241 NA
ATOM      6  C10 UNL     1       7.654   9.493  27.733  0.00  0.00    +0.146 A 
ATOM      7 BR1  UNL     1       7.152   7.775  27.054  0.00  0.00    -0.025 Br
ATOM      8  C11 UNL     1       7.218   9.968  28.983  0.00  0.00    +0.151 A 
ATOM      9  N3  UNL     1       6.366   9.193  29.830  0.00  0.00    -0.341 N 
ATOM     10  N4  UNL     1       7.620  11.201  29.395  0.00  0.00    -0.213 NA
ATOM     11  H12 UNL     1       6.061   9.577  30.753  0.00  0.00    +0.144 HD
ATOM     12  H13 UNL     1       6.030   8.243  29.560  0.00  0.00    +0.144 HD
ENDBRANCH   1   3
BRANCH   1  16
ATOM     13  C4  UNL     1      12.737  14.668  29.773  0.00  0.00    +0.215 A 
ATOM     14  C5  UNL     1      12.025  14.122  30.843  0.00  0.00    +0.069 A 
ATOM     15  C6  UNL     1      10.725  13.657  30.638  0.00  0.00    +0.030 A 
ATOM     16  C7  UNL     1      10.147  13.725  29.359  0.00  0.00    +0.051 A 
ATOM     17  C12 UNL     1      10.890  14.300  28.319  0.00  0.00    +0.138 A 
ATOM     18  N5  UNL     1      12.154  14.745  28.545  0.00  0.00    -0.219 NA
BRANCH  13  19
ATOM     19  O1  UNL     1      14.042  15.129  29.982  0.00  0.00    -0.474 OA
BRANCH  19  21
ATOM     20  C1  UNL     1      16.142  16.126  29.280  0.00  0.00    +0.051 C 
ATOM     21  C2  UNL     1      15.074  15.065  28.997  0.00  0.00    +0.169 C 
ATOM     22  C3  UNL     1      15.691  13.668  29.017  0.00  0.00    +0.051 C 
ENDBRANCH  19  21
ENDBRANCH  13  19
ENDBRANCH   1  16
TORSDOF 4
ENDMDL
MODEL 5
REMARK VINA RESULT:    -5.224      4.964      9.110
REMARK INTER + INTRA:          -6.857
REMARK INTER:                  -6.646
REMARK INTRA:                  -0.211
REMARK UNBOUND:                -0.411
REMARK  Name = /home/qwerty/github/datacon2025hack/step_04_hit_selection/docking/ligands/lig_539.pdb
REMARK  6 active torsions:
REMARK  status: ('A' for Active; 'I' for Inactive)
REMARK    1  A    between atoms: C1_1  and  C2_2
REMARK    2  A    between atoms: C2_2  and  C3_3
REMARK    3  A    between atoms: C2_2  and  O1_4
REMARK    4  A    between atoms: O1_4  and  C4_5
REMARK    5  A    between atoms: C7_8  and  N1_9
REMARK    6  A    between atoms: N1_9  and  C8_10
REMARK                            x       y       z     vdW  Elec       q    Type
REMARK                         _______ _______ _______ _____ _____    ______ ____
ROOT
ATOM      1  N1  UNL     1      18.060  12.651  36.967  0.00  0.00    -0.297 N 
ATOM      2  H10 UNL     1      18.570  13.522  37.238  0.00  0.00    +0.154 HD
ENDROOT
BRANCH   1   3
ATOM      3  C8  UNL     1      18.847  11.484  36.681  0.00  0.00    +0.143 A 
ATOM      4  C9  UNL     1      19.600  11.370  35.502  0.00  0.00    +0.155 A 
ATOM      5  N2  UNL     1      20.298  10.232  35.263  0.00  0.00    -0.241 NA
ATOM      6  C10 UNL     1      20.281   9.188  36.133  0.00  0.00    +0.146 A 
ATOM      7 BR1  UNL     1      21.304   7.628  35.703  0.00  0.00    -0.025 Br
ATOM      8  C11 UNL     1      19.509   9.286  37.304  0.00  0.00    +0.151 A 
ATOM      9  N3  UNL     1      19.437   8.218  38.252  0.00  0.00    -0.341 N 
ATOM     10  N4  UNL     1      18.810  10.430  37.538  0.00  0.00    -0.213 NA
ATOM     11  H12 UNL     1      18.852   8.324  39.111  0.00  0.00    +0.144 HD
ATOM     12  H13 UNL     1      19.952   7.321  38.118  0.00  0.00    +0.144 HD
ENDBRANCH   1   3
BRANCH   1  16
ATOM     13  C4  UNL     1      13.852  12.852  36.658  0.00  0.00    +0.215 A 
ATOM     14  C5  UNL     1      14.438  11.686  37.155  0.00  0.00    +0.069 A 
ATOM     15  C6  UNL     1      15.827  11.608  37.267  0.00  0.00    +0.030 A 
ATOM     16  C7  UNL     1      16.625  12.705  36.897  0.00  0.00    +0.051 A 
ATOM     17  C12 UNL     1      15.996  13.847  36.385  0.00  0.00    +0.138 A 
ATOM     18  N5  UNL     1      14.641  13.897  36.285  0.00  0.00    -0.219 NA
BRANCH  13  19
ATOM     19  O1  UNL     1      12.458  12.927  36.552  0.00  0.00    -0.474 OA
BRANCH  19  21
ATOM     20  C1  UNL     1      11.373  12.178  34.514  0.00  0.00    +0.051 C 
ATOM     21  C2  UNL     1      11.774  13.375  35.382  0.00  0.00    +0.169 C 
ATOM     22  C3  UNL     1      10.539  14.167  35.803  0.00  0.00    +0.051 C 
ENDBRANCH  19  21
ENDBRANCH  13  19
ENDBRANCH   1  16
TORSDOF 4
ENDMDL
MODEL 6
REMARK VINA RESULT:    -5.205      8.937     11.384
REMARK INTER + INTRA:          -6.834
REMARK INTER:                  -6.468
REMARK INTRA:                  -0.366
REMARK UNBOUND:                -0.411
REMARK  Name = /home/qwerty/github/datacon2025hack/step_04_hit_selection/docking/ligands/lig_539.pdb
REMARK  6 active torsions:
REMARK  status: ('A' for Active; 'I' for Inactive)
REMARK    1  A    between atoms: C1_1  and  C2_2
REMARK    2  A    between atoms: C2_2  and  C3_3
REMARK    3  A    between atoms: C2_2  and  O1_4
REMARK    4  A    between atoms: O1_4  and  C4_5
REMARK    5  A    between atoms: C7_8  and  N1_9
REMARK    6  A    between atoms: N1_9  and  C8_10
REMARK                            x       y       z     vdW  Elec       q    Type
REMARK                         _______ _______ _______ _____ _____    ______ ____
ROOT
ATOM      1  N1  UNL     1      22.113   0.744  28.720  0.00  0.00    -0.297 N 
ATOM      2  H10 UNL     1      22.719  -0.107  28.707  0.00  0.00    +0.154 HD
ENDROOT
BRANCH   1   3
ATOM      3  C8  UNL     1      21.592   1.167  29.989  0.00  0.00    +0.143 A 
ATOM      4  C9  UNL     1      21.844   2.447  30.504  0.00  0.00    +0.155 A 
ATOM      5  N2  UNL     1      21.358   2.784  31.725  0.00  0.00    -0.241 NA
ATOM      6  C10 UNL     1      20.637   1.909  32.473  0.00  0.00    +0.146 A 
ATOM      7 BR1  UNL     1      19.993   2.485  34.181  0.00  0.00    -0.025 Br
ATOM      8  C11 UNL     1      20.402   0.615  31.974  0.00  0.00    +0.151 A 
ATOM      9  N3  UNL     1      19.663  -0.358  32.717  0.00  0.00    -0.341 N 
ATOM     10  N4  UNL     1      20.893   0.283  30.749  0.00  0.00    -0.213 NA
ATOM     11  H12 UNL     1      19.508  -1.310  32.316  0.00  0.00    +0.144 HD
ATOM     12  H13 UNL     1      19.268  -0.153  33.660  0.00  0.00    +0.144 HD
ENDBRANCH   1   3
BRANCH   1  16
ATOM     13  C4  UNL     1      21.235   2.684  25.071  0.00  0.00    +0.215 A 
ATOM     14  C5  UNL     1      22.325   3.125  25.826  0.00  0.00    +0.069 A 
ATOM     15  C6  UNL     1      22.628   2.489  27.031  0.00  0.00    +0.030 A 
ATOM     16  C7  UNL     1      21.852   1.403  27.469  0.00  0.00    +0.051 A 
ATOM     17  C12 UNL     1      20.756   1.007  26.691  0.00  0.00    +0.138 A 
ATOM     18  N5  UNL     1      20.481   1.643  25.521  0.00  0.00    -0.219 NA
BRANCH  13  19
ATOM     19  O1  UNL     1      20.937   3.322  23.862  0.00  0.00    -0.474 OA
BRANCH  19  21
ATOM     20  C1  UNL     1      20.527   5.700  23.595  0.00  0.00    +0.051 C 
ATOM     21  C2  UNL     1      19.910   4.302  23.714  0.00  0.00    +0.169 C 
ATOM     22  C3  UNL     1      19.088   3.975  22.469  0.00  0.00    +0.051 C 
ENDBRANCH  19  21
ENDBRANCH  13  19
ENDBRANCH   1  16
TORSDOF 4
ENDMDL
MODEL 7
REMARK VINA RESULT:    -5.186     18.071     19.772
REMARK INTER + INTRA:          -6.810
REMARK INTER:                  -6.450
REMARK INTRA:                  -0.360
REMARK UNBOUND:                -0.411
REMARK  Name = /home/qwerty/github/datacon2025hack/step_04_hit_selection/docking/ligands/lig_539.pdb
REMARK  6 active torsions:
REMARK  status: ('A' for Active; 'I' for Inactive)
REMARK    1  A    between atoms: C1_1  and  C2_2
REMARK    2  A    between atoms: C2_2  and  C3_3
REMARK    3  A    between atoms: C2_2  and  O1_4
REMARK    4  A    between atoms: O1_4  and  C4_5
REMARK    5  A    between atoms: C7_8  and  N1_9
REMARK    6  A    between atoms: N1_9  and  C8_10
REMARK                            x       y       z     vdW  Elec       q    Type
REMARK                         _______ _______ _______ _____ _____    ______ ____
ROOT
ATOM      1  N1  UNL     1      13.929   4.092  20.926  0.00  0.00    -0.297 N 
ATOM      2  H10 UNL     1      14.533   4.943  20.876  0.00  0.00    +0.154 HD
ENDROOT
BRANCH   1   3
ATOM      3  C8  UNL     1      14.586   2.820  21.033  0.00  0.00    +0.143 A 
ATOM      4  C9  UNL     1      15.267   2.433  22.197  0.00  0.00    +0.155 A 
ATOM      5  N2  UNL     1      15.901   1.235  22.234  0.00  0.00    -0.241 NA
ATOM      6  C10 UNL     1      15.905   0.396  21.165  0.00  0.00    +0.146 A 
ATOM      7 BR1  UNL     1      16.828  -1.274  21.321  0.00  0.00    -0.025 Br
ATOM      8  C11 UNL     1      15.246   0.788  19.986  0.00  0.00    +0.151 A 
ATOM      9  N3  UNL     1      15.226  -0.041  18.821  0.00  0.00    -0.341 N 
ATOM     10  N4  UNL     1      14.612   1.992  19.955  0.00  0.00    -0.213 NA
ATOM     11  H12 UNL     1      14.727   0.282  17.962  0.00  0.00    +0.144 HD
ATOM     12  H13 UNL     1      15.698  -0.971  18.794  0.00  0.00    +0.144 HD
ENDBRANCH   1   3
BRANCH   1  16
ATOM     13  C4  UNL     1       9.751   4.658  20.664  0.00  0.00    +0.215 A 
ATOM     14  C5  UNL     1      10.239   3.489  21.253  0.00  0.00    +0.069 A 
ATOM     15  C6  UNL     1      11.617   3.293  21.350  0.00  0.00    +0.030 A 
ATOM     16  C7  UNL     1      12.504   4.273  20.873  0.00  0.00    +0.051 A 
ATOM     17  C12 UNL     1      11.971   5.421  20.271  0.00  0.00    +0.138 A 
ATOM     18  N5  UNL     1      10.624   5.589  20.188  0.00  0.00    -0.219 NA
BRANCH  13  19
ATOM     19  O1  UNL     1       8.368   4.853  20.572  0.00  0.00    -0.474 OA
BRANCH  19  21
ATOM     20  C1  UNL     1       6.409   6.259  20.854  0.00  0.00    +0.051 C 
ATOM     21  C2  UNL     1       7.604   5.583  21.533  0.00  0.00    +0.169 C 
ATOM     22  C3  UNL     1       7.128   4.622  22.619  0.00  0.00    +0.051 C 
ENDBRANCH  19  21
ENDBRANCH  13  19
ENDBRANCH   1  16
TORSDOF 4
ENDMDL
MODEL 8
REMARK VINA RESULT:    -5.186      8.210     11.019
REMARK INTER + INTRA:          -6.810
REMARK INTER:                  -6.524
REMARK INTRA:                  -0.286
REMARK UNBOUND:                -0.411
REMARK  Name = /home/qwerty/github/datacon2025hack/step_04_hit_selection/docking/ligands/lig_539.pdb
REMARK  6 active torsions:
REMARK  status: ('A' for Active; 'I' for Inactive)
REMARK    1  A    between atoms: C1_1  and  C2_2
REMARK    2  A    between atoms: C2_2  and  C3_3
REMARK    3  A    between atoms: C2_2  and  O1_4
REMARK    4  A    between atoms: O1_4  and  C4_5
REMARK    5  A    between atoms: C7_8  and  N1_9
REMARK    6  A    between atoms: N1_9  and  C8_10
REMARK                            x       y       z     vdW  Elec       q    Type
REMARK                         _______ _______ _______ _____ _____    ______ ____
ROOT
ATOM      1  N1  UNL     1      22.276   0.880  29.072  0.00  0.00    -0.297 N 
ATOM      2  H10 UNL     1      23.025   0.151  29.045  0.00  0.00    +0.154 HD
ENDROOT
BRANCH   1   3
ATOM      3  C8  UNL     1      21.842   1.429  27.818  0.00  0.00    +0.143 A 
ATOM      4  C9  UNL     1      20.644   1.028  27.210  0.00  0.00    +0.155 A 
ATOM      5  N2  UNL     1      20.297   1.551  26.007  0.00  0.00    -0.241 NA
ATOM      6  C10 UNL     1      21.087   2.452  25.366  0.00  0.00    +0.146 A 
ATOM      7 BR1  UNL     1      20.504   3.133  23.674  0.00  0.00    -0.025 Br
ATOM      8  C11 UNL     1      22.302   2.839  25.958  0.00  0.00    +0.151 A 
ATOM      9  N3  UNL     1      23.185   3.771  25.329  0.00  0.00    -0.341 N 
ATOM     10  N4  UNL     1      22.645   2.310  27.164  0.00  0.00    -0.213 NA
ATOM     11  H12 UNL     1      24.081   4.036  25.797  0.00  0.00    +0.144 HD
ATOM     12  H13 UNL     1      22.969   4.204  24.405  0.00  0.00    +0.144 HD
ENDBRANCH   1   3
BRANCH   1  16
ATOM     13  C4  UNL     1      20.774   1.919  32.881  0.00  0.00    +0.215 A 
ATOM     14  C5  UNL     1      21.752   2.727  32.296  0.00  0.00    +0.069 A 
ATOM     15  C6  UNL     1      22.253   2.397  31.036  0.00  0.00    +0.030 A 
ATOM     16  C7  UNL     1      21.762   1.270  30.356  0.00  0.00    +0.051 A 
ATOM     17  C12 UNL     1      20.797   0.475  30.989  0.00  0.00    +0.138 A 
ATOM     18  N5  UNL     1      20.325   0.817  32.217  0.00  0.00    -0.219 NA
BRANCH  13  19
ATOM     19  O1  UNL     1      20.272   2.255  34.143  0.00  0.00    -0.474 OA
BRANCH  19  21
ATOM     20  C1  UNL     1      18.479   3.559  33.155  0.00  0.00    +0.051 C 
ATOM     21  C2  UNL     1      18.951   2.749  34.366  0.00  0.00    +0.169 C 
ATOM     22  C3  UNL     1      18.016   1.567  34.614  0.00  0.00    +0.051 C 
ENDBRANCH  19  21
ENDBRANCH  13  19
ENDBRANCH   1  16
TORSDOF 4
ENDMDL
MODEL 9
REMARK VINA RESULT:    -5.171     12.600     14.797
REMARK INTER + INTRA:          -6.791
REMARK INTER:                  -6.372
REMARK INTRA:                  -0.419
REMARK UNBOUND:                -0.411
REMARK  Name = /home/qwerty/github/datacon2025hack/step_04_hit_selection/docking/ligands/lig_539.pdb
REMARK  6 active torsions:
REMARK  status: ('A' for Active; 'I' for Inactive)
REMARK    1  A    between atoms: C1_1  and  C2_2
REMARK    2  A    between atoms: C2_2  and  C3_3
REMARK    3  A    between atoms: C2_2  and  O1_4
REMARK    4  A    between atoms: O1_4  and  C4_5
REMARK    5  A    between atoms: C7_8  and  N1_9
REMARK    6  A    between atoms: N1_9  and  C8_10
REMARK                            x       y       z     vdW  Elec       q    Type
REMARK                         _______ _______ _______ _____ _____    ______ ____
ROOT
ATOM      1  N1  UNL     1      10.543  14.431  27.725  0.00  0.00    -0.297 N 
ATOM      2  H10 UNL     1      10.158  15.162  27.086  0.00  0.00    +0.154 HD
ENDROOT
BRANCH   1   3
ATOM      3  C8  UNL     1      11.891  14.599  28.188  0.00  0.00    +0.143 A 
ATOM      4  C9  UNL     1      12.207  14.623  29.555  0.00  0.00    +0.155 A 
ATOM      5  N2  UNL     1      13.492  14.821  29.940  0.00  0.00    -0.241 NA
ATOM      6  C10 UNL     1      14.488  15.008  29.035  0.00  0.00    +0.146 A 
ATOM      7 BR1  UNL     1      16.269  15.275  29.684  0.00  0.00    -0.025 Br
ATOM      8  C11 UNL     1      14.175  15.010  27.664  0.00  0.00    +0.151 A 
ATOM      9  N3  UNL     1      15.174  15.216  26.662  0.00  0.00    -0.341 N 
ATOM     10  N4  UNL     1      12.883  14.812  27.284  0.00  0.00    -0.213 NA
ATOM     11  H12 UNL     1      14.906  15.212  25.653  0.00  0.00    +0.144 HD
ATOM     12  H13 UNL     1      16.177  15.373  26.902  0.00  0.00    +0.144 HD
ENDBRANCH   1   3
BRANCH   1  16
ATOM     13  C4  UNL     1       8.136  11.112  28.746  0.00  0.00    +0.215 A 
ATOM     14  C5  UNL     1       7.908  12.334  29.383  0.00  0.00    +0.069 A 
ATOM     15  C6  UNL     1       8.693  13.439  29.051  0.00  0.00    +0.030 A 
ATOM     16  C7  UNL     1       9.692  13.324  28.070  0.00  0.00    +0.051 A 
ATOM     17  C12 UNL     1       9.900  12.074  27.471  0.00  0.00    +0.138 A 
ATOM     18  N5  UNL     1       9.122  11.013  27.812  0.00  0.00    -0.219 NA
BRANCH  13  19
ATOM     19  O1  UNL     1       7.344  10.008  29.079  0.00  0.00    -0.474 OA
BRANCH  19  21
ATOM     20  C1  UNL     1       7.105   8.470  30.943  0.00  0.00    +0.051 C 
ATOM     21  C2  UNL     1       7.858   8.806  29.652  0.00  0.00    +0.169 C 
ATOM     22  C3  UNL     1       7.712   7.672  28.639  0.00  0.00    +0.051 C 
ENDBRANCH  19  21
ENDBRANCH  13  19
ENDBRANCH   1  16
TORSDOF 4
ENDMDL
