MODEL 1
REMARK VINA RESULT:    -8.289      0.000      0.000
REMARK INTER + INTRA:         -10.420
REMARK INTER:                  -9.743
REMARK INTRA:                  -0.677
REMARK UNBOUND:                -0.677
REMARK  Name = /home/qwerty/github/datacon2025hack/step_04_hit_selection/docking/ligands/lig_569.pdb
REMARK  4 active torsions:
REMARK  status: ('A' for Active; 'I' for Inactive)
REMARK    1  A    between atoms: C1_1  and  C2_2
REMARK    2  A    between atoms: C7_8  and  C8_9
REMARK    3  A    between atoms: C9_11  and  C10_12
REMARK    4  A    between atoms: C14_18  and  C15_19
REMARK                            x       y       z     vdW  Elec       q    Type
REMARK                         _______ _______ _______ _____ _____    ______ ____
ROOT
ATOM      1  C10 UNL     1      10.136  12.570  28.678  0.00  0.00    +0.023 A 
ATOM      2  C11 UNL     1      10.766  13.404  27.713  0.00  0.00    +0.014 A 
ATOM      3  C12 UNL     1      11.675  14.401  28.108  0.00  0.00    +0.028 A 
ATOM      4  C13 UNL     1      11.921  14.550  29.469  0.00  0.00    +0.066 A 
ATOM      5  N2  UNL     1      12.774  15.395  30.069  0.00  0.00    -0.276 N 
ATOM      6  N3  UNL     1      12.727  15.182  31.378  0.00  0.00    -0.173 NA
ATOM      7  C14 UNL     1      11.827  14.198  31.621  0.00  0.00    +0.100 A 
ATOM      8  C21 UNL     1      11.306  13.772  30.408  0.00  0.00    +0.028 A 
ATOM      9  C22 UNL     1      10.421  12.753  30.052  0.00  0.00    +0.024 A 
ATOM     10  H9  UNL     1      13.390  16.098  29.604  0.00  0.00    +0.189 HD
ENDROOT
BRANCH   7  11
ATOM     11  C15 UNL     1      11.511  13.698  32.975  0.00  0.00    +0.008 A 
ATOM     12  C16 UNL     1      10.827  14.526  33.880  0.00  0.00    +0.051 A 
ATOM     13  C17 UNL     1      10.511  14.064  35.162  0.00  0.00    +0.162 A 
ATOM     14  F2  UNL     1       9.861  14.876  36.032  0.00  0.00    -0.202 F 
ATOM     15  C18 UNL     1      10.864  12.767  35.546  0.00  0.00    +0.193 A 
ATOM     16  F3  UNL     1      10.557  12.318  36.788  0.00  0.00    -0.199 F 
ATOM     17  C19 UNL     1      11.526  11.928  34.644  0.00  0.00    +0.162 A 
ATOM     18  F4  UNL     1      11.852  10.662  35.006  0.00  0.00    -0.202 F 
ATOM     19  C20 UNL     1      11.843  12.388  33.361  0.00  0.00    +0.051 A 
ENDBRANCH   7  11
BRANCH   1  22
ATOM     20  C8  UNL     1       8.164   9.696  28.089  0.00  0.00    +0.259 A 
ATOM     21  N1  UNL     1       9.155  10.279  28.795  0.00  0.00    -0.187 NA
ATOM     22  C9  UNL     1       9.197  11.512  28.249  0.00  0.00    +0.202 A 
ATOM     23  N4  UNL     1       8.286  11.667  27.269  0.00  0.00    -0.056 NA
ATOM     24  O1  UNL     1       7.670  10.527  27.203  0.00  0.00    -0.332 OA
BRANCH  20  32
ATOM     25  C1  UNL     1       7.179   8.700  30.786  0.00  0.00    +0.044 C 
ATOM     26  C2  UNL     1       7.244   7.820  29.565  0.00  0.00    -0.035 A 
ATOM     27  C3  UNL     1       6.829   6.480  29.684  0.00  0.00    +0.042 A 
ATOM     28  C4  UNL     1       6.868   5.620  28.586  0.00  0.00    +0.124 A 
ATOM     29  F1  UNL     1       6.465   4.333  28.719  0.00  0.00    -0.205 F 
ATOM     30  C5  UNL     1       7.320   6.084  27.354  0.00  0.00    +0.039 A 
ATOM     31  C6  UNL     1       7.735   7.408  27.213  0.00  0.00    +0.016 A 
ATOM     32  C7  UNL     1       7.707   8.297  28.306  0.00  0.00    +0.043 A 
ENDBRANCH  20  32
ENDBRANCH   1  22
TORSDOF 3
ENDMDL
MODEL 2
REMARK VINA RESULT:    -8.202      1.384      2.145
REMARK INTER + INTRA:         -10.318
REMARK INTER:                  -9.605
REMARK INTRA:                  -0.714
REMARK UNBOUND:                -0.677
REMARK  Name = /home/qwerty/github/datacon2025hack/step_04_hit_selection/docking/ligands/lig_569.pdb
REMARK  4 active torsions:
REMARK  status: ('A' for Active; 'I' for Inactive)
REMARK    1  A    between atoms: C1_1  and  C2_2
REMARK    2  A    between atoms: C7_8  and  C8_9
REMARK    3  A    between atoms: C9_11  and  C10_12
REMARK    4  A    between atoms: C14_18  and  C15_19
REMARK                            x       y       z     vdW  Elec       q    Type
REMARK                         _______ _______ _______ _____ _____    ______ ____
ROOT
ATOM      1  C10 UNL     1       9.832  12.520  29.199  0.00  0.00    +0.023 A 
ATOM      2  C11 UNL     1      10.161  13.192  27.990  0.00  0.00    +0.014 A 
ATOM      3  C12 UNL     1      11.141  14.200  27.971  0.00  0.00    +0.028 A 
ATOM      4  C13 UNL     1      11.759  14.525  29.174  0.00  0.00    +0.066 A 
ATOM      5  N2  UNL     1      12.742  15.413  29.386  0.00  0.00    -0.276 N 
ATOM      6  N3  UNL     1      13.067  15.383  30.673  0.00  0.00    -0.173 NA
ATOM      7  C14 UNL     1      12.276  14.473  31.294  0.00  0.00    +0.100 A 
ATOM      8  C21 UNL     1      11.436  13.904  30.347  0.00  0.00    +0.028 A 
ATOM      9  C22 UNL     1      10.491  12.879  30.399  0.00  0.00    +0.024 A 
ATOM     10  H9  UNL     1      13.200  16.024  28.674  0.00  0.00    +0.189 HD
ENDROOT
BRANCH   7  11
ATOM     11  C15 UNL     1      12.356  14.175  32.739  0.00  0.00    +0.008 A 
ATOM     12  C16 UNL     1      13.598  13.868  33.317  0.00  0.00    +0.051 A 
ATOM     13  C17 UNL     1      13.692  13.594  34.686  0.00  0.00    +0.162 A 
ATOM     14  F2  UNL     1      14.895  13.287  35.233  0.00  0.00    -0.202 F 
ATOM     15  C18 UNL     1      12.549  13.638  35.489  0.00  0.00    +0.193 A 
ATOM     16  F3  UNL     1      12.641  13.374  36.817  0.00  0.00    -0.199 F 
ATOM     17  C19 UNL     1      11.312  13.964  34.926  0.00  0.00    +0.162 A 
ATOM     18  F4  UNL     1      10.205  14.028  35.707  0.00  0.00    -0.202 F 
ATOM     19  C20 UNL     1      11.215  14.238  33.557  0.00  0.00    +0.051 A 
ENDBRANCH   7  11
BRANCH   1  22
ATOM     20  C8  UNL     1       7.853   9.600  28.981  0.00  0.00    +0.259 A 
ATOM     21  N1  UNL     1       9.053  10.186  28.790  0.00  0.00    -0.187 NA
ATOM     22  C9  UNL     1       8.815  11.448  29.203  0.00  0.00    +0.202 A 
ATOM     23  N4  UNL     1       7.545  11.617  29.619  0.00  0.00    -0.056 NA
ATOM     24  O1  UNL     1       6.986  10.456  29.466  0.00  0.00    -0.332 OA
BRANCH  20  32
ATOM     25  C1  UNL     1       7.604   8.558  26.137  0.00  0.00    +0.044 C 
ATOM     26  C2  UNL     1       7.453   7.672  27.347  0.00  0.00    -0.035 A 
ATOM     27  C3  UNL     1       7.187   6.305  27.146  0.00  0.00    +0.042 A 
ATOM     28  C4  UNL     1       7.039   5.439  28.229  0.00  0.00    +0.124 A 
ATOM     29  F1  UNL     1       6.783   4.125  28.016  0.00  0.00    -0.205 F 
ATOM     30  C5  UNL     1       7.155   5.924  29.529  0.00  0.00    +0.039 A 
ATOM     31  C6  UNL     1       7.420   7.274  29.752  0.00  0.00    +0.016 A 
ATOM     32  C7  UNL     1       7.572   8.171  28.675  0.00  0.00    +0.043 A 
ENDBRANCH  20  32
ENDBRANCH   1  22
TORSDOF 3
ENDMDL
MODEL 3
REMARK VINA RESULT:    -8.090      5.004     10.028
REMARK INTER + INTRA:         -10.186
REMARK INTER:                  -9.432
REMARK INTRA:                  -0.754
REMARK UNBOUND:                -0.677
REMARK  Name = /home/qwerty/github/datacon2025hack/step_04_hit_selection/docking/ligands/lig_569.pdb
REMARK  4 active torsions:
REMARK  status: ('A' for Active; 'I' for Inactive)
REMARK    1  A    between atoms: C1_1  and  C2_2
REMARK    2  A    between atoms: C7_8  and  C8_9
REMARK    3  A    between atoms: C9_11  and  C10_12
REMARK    4  A    between atoms: C14_18  and  C15_19
REMARK                            x       y       z     vdW  Elec       q    Type
REMARK                         _______ _______ _______ _____ _____    ______ ____
ROOT
ATOM      1  C10 UNL     1       9.424  11.725  28.667  0.00  0.00    +0.023 A 
ATOM      2  C11 UNL     1       8.636  11.140  29.696  0.00  0.00    +0.014 A 
ATOM      3  C12 UNL     1       7.704  10.129  29.401  0.00  0.00    +0.028 A 
ATOM      4  C13 UNL     1       7.573   9.737  28.073  0.00  0.00    +0.066 A 
ATOM      5  N2  UNL     1       6.790   8.771  27.569  0.00  0.00    -0.276 N 
ATOM      6  N3  UNL     1       6.999   8.699  26.260  0.00  0.00    -0.173 NA
ATOM      7  C14 UNL     1       7.919   9.636  25.921  0.00  0.00    +0.100 A 
ATOM      8  C21 UNL     1       8.307  10.306  27.072  0.00  0.00    +0.028 A 
ATOM      9  C22 UNL     1       9.262  11.290  27.330  0.00  0.00    +0.024 A 
ATOM     10  H9  UNL     1       6.131   8.158  28.099  0.00  0.00    +0.189 HD
ENDROOT
BRANCH   7  11
ATOM     11  C15 UNL     1       8.396   9.846  24.538  0.00  0.00    +0.008 A 
ATOM     12  C16 UNL     1       7.544  10.436  23.591  0.00  0.00    +0.051 A 
ATOM     13  C17 UNL     1       7.985  10.651  22.281  0.00  0.00    +0.162 A 
ATOM     14  F2  UNL     1       7.149  11.211  21.370  0.00  0.00    -0.202 F 
ATOM     15  C18 UNL     1       9.284  10.292  21.911  0.00  0.00    +0.193 A 
ATOM     16  F3  UNL     1       9.712  10.503  20.641  0.00  0.00    -0.199 F 
ATOM     17  C19 UNL     1      10.146   9.724  22.853  0.00  0.00    +0.162 A 
ATOM     18  F4  UNL     1      11.415   9.394  22.503  0.00  0.00    -0.202 F 
ATOM     19  C20 UNL     1       9.708   9.508  24.164  0.00  0.00    +0.051 A 
ENDBRANCH   7  11
BRANCH   1  22
ATOM     20  C8  UNL     1      12.159  13.933  29.043  0.00  0.00    +0.259 A 
ATOM     21  N1  UNL     1      11.650  12.832  28.453  0.00  0.00    -0.187 NA
ATOM     22  C9  UNL     1      10.414  12.774  28.991  0.00  0.00    +0.202 A 
ATOM     23  N4  UNL     1      10.188  13.780  29.857  0.00  0.00    -0.056 NA
ATOM     24  O1  UNL     1      11.286  14.472  29.860  0.00  0.00    -0.332 OA
BRANCH  20  32
ATOM     25  C1  UNL     1      13.038  14.931  26.311  0.00  0.00    +0.044 C 
ATOM     26  C2  UNL     1      13.952  14.921  27.509  0.00  0.00    -0.035 A 
ATOM     27  C3  UNL     1      15.268  15.395  27.350  0.00  0.00    +0.042 A 
ATOM     28  C4  UNL     1      16.156  15.409  28.425  0.00  0.00    +0.124 A 
ATOM     29  F1  UNL     1      17.420  15.870  28.254  0.00  0.00    -0.205 F 
ATOM     30  C5  UNL     1      15.746  14.951  29.674  0.00  0.00    +0.039 A 
ATOM     31  C6  UNL     1      14.447  14.477  29.854  0.00  0.00    +0.016 A 
ATOM     32  C7  UNL     1      13.529  14.451  28.785  0.00  0.00    +0.043 A 
ENDBRANCH  20  32
ENDBRANCH   1  22
TORSDOF 3
ENDMDL
MODEL 4
REMARK VINA RESULT:    -8.046     12.748     14.015
REMARK INTER + INTRA:         -10.134
REMARK INTER:                  -9.346
REMARK INTRA:                  -0.788
REMARK UNBOUND:                -0.677
REMARK  Name = /home/qwerty/github/datacon2025hack/step_04_hit_selection/docking/ligands/lig_569.pdb
REMARK  4 active torsions:
REMARK  status: ('A' for Active; 'I' for Inactive)
REMARK    1  A    between atoms: C1_1  and  C2_2
REMARK    2  A    between atoms: C7_8  and  C8_9
REMARK    3  A    between atoms: C9_11  and  C10_12
REMARK    4  A    between atoms: C14_18  and  C15_19
REMARK                            x       y       z     vdW  Elec       q    Type
REMARK                         _______ _______ _______ _____ _____    ______ ____
ROOT
ATOM      1  C10 UNL     1      22.245   5.475  33.999  0.00  0.00    +0.023 A 
ATOM      2  C11 UNL     1      23.564   5.864  34.356  0.00  0.00    +0.014 A 
ATOM      3  C12 UNL     1      23.813   6.537  35.566  0.00  0.00    +0.028 A 
ATOM      4  C13 UNL     1      22.724   6.820  36.384  0.00  0.00    +0.066 A 
ATOM      5  N2  UNL     1      22.727   7.406  37.591  0.00  0.00    -0.276 N 
ATOM      6  N3  UNL     1      21.479   7.447  38.043  0.00  0.00    -0.173 NA
ATOM      7  C14 UNL     1      20.667   6.890  37.110  0.00  0.00    +0.100 A 
ATOM      8  C21 UNL     1      21.449   6.472  36.042  0.00  0.00    +0.028 A 
ATOM      9  C22 UNL     1      21.168   5.778  34.865  0.00  0.00    +0.024 A 
ATOM     10  H9  UNL     1      23.558   7.764  38.113  0.00  0.00    +0.189 HD
ENDROOT
BRANCH   7  11
ATOM     11  C15 UNL     1      19.204   6.767  37.273  0.00  0.00    +0.008 A 
ATOM     12  C16 UNL     1      18.608   5.495  37.266  0.00  0.00    +0.051 A 
ATOM     13  C17 UNL     1      17.225   5.361  37.431  0.00  0.00    +0.162 A 
ATOM     14  F2  UNL     1      16.659   4.129  37.411  0.00  0.00    -0.202 F 
ATOM     15  C18 UNL     1      16.429   6.495  37.616  0.00  0.00    +0.193 A 
ATOM     16  F3  UNL     1      15.088   6.365  37.777  0.00  0.00    -0.199 F 
ATOM     17  C19 UNL     1      17.017   7.763  37.646  0.00  0.00    +0.162 A 
ATOM     18  F4  UNL     1      16.249   8.864  37.848  0.00  0.00    -0.202 F 
ATOM     19  C20 UNL     1      18.399   7.899  37.482  0.00  0.00    +0.051 A 
ENDBRANCH   7  11
BRANCH   1  22
ATOM     20  C8  UNL     1      21.949   3.271  31.251  0.00  0.00    +0.259 A 
ATOM     21  N1  UNL     1      22.391   3.480  32.508  0.00  0.00    -0.187 NA
ATOM     22  C9  UNL     1      21.998   4.750  32.734  0.00  0.00    +0.202 A 
ATOM     23  N4  UNL     1      21.357   5.282  31.675  0.00  0.00    -0.056 NA
ATOM     24  O1  UNL     1      21.347   4.339  30.784  0.00  0.00    -0.332 OA
BRANCH  20  32
ATOM     25  C1  UNL     1      19.722   1.224  30.964  0.00  0.00    +0.044 C 
ATOM     26  C2  UNL     1      21.093   1.026  30.371  0.00  0.00    -0.035 A 
ATOM     27  C3  UNL     1      21.348  -0.158  29.655  0.00  0.00    +0.042 A 
ATOM     28  C4  UNL     1      22.599  -0.393  29.085  0.00  0.00    +0.124 A 
ATOM     29  F1  UNL     1      22.826  -1.540  28.398  0.00  0.00    -0.205 F 
ATOM     30  C5  UNL     1      23.614   0.550  29.220  0.00  0.00    +0.039 A 
ATOM     31  C6  UNL     1      23.384   1.731  29.925  0.00  0.00    +0.016 A 
ATOM     32  C7  UNL     1      22.130   1.993  30.512  0.00  0.00    +0.043 A 
ENDBRANCH  20  32
ENDBRANCH   1  22
TORSDOF 3
ENDMDL
MODEL 5
REMARK VINA RESULT:    -7.961      4.566     10.054
REMARK INTER + INTRA:         -10.034
REMARK INTER:                  -9.221
REMARK INTRA:                  -0.813
REMARK UNBOUND:                -0.677
REMARK  Name = /home/qwerty/github/datacon2025hack/step_04_hit_selection/docking/ligands/lig_569.pdb
REMARK  4 active torsions:
REMARK  status: ('A' for Active; 'I' for Inactive)
REMARK    1  A    between atoms: C1_1  and  C2_2
REMARK    2  A    between atoms: C7_8  and  C8_9
REMARK    3  A    between atoms: C9_11  and  C10_12
REMARK    4  A    between atoms: C14_18  and  C15_19
REMARK                            x       y       z     vdW  Elec       q    Type
REMARK                         _______ _______ _______ _____ _____    ______ ____
ROOT
ATOM      1  C10 UNL     1       9.293  11.806  28.143  0.00  0.00    +0.023 A 
ATOM      2  C11 UNL     1       8.616  11.454  29.342  0.00  0.00    +0.014 A 
ATOM      3  C12 UNL     1       7.710  10.379  29.368  0.00  0.00    +0.028 A 
ATOM      4  C13 UNL     1       7.492   9.688  28.180  0.00  0.00    +0.066 A 
ATOM      5  N2  UNL     1       6.715   8.612  27.979  0.00  0.00    -0.276 N 
ATOM      6  N3  UNL     1       6.824   8.246  26.707  0.00  0.00    -0.173 NA
ATOM      7  C14 UNL     1       7.671   9.103  26.085  0.00  0.00    +0.100 A 
ATOM      8  C21 UNL     1       8.119  10.030  27.016  0.00  0.00    +0.028 A 
ATOM      9  C22 UNL     1       9.046  11.071  26.959  0.00  0.00    +0.024 A 
ATOM     10  H9  UNL     1       6.128   8.121  28.689  0.00  0.00    +0.189 HD
ENDROOT
BRANCH   7  11
ATOM     11  C15 UNL     1       8.028   9.001  24.655  0.00  0.00    +0.008 A 
ATOM     12  C16 UNL     1       7.735  10.066  23.788  0.00  0.00    +0.051 A 
ATOM     13  C17 UNL     1       8.076   9.989  22.433  0.00  0.00    +0.162 A 
ATOM     14  F2  UNL     1       7.778  11.019  21.602  0.00  0.00    -0.202 F 
ATOM     15  C18 UNL     1       8.724   8.855  21.937  0.00  0.00    +0.193 A 
ATOM     16  F3  UNL     1       9.057   8.781  20.624  0.00  0.00    -0.199 F 
ATOM     17  C19 UNL     1       9.039   7.799  22.798  0.00  0.00    +0.162 A 
ATOM     18  F4  UNL     1       9.687   6.705  22.324  0.00  0.00    -0.202 F 
ATOM     19  C20 UNL     1       8.699   7.873  24.153  0.00  0.00    +0.051 A 
ENDBRANCH   7  11
BRANCH   1  22
ATOM     20  C8  UNL     1      12.019  14.053  28.274  0.00  0.00    +0.259 A 
ATOM     21  N1  UNL     1      11.571  12.788  28.409  0.00  0.00    -0.187 NA
ATOM     22  C9  UNL     1      10.258  12.926  28.133  0.00  0.00    +0.202 A 
ATOM     23  N4  UNL     1       9.929  14.200  27.848  0.00  0.00    -0.056 NA
ATOM     24  O1  UNL     1      11.040  14.862  27.945  0.00  0.00    -0.332 OA
BRANCH  20  32
ATOM     25  C1  UNL     1      13.097  14.945  30.971  0.00  0.00    +0.044 C 
ATOM     26  C2  UNL     1      13.953  14.875  29.734  0.00  0.00    -0.035 A 
ATOM     27  C3  UNL     1      15.309  15.238  29.836  0.00  0.00    +0.042 A 
ATOM     28  C4  UNL     1      16.147  15.192  28.723  0.00  0.00    +0.124 A 
ATOM     29  F1  UNL     1      17.451  15.545  28.841  0.00  0.00    -0.205 F 
ATOM     30  C5  UNL     1      15.646  14.781  27.490  0.00  0.00    +0.039 A 
ATOM     31  C6  UNL     1      14.306  14.416  27.365  0.00  0.00    +0.016 A 
ATOM     32  C7  UNL     1      13.437  14.455  28.474  0.00  0.00    +0.043 A 
ENDBRANCH  20  32
ENDBRANCH   1  22
TORSDOF 3
ENDMDL
MODEL 6
REMARK VINA RESULT:    -7.883     13.507     16.191
REMARK INTER + INTRA:          -9.943
REMARK INTER:                  -9.205
REMARK INTRA:                  -0.738
REMARK UNBOUND:                -0.677
REMARK  Name = /home/qwerty/github/datacon2025hack/step_04_hit_selection/docking/ligands/lig_569.pdb
REMARK  4 active torsions:
REMARK  status: ('A' for Active; 'I' for Inactive)
REMARK    1  A    between atoms: C1_1  and  C2_2
REMARK    2  A    between atoms: C7_8  and  C8_9
REMARK    3  A    between atoms: C9_11  and  C10_12
REMARK    4  A    between atoms: C14_18  and  C15_19
REMARK                            x       y       z     vdW  Elec       q    Type
REMARK                         _______ _______ _______ _____ _____    ______ ____
ROOT
ATOM      1  C10 UNL     1      21.193   1.894  28.284  0.00  0.00    +0.023 A 
ATOM      2  C11 UNL     1      22.276   2.749  27.941  0.00  0.00    +0.014 A 
ATOM      3  C12 UNL     1      22.502   3.122  26.604  0.00  0.00    +0.028 A 
ATOM      4  C13 UNL     1      21.641   2.614  25.636  0.00  0.00    +0.066 A 
ATOM      5  N2  UNL     1      21.637   2.867  24.318  0.00  0.00    -0.276 N 
ATOM      6  N3  UNL     1      20.625   2.209  23.767  0.00  0.00    -0.173 NA
ATOM      7  C14 UNL     1      19.980   1.519  24.740  0.00  0.00    +0.100 A 
ATOM      8  C21 UNL     1      20.611   1.774  25.949  0.00  0.00    +0.028 A 
ATOM      9  C22 UNL     1      20.339   1.406  27.267  0.00  0.00    +0.024 A 
ATOM     10  H9  UNL     1      22.298   3.484  23.796  0.00  0.00    +0.189 HD
ENDROOT
BRANCH   7  11
ATOM     11  C15 UNL     1      18.799   0.667  24.490  0.00  0.00    +0.008 A 
ATOM     12  C16 UNL     1      17.733   1.164  23.722  0.00  0.00    +0.051 A 
ATOM     13  C17 UNL     1      16.613   0.367  23.467  0.00  0.00    +0.162 A 
ATOM     14  F2  UNL     1      15.584   0.861  22.735  0.00  0.00    -0.202 F 
ATOM     15  C18 UNL     1      16.554  -0.938  23.964  0.00  0.00    +0.193 A 
ATOM     16  F3  UNL     1      15.469  -1.713  23.715  0.00  0.00    -0.199 F 
ATOM     17  C19 UNL     1      17.621  -1.449  24.711  0.00  0.00    +0.162 A 
ATOM     18  F4  UNL     1      17.576  -2.723  25.177  0.00  0.00    -0.202 F 
ATOM     19  C20 UNL     1      18.742  -0.653  24.967  0.00  0.00    +0.051 A 
ENDBRANCH   7  11
BRANCH   1  22
ATOM     20  C8  UNL     1      20.188   1.455  31.645  0.00  0.00    +0.259 A 
ATOM     21  N1  UNL     1      20.033   2.120  30.481  0.00  0.00    -0.187 NA
ATOM     22  C9  UNL     1      20.953   1.525  29.695  0.00  0.00    +0.202 A 
ATOM     23  N4  UNL     1      21.628   0.556  30.344  0.00  0.00    -0.056 NA
ATOM     24  O1  UNL     1      21.127   0.545  31.541  0.00  0.00    -0.332 OA
BRANCH  20  32
ATOM     25  C1  UNL     1      18.067  -0.460  32.677  0.00  0.00    +0.044 C 
ATOM     26  C2  UNL     1      18.394   0.842  33.362  0.00  0.00    -0.035 A 
ATOM     27  C3  UNL     1      17.684   1.180  34.529  0.00  0.00    +0.042 A 
ATOM     28  C4  UNL     1      17.945   2.373  35.203  0.00  0.00    +0.124 A 
ATOM     29  F1  UNL     1      17.251   2.683  36.326  0.00  0.00    -0.205 F 
ATOM     30  C5  UNL     1      18.919   3.245  34.724  0.00  0.00    +0.039 A 
ATOM     31  C6  UNL     1      19.635   2.930  33.570  0.00  0.00    +0.016 A 
ATOM     32  C7  UNL     1      19.390   1.732  32.869  0.00  0.00    +0.043 A 
ENDBRANCH  20  32
ENDBRANCH   1  22
TORSDOF 3
ENDMDL
MODEL 7
REMARK VINA RESULT:    -7.851     13.901     14.970
REMARK INTER + INTRA:          -9.905
REMARK INTER:                  -9.240
REMARK INTRA:                  -0.665
REMARK UNBOUND:                -0.677
REMARK  Name = /home/qwerty/github/datacon2025hack/step_04_hit_selection/docking/ligands/lig_569.pdb
REMARK  4 active torsions:
REMARK  status: ('A' for Active; 'I' for Inactive)
REMARK    1  A    between atoms: C1_1  and  C2_2
REMARK    2  A    between atoms: C7_8  and  C8_9
REMARK    3  A    between atoms: C9_11  and  C10_12
REMARK    4  A    between atoms: C14_18  and  C15_19
REMARK                            x       y       z     vdW  Elec       q    Type
REMARK                         _______ _______ _______ _____ _____    ______ ____
ROOT
ATOM      1  C10 UNL     1      21.402   2.008  29.666  0.00  0.00    +0.023 A 
ATOM      2  C11 UNL     1      20.805   0.753  29.965  0.00  0.00    +0.014 A 
ATOM      3  C12 UNL     1      20.458   0.418  31.286  0.00  0.00    +0.028 A 
ATOM      4  C13 UNL     1      20.735   1.348  32.283  0.00  0.00    +0.066 A 
ATOM      5  N2  UNL     1      20.455   1.265  33.593  0.00  0.00    -0.276 N 
ATOM      6  N3  UNL     1      20.854   2.387  34.181  0.00  0.00    -0.173 NA
ATOM      7  C14 UNL     1      21.406   3.192  33.239  0.00  0.00    +0.100 A 
ATOM      8  C21 UNL     1      21.329   2.547  32.012  0.00  0.00    +0.028 A 
ATOM      9  C22 UNL     1      21.660   2.926  30.711  0.00  0.00    +0.024 A 
ATOM     10  H9  UNL     1      19.990   0.471  34.086  0.00  0.00    +0.189 HD
ENDROOT
BRANCH   7  11
ATOM     11  C15 UNL     1      21.962   4.528  33.534  0.00  0.00    +0.008 A 
ATOM     12  C16 UNL     1      21.312   5.365  34.455  0.00  0.00    +0.051 A 
ATOM     13  C17 UNL     1      21.833   6.628  34.754  0.00  0.00    +0.162 A 
ATOM     14  F2  UNL     1      21.190   7.433  35.636  0.00  0.00    -0.202 F 
ATOM     15  C18 UNL     1      23.015   7.060  34.146  0.00  0.00    +0.193 A 
ATOM     16  F3  UNL     1      23.521   8.285  34.436  0.00  0.00    -0.199 F 
ATOM     17  C19 UNL     1      23.681   6.225  33.244  0.00  0.00    +0.162 A 
ATOM     18  F4  UNL     1      24.840   6.633  32.668  0.00  0.00    -0.202 F 
ATOM     19  C20 UNL     1      23.162   4.961  32.943  0.00  0.00    +0.051 A 
ENDBRANCH   7  11
BRANCH   1  22
ATOM     20  C8  UNL     1      21.632   3.042  26.293  0.00  0.00    +0.259 A 
ATOM     21  N1  UNL     1      20.876   2.919  27.403  0.00  0.00    -0.187 NA
ATOM     22  C9  UNL     1      21.743   2.356  28.270  0.00  0.00    +0.202 A 
ATOM     23  N4  UNL     1      22.954   2.150  27.718  0.00  0.00    -0.056 NA
ATOM     24  O1  UNL     1      22.844   2.586  26.501  0.00  0.00    -0.332 OA
BRANCH  20  32
ATOM     25  C1  UNL     1      19.971   1.447  24.312  0.00  0.00    +0.044 C 
ATOM     26  C2  UNL     1      20.359   2.884  24.080  0.00  0.00    -0.035 A 
ATOM     27  C3  UNL     1      19.931   3.509  22.894  0.00  0.00    +0.042 A 
ATOM     28  C4  UNL     1      20.262   4.838  22.628  0.00  0.00    +0.124 A 
ATOM     29  F1  UNL     1      19.840   5.425  21.480  0.00  0.00    -0.205 F 
ATOM     30  C5  UNL     1      21.023   5.563  23.541  0.00  0.00    +0.039 A 
ATOM     31  C6  UNL     1      21.457   4.964  24.723  0.00  0.00    +0.016 A 
ATOM     32  C7  UNL     1      21.138   3.622  25.016  0.00  0.00    +0.043 A 
ENDBRANCH  20  32
ENDBRANCH   1  22
TORSDOF 3
ENDMDL
MODEL 8
REMARK VINA RESULT:    -7.803     14.039     16.837
REMARK INTER + INTRA:          -9.849
REMARK INTER:                  -9.343
REMARK INTRA:                  -0.506
REMARK UNBOUND:                -0.677
REMARK  Name = /home/qwerty/github/datacon2025hack/step_04_hit_selection/docking/ligands/lig_569.pdb
REMARK  4 active torsions:
REMARK  status: ('A' for Active; 'I' for Inactive)
REMARK    1  A    between atoms: C1_1  and  C2_2
REMARK    2  A    between atoms: C7_8  and  C8_9
REMARK    3  A    between atoms: C9_11  and  C10_12
REMARK    4  A    between atoms: C14_18  and  C15_19
REMARK                            x       y       z     vdW  Elec       q    Type
REMARK                         _______ _______ _______ _____ _____    ______ ____
ROOT
ATOM      1  C10 UNL     1      18.503   0.233  24.659  0.00  0.00    +0.023 A 
ATOM      2  C11 UNL     1      18.199  -1.131  24.924  0.00  0.00    +0.014 A 
ATOM      3  C12 UNL     1      17.215  -1.805  24.181  0.00  0.00    +0.028 A 
ATOM      4  C13 UNL     1      16.544  -1.089  23.195  0.00  0.00    +0.066 A 
ATOM      5  N2  UNL     1      15.609  -1.533  22.341  0.00  0.00    -0.276 N 
ATOM      6  N3  UNL     1      15.261  -0.533  21.540  0.00  0.00    -0.173 NA
ATOM      7  C14 UNL     1      15.973   0.566  21.892  0.00  0.00    +0.100 A 
ATOM      8  C21 UNL     1      16.810   0.227  22.946  0.00  0.00    +0.028 A 
ATOM      9  C22 UNL     1      17.800   0.921  23.643  0.00  0.00    +0.024 A 
ATOM     10  H9  UNL     1      15.217  -2.499  22.287  0.00  0.00    +0.189 HD
ENDROOT
BRANCH   7  11
ATOM     11  C15 UNL     1      15.843   1.873  21.215  0.00  0.00    +0.008 A 
ATOM     12  C16 UNL     1      16.932   2.758  21.196  0.00  0.00    +0.051 A 
ATOM     13  C17 UNL     1      16.828   3.995  20.549  0.00  0.00    +0.162 A 
ATOM     14  F2  UNL     1      17.882   4.848  20.548  0.00  0.00    -0.202 F 
ATOM     15  C18 UNL     1      15.639   4.350  19.905  0.00  0.00    +0.193 A 
ATOM     16  F3  UNL     1      15.538   5.547  19.276  0.00  0.00    -0.199 F 
ATOM     17  C19 UNL     1      14.557   3.464  19.900  0.00  0.00    +0.162 A 
ATOM     18  F4  UNL     1      13.409   3.798  19.257  0.00  0.00    -0.202 F 
ATOM     19  C20 UNL     1      14.659   2.228  20.546  0.00  0.00    +0.051 A 
ENDBRANCH   7  11
BRANCH   1  22
ATOM     20  C8  UNL     1      20.720   1.668  27.009  0.00  0.00    +0.259 A 
ATOM     21  N1  UNL     1      19.619   0.922  26.782  0.00  0.00    -0.187 NA
ATOM     22  C9  UNL     1      19.554   0.926  25.434  0.00  0.00    +0.202 A 
ATOM     23  N4  UNL     1      20.556   1.634  24.878  0.00  0.00    -0.056 NA
ATOM     24  O1  UNL     1      21.251   2.074  25.881  0.00  0.00    -0.332 OA
BRANCH  20  32
ATOM     25  C1  UNL     1      22.439  -0.286  28.576  0.00  0.00    +0.044 C 
ATOM     26  C2  UNL     1      22.051   1.068  29.110  0.00  0.00    -0.035 A 
ATOM     27  C3  UNL     1      22.506   1.438  30.389  0.00  0.00    +0.042 A 
ATOM     28  C4  UNL     1      22.176   2.680  30.933  0.00  0.00    +0.124 A 
ATOM     29  F1  UNL     1      22.624   3.020  32.167  0.00  0.00    -0.205 F 
ATOM     30  C5  UNL     1      21.389   3.570  30.209  0.00  0.00    +0.039 A 
ATOM     31  C6  UNL     1      20.927   3.225  28.939  0.00  0.00    +0.016 A 
ATOM     32  C7  UNL     1      21.244   1.976  28.367  0.00  0.00    +0.043 A 
ENDBRANCH  20  32
ENDBRANCH   1  22
TORSDOF 3
ENDMDL
MODEL 9
REMARK VINA RESULT:    -7.746     12.470     13.583
REMARK INTER + INTRA:          -9.782
REMARK INTER:                  -9.134
REMARK INTRA:                  -0.648
REMARK UNBOUND:                -0.677
REMARK  Name = /home/qwerty/github/datacon2025hack/step_04_hit_selection/docking/ligands/lig_569.pdb
REMARK  4 active torsions:
REMARK  status: ('A' for Active; 'I' for Inactive)
REMARK    1  A    between atoms: C1_1  and  C2_2
REMARK    2  A    between atoms: C7_8  and  C8_9
REMARK    3  A    between atoms: C9_11  and  C10_12
REMARK    4  A    between atoms: C14_18  and  C15_19
REMARK                            x       y       z     vdW  Elec       q    Type
REMARK                         _______ _______ _______ _____ _____    ______ ____
ROOT
ATOM      1  C10 UNL     1      22.082   4.949  33.608  0.00  0.00    +0.023 A 
ATOM      2  C11 UNL     1      23.348   5.578  33.457  0.00  0.00    +0.014 A 
ATOM      3  C12 UNL     1      23.690   6.700  34.231  0.00  0.00    +0.028 A 
ATOM      4  C13 UNL     1      22.743   7.178  35.131  0.00  0.00    +0.066 A 
ATOM      5  N2  UNL     1      22.865   8.197  35.996  0.00  0.00    -0.276 N 
ATOM      6  N3  UNL     1      21.741   8.292  36.696  0.00  0.00    -0.173 NA
ATOM      7  C14 UNL     1      20.886   7.329  36.268  0.00  0.00    +0.100 A 
ATOM      8  C21 UNL     1      21.515   6.598  35.270  0.00  0.00    +0.028 A 
ATOM      9  C22 UNL     1      21.152   5.465  34.541  0.00  0.00    +0.024 A 
ATOM     10  H9  UNL     1      23.697   8.815  36.125  0.00  0.00    +0.189 HD
ENDROOT
BRANCH   7  11
ATOM     11  C15 UNL     1      19.531   7.137  36.823  0.00  0.00    +0.008 A 
ATOM     12  C16 UNL     1      18.727   8.255  37.099  0.00  0.00    +0.051 A 
ATOM     13  C17 UNL     1      17.438   8.089  37.615  0.00  0.00    +0.162 A 
ATOM     14  F2  UNL     1      16.674   9.176  37.889  0.00  0.00    -0.202 F 
ATOM     15  C18 UNL     1      16.936   6.805  37.846  0.00  0.00    +0.193 A 
ATOM     16  F3  UNL     1      15.684   6.644  38.345  0.00  0.00    -0.199 F 
ATOM     17  C19 UNL     1      17.721   5.686  37.554  0.00  0.00    +0.162 A 
ATOM     18  F4  UNL     1      17.228   4.438  37.758  0.00  0.00    -0.202 F 
ATOM     19  C20 UNL     1      19.011   5.850  37.038  0.00  0.00    +0.051 A 
ENDBRANCH   7  11
BRANCH   1  22
ATOM     20  C8  UNL     1      21.339   2.474  31.195  0.00  0.00    +0.259 A 
ATOM     21  N1  UNL     1      21.675   3.755  31.456  0.00  0.00    -0.187 NA
ATOM     22  C9  UNL     1      21.741   3.757  32.803  0.00  0.00    +0.202 A 
ATOM     23  N4  UNL     1      21.460   2.549  33.329  0.00  0.00    -0.056 NA
ATOM     24  O1  UNL     1      21.219   1.787  32.306  0.00  0.00    -0.332 OA
BRANCH  20  32
ATOM     25  C1  UNL     1      23.548   1.065  29.657  0.00  0.00    +0.044 C 
ATOM     26  C2  UNL     1      22.166   1.273  29.094  0.00  0.00    -0.035 A 
ATOM     27  C3  UNL     1      21.891   0.791  27.800  0.00  0.00    +0.042 A 
ATOM     28  C4  UNL     1      20.629   0.955  27.229  0.00  0.00    +0.124 A 
ATOM     29  F1  UNL     1      20.383   0.484  25.982  0.00  0.00    -0.205 F 
ATOM     30  C5  UNL     1      19.622   1.601  27.941  0.00  0.00    +0.039 A 
ATOM     31  C6  UNL     1      19.871   2.086  29.224  0.00  0.00    +0.016 A 
ATOM     32  C7  UNL     1      21.138   1.934  29.824  0.00  0.00    +0.043 A 
ENDBRANCH  20  32
ENDBRANCH   1  22
TORSDOF 3
ENDMDL
