REMARK  Name = /home/qwerty/github/datacon2025hack/step_04_hit_selection/docking/ligands/lig_38.pdb
REMARK  4 active torsions:
REMARK  status: ('A' for Active; 'I' for Inactive)
REMARK    1  A    between atoms: C1_1  and  N1_2
REMARK    2  A    between atoms: C5_6  and  C6_7
REMARK    3  A    between atoms: C10_16  and  C11_17
REMARK    4  A    between atoms: N7_22  and  C15_23
REMARK                            x       y       z     vdW  Elec       q    Type
REMARK                         _______ _______ _______ _____ _____    ______ ____
ROOT
ATOM      1  C6  UNL     1      -3.212  -0.821  -0.335  0.00  0.00    +0.233 C 
ATOM      2  O1  UNL     1      -3.836  -1.807  -0.818  0.00  0.00    -0.274 OA
ATOM      3  N2  UNL     1      -1.767  -0.823  -0.328  0.00  0.00    -0.297 N 
ATOM      4  C7  UNL     1      -1.044  -1.810  -1.145  0.00  0.00    +0.127 C 
ATOM      5  C8  UNL     1       0.287  -1.233  -1.638  0.00  0.00    +0.127 C 
ATOM      6  N3  UNL     1       1.052  -0.625  -0.543  0.00  0.00    -0.297 N 
ATOM      7  C9  UNL     1       2.393  -0.171  -0.806  0.00  0.00    +0.220 A 
ATOM      8  N4  UNL     1       2.761   0.393  -1.972  0.00  0.00    -0.113 NA
ATOM      9  N5  UNL     1       4.051   0.676  -1.870  0.00  0.00    -0.126 NA
ATOM     10  C10 UNL     1       4.452   0.281  -0.645  0.00  0.00    +0.182 A 
ATOM     11  N7  UNL     1       3.434  -0.278   0.049  0.00  0.00    -0.297 N 
ATOM     12  C15 UNL     1       3.488  -0.994   1.325  0.00  0.00    +0.154 C 
ATOM     13  C16 UNL     1       0.428  -0.413   0.769  0.00  0.00    +0.127 C 
ATOM     14  C17 UNL     1      -1.025   0.042   0.603  0.00  0.00    +0.127 C 
ENDROOT
BRANCH   1  20
ATOM     15  C1  UNL     1      -5.159   1.460  -1.560  0.00  0.00    +0.105 C 
ATOM     16  N1  UNL     1      -5.276   0.490  -0.459  0.00  0.00    -0.295 NA
ATOM     17  C2  UNL     1      -6.254   0.927   0.539  0.00  0.00    +0.085 C 
ATOM     18  C3  UNL     1      -5.867   0.250   1.839  0.00  0.00    +0.017 C 
ATOM     19  C4  UNL     1      -4.368   0.025   1.732  0.00  0.00    +0.029 C 
ATOM     20  C5  UNL     1      -4.008   0.315   0.269  0.00  0.00    +0.143 C 
ENDBRANCH   1  20
BRANCH  10  21
ATOM     21  C11 UNL     1       5.839   0.448  -0.171  0.00  0.00    +0.084 A 
ATOM     22  C12 UNL     1       6.245   0.635   1.138  0.00  0.00    +0.031 A 
ATOM     23  C13 UNL     1       7.616   0.801   1.098  0.00  0.00    +0.020 A 
ATOM     24  C14 UNL     1       7.985   0.720  -0.230  0.00  0.00    +0.083 A 
ATOM     25  N6  UNL     1       6.900   0.515  -0.998  0.00  0.00    -0.358 N 
ATOM     26  H18 UNL     1       6.891   0.426  -2.039  0.00  0.00    +0.165 HD
ENDBRANCH  10  21
TORSDOF 2
