REMARK  Name = /home/qwerty/github/datacon2025hack/step_04_hit_selection/docking/ligands/lig_413.pdb
REMARK  7 active torsions:
REMARK  status: ('A' for Active; 'I' for Inactive)
REMARK    1  A    between atoms: C1_1  and  N1_2
REMARK    2  A    between atoms: N1_2  and  C2_3
REMARK    3  A    between atoms: N1_2  and  C6_7
REMARK    4  A    between atoms: C2_3  and  C3_4
REMARK    5  A    between atoms: C9_11  and  C10_12
REMARK    6  A    between atoms: C13_15  and  C14_16
REMARK    7  A    between atoms: C14_16  and  O1_17
REMARK                            x       y       z     vdW  Elec       q    Type
REMARK                         _______ _______ _______ _____ _____    ______ ____
ROOT
ATOM      1  C6  UNL     1       1.632  -1.356   1.016  0.00  0.00    +0.140 A 
ATOM      2  C7  UNL     1       1.633  -1.897   2.314  0.00  0.00    +0.154 A 
ATOM      3  N2  UNL     1       0.489  -1.886   3.045  0.00  0.00    -0.258 NA
ATOM      4  C8  UNL     1      -0.667  -1.373   2.553  0.00  0.00    +0.139 A 
ATOM      5  C9  UNL     1      -0.689  -0.841   1.254  0.00  0.00    +0.091 A 
ATOM      6  N3  UNL     1       0.465  -0.846   0.533  0.00  0.00    -0.229 NA
ENDROOT
BRANCH   5   7
ATOM      7  C10 UNL     1      -1.918  -0.255   0.658  0.00  0.00    +0.005 A 
ATOM      8  C11 UNL     1      -3.201  -0.685   1.046  0.00  0.00    +0.010 A 
ATOM      9  C12 UNL     1      -4.343  -0.126   0.466  0.00  0.00    +0.009 A 
ATOM     10  C13 UNL     1      -4.227   0.860  -0.525  0.00  0.00    +0.013 A 
ATOM     11  C15 UNL     1      -2.951   1.296  -0.913  0.00  0.00    +0.129 A 
ATOM     12  F1  UNL     1      -2.810   2.266  -1.852  0.00  0.00    -0.205 F 
ATOM     13  C16 UNL     1      -1.808   0.737  -0.333  0.00  0.00    +0.048 A 
BRANCH  10  14
ATOM     14  C14 UNL     1      -5.463   1.479  -1.122  0.00  0.00    +0.194 C 
BRANCH  14  15
ATOM     15  O1  UNL     1      -5.729   2.710  -0.508  0.00  0.00    -0.390 OA
ATOM     16  H17 UNL     1      -6.109   2.504   0.386  0.00  0.00    +0.210 HD
ENDBRANCH  14  15
ENDBRANCH  10  14
ENDBRANCH   5   7
BRANCH   1  18
ATOM     17  C1  UNL     1       4.103  -1.847   0.692  0.00  0.00    +0.130 C 
ATOM     18  N1  UNL     1       2.824  -1.326   0.193  0.00  0.00    -0.317 N 
BRANCH  18  19
ATOM     19  C2  UNL     1       2.762  -0.756  -1.162  0.00  0.00    +0.109 C 
BRANCH  19  20
ATOM     20  C3  UNL     1       2.720   0.776  -1.085  0.00  0.00    +0.006 C 
ATOM     21  C4  UNL     1       4.076   1.463  -1.054  0.00  0.00    +0.005 C 
ATOM     22  C5  UNL     1       3.233   1.501  -2.320  0.00  0.00    +0.005 C 
ENDBRANCH  19  20
ENDBRANCH  18  19
ENDBRANCH   1  18
TORSDOF 6
