REMARK  Name = /home/qwerty/github/datacon2025hack/step_04_hit_selection/docking/ligands/lig_332.pdb
REMARK  9 active torsions:
REMARK  status: ('A' for Active; 'I' for Inactive)
REMARK    1  A    between atoms: C2_2  and  C3_3
REMARK    2  A    between atoms: C2_2  and  C4_4
REMARK    3  A    between atoms: C4_4  and  C5_5
REMARK    4  A    between atoms: C4_4  and  C6_6
REMARK    5  A    between atoms: C4_4  and  C7_7
REMARK    6  A    between atoms: C10_12  and  C11_13
REMARK    7  A    between atoms: C10_12  and  N2_15
REMARK    8  A    between atoms: C11_13  and  O2_14
REMARK    9  A    between atoms: C12_16  and  C13_18
REMARK                            x       y       z     vdW  Elec       q    Type
REMARK                         _______ _______ _______ _____ _____    ______ ____
ROOT
ATOM      1  C7  UNL     1      -1.907   1.826  -0.666  0.00  0.00    +0.225 C 
ATOM      2  O1  UNL     1      -1.667   2.916  -1.253  0.00  0.00    -0.275 OA
ATOM      3  N1  UNL     1      -0.805   0.990  -0.284  0.00  0.00    -0.301 N 
ATOM      4  C8  UNL     1      -0.288   1.073   1.085  0.00  0.00    +0.110 C 
ATOM      5  C9  UNL     1       1.070   0.370   1.218  0.00  0.00    +0.047 C 
ATOM      6  C10 UNL     1       1.069  -1.068   0.606  0.00  0.00    +0.061 C 
ATOM      7  C17 UNL     1       0.445  -1.048  -0.843  0.00  0.00    +0.047 C 
ATOM      8  C18 UNL     1      -0.017   0.333  -1.325  0.00  0.00    +0.110 C 
ENDROOT
BRANCH   6   9
ATOM      9  N2  UNL     1       2.451  -1.593   0.508  0.00  0.00    -0.303 N 
ATOM     10  C12 UNL     1       3.520  -1.360   1.448  0.00  0.00    +0.246 C 
ATOM     11  O3  UNL     1       3.262  -1.048   2.641  0.00  0.00    -0.270 OA
ATOM     12  H19 UNL     1       2.638  -2.327  -0.209  0.00  0.00    +0.150 HD
BRANCH  10  13
ATOM     13  C13 UNL     1       4.934  -1.520   1.032  0.00  0.00    +0.058 A 
ATOM     14  C14 UNL     1       5.948  -1.658   1.989  0.00  0.00    +0.036 A 
ATOM     15  C15 UNL     1       7.270  -1.795   1.575  0.00  0.00    +0.135 A 
ATOM     16  N3  UNL     1       7.564  -1.783   0.252  0.00  0.00    -0.158 NA
ATOM     17  N4  UNL     1       6.609  -1.642  -0.668  0.00  0.00    -0.157 NA
ATOM     18  C16 UNL     1       5.303  -1.510  -0.321  0.00  0.00    +0.148 A 
ENDBRANCH  10  13
ENDBRANCH   6   9
BRANCH   1  19
ATOM     19  C4  UNL     1      -3.344   1.459  -0.320  0.00  0.00    +0.062 C 
ATOM     20  C5  UNL     1      -3.716   2.238   0.963  0.00  0.00    +0.025 C 
ATOM     21  C6  UNL     1      -3.480  -0.052  -0.033  0.00  0.00    +0.025 C 
BRANCH  19  23
ATOM     22  C1  UNL     1      -5.413   2.469  -1.405  0.00  0.00    +0.008 C 
ATOM     23  C2  UNL     1      -4.253   1.793  -1.522  0.00  0.00    -0.065 C 
ATOM     24  C3  UNL     1      -3.897   1.276  -2.898  0.00  0.00    +0.039 C 
ENDBRANCH  19  23
ENDBRANCH   1  19
BRANCH   6  25
ATOM     25  C11 UNL     1       0.234  -2.042   1.483  0.00  0.00    +0.181 C 
BRANCH  25  26
ATOM     26  O2  UNL     1       0.719  -2.112   2.798  0.00  0.00    -0.393 OA
ATOM     27  H18 UNL     1       0.198  -1.461   3.337  0.00  0.00    +0.209 HD
ENDBRANCH  25  26
ENDBRANCH   6  25
TORSDOF 6
