MODEL 1
REMARK VINA RESULT:    -5.937      0.000      0.000
REMARK INTER + INTRA:          -8.071
REMARK INTER:                  -7.325
REMARK INTRA:                  -0.746
REMARK UNBOUND:                -0.746
REMARK  Name = /home/qwerty/github/datacon2025hack/step_04_hit_selection/docking/ligands/lig_712.pdb
REMARK  6 active torsions:
REMARK  status: ('A' for Active; 'I' for Inactive)
REMARK    1  A    between atoms: C1_1  and  C2_2
REMARK    2  A    between atoms: C4_4  and  C5_5
REMARK    3  A    between atoms: C5_5  and  N1_6
REMARK    4  A    between atoms: C8_9  and  C9_10
REMARK    5  A    between atoms: C10_11  and  N2_12
REMARK    6  A    between atoms: C11_13  and  C12_15
REMARK                            x       y       z     vdW  Elec       q    Type
REMARK                         _______ _______ _______ _____ _____    ______ ____
ROOT
ATOM      1  N1  UNL     1      21.454   2.380  30.342  0.00  0.00    -0.295 NA
ATOM      2  C6  UNL     1      20.095   1.950  30.758  0.00  0.00    +0.085 C 
ATOM      3  C7  UNL     1      19.548   2.771  31.949  0.00  0.00    +0.020 C 
ATOM      4  C8  UNL     1      20.290   4.108  32.092  0.00  0.00    +0.009 C 
ATOM      5  C9  UNL     1      19.702   4.939  33.239  0.00  0.00    +0.009 C 
ATOM      6  C10 UNL     1      21.809   3.865  32.298  0.00  0.00    +0.090 C 
ATOM      7  C17 UNL     1      22.306   2.622  31.522  0.00  0.00    +0.107 C 
ENDROOT
BRANCH   6   8
ATOM      8  N2  UNL     1      22.554   5.052  31.863  0.00  0.00    -0.307 N 
ATOM      9  C11 UNL     1      23.207   5.947  32.780  0.00  0.00    +0.244 C 
ATOM     10  O1  UNL     1      23.401   5.588  33.974  0.00  0.00    -0.270 OA
ATOM     11  H16 UNL     1      22.590   5.253  30.839  0.00  0.00    +0.149 HD
BRANCH   9  12
ATOM     12  C12 UNL     1      23.678   7.280  32.337  0.00  0.00    +0.040 A 
ATOM     13  C13 UNL     1      23.074   7.913  31.237  0.00  0.00    +0.033 A 
ATOM     14  C14 UNL     1      23.530   9.167  30.822  0.00  0.00    +0.111 A 
ATOM     15  N3  UNL     1      24.560   9.768  31.473  0.00  0.00    -0.263 NA
ATOM     16  C15 UNL     1      25.174   9.178  32.532  0.00  0.00    +0.111 A 
ATOM     17  C16 UNL     1      24.749   7.924  32.981  0.00  0.00    +0.033 A 
ENDBRANCH   9  12
ENDBRANCH   6   8
BRANCH   1  18
ATOM     18  C5  UNL     1      22.078   1.384  29.446  0.00  0.00    +0.140 C 
BRANCH  18  22
ATOM     19  C1  UNL     1      22.916   4.199  25.360  0.00  0.00    +0.066 C 
ATOM     20  C2  UNL     1      22.209   3.081  26.058  0.00  0.00    +0.042 A 
ATOM     21  C3  UNL     1      22.500   2.782  27.392  0.00  0.00    +0.047 A 
ATOM     22  C4  UNL     1      21.817   1.727  28.007  0.00  0.00    +0.059 A 
ATOM     23  N4  UNL     1      20.888   1.028  27.302  0.00  0.00    -0.239 NA
ATOM     24  C18 UNL     1      20.618   1.330  26.006  0.00  0.00    +0.221 A 
ATOM     25  N5  UNL     1      21.276   2.349  25.393  0.00  0.00    -0.241 NA
ENDBRANCH  18  22
ENDBRANCH   1  18
TORSDOF 4
ENDMDL
MODEL 2
REMARK VINA RESULT:    -5.932     13.397     14.999
REMARK INTER + INTRA:          -8.065
REMARK INTER:                  -7.369
REMARK INTRA:                  -0.696
REMARK UNBOUND:                -0.746
REMARK  Name = /home/qwerty/github/datacon2025hack/step_04_hit_selection/docking/ligands/lig_712.pdb
REMARK  6 active torsions:
REMARK  status: ('A' for Active; 'I' for Inactive)
REMARK    1  A    between atoms: C1_1  and  C2_2
REMARK    2  A    between atoms: C4_4  and  C5_5
REMARK    3  A    between atoms: C5_5  and  N1_6
REMARK    4  A    between atoms: C8_9  and  C9_10
REMARK    5  A    between atoms: C10_11  and  N2_12
REMARK    6  A    between atoms: C11_13  and  C12_15
REMARK                            x       y       z     vdW  Elec       q    Type
REMARK                         _______ _______ _______ _____ _____    ______ ____
ROOT
ATOM      1  N1  UNL     1       9.860  12.455  28.410  0.00  0.00    -0.295 NA
ATOM      2  C6  UNL     1      10.944  12.261  27.414  0.00  0.00    +0.085 C 
ATOM      3  C7  UNL     1      12.316  12.760  27.921  0.00  0.00    +0.020 C 
ATOM      4  C8  UNL     1      12.338  12.870  29.454  0.00  0.00    +0.009 C 
ATOM      5  C9  UNL     1      13.721  13.310  29.950  0.00  0.00    +0.009 C 
ATOM      6  C10 UNL     1      11.232  13.843  29.942  0.00  0.00    +0.090 C 
ATOM      7  C17 UNL     1       9.971  13.781  29.047  0.00  0.00    +0.107 C 
ENDROOT
BRANCH   6   8
ATOM      8  N2  UNL     1      10.875  13.516  31.327  0.00  0.00    -0.307 N 
ATOM      9  C11 UNL     1      11.439  14.194  32.462  0.00  0.00    +0.244 C 
ATOM     10  O1  UNL     1      12.050  15.286  32.300  0.00  0.00    -0.270 OA
ATOM     11  H16 UNL     1      10.190  12.743  31.480  0.00  0.00    +0.149 HD
BRANCH   9  12
ATOM     12  C12 UNL     1      11.293  13.640  33.830  0.00  0.00    +0.040 A 
ATOM     13  C13 UNL     1      11.917  12.428  34.170  0.00  0.00    +0.033 A 
ATOM     14  C14 UNL     1      11.767  11.909  35.459  0.00  0.00    +0.111 A 
ATOM     15  N3  UNL     1      11.014  12.569  36.376  0.00  0.00    -0.263 NA
ATOM     16  C15 UNL     1      10.388  13.738  36.076  0.00  0.00    +0.111 A 
ATOM     17  C16 UNL     1      10.511  14.293  34.799  0.00  0.00    +0.033 A 
ENDBRANCH   9  12
ENDBRANCH   6   8
BRANCH   1  18
ATOM     18  C5  UNL     1       8.530  12.287  27.790  0.00  0.00    +0.140 C 
BRANCH  18  22
ATOM     19  C1  UNL     1       6.915   8.538  30.733  0.00  0.00    +0.066 C 
ATOM     20  C2  UNL     1       7.270   9.087  29.388  0.00  0.00    +0.042 A 
ATOM     21  C3  UNL     1       7.709  10.408  29.255  0.00  0.00    +0.047 A 
ATOM     22  C4  UNL     1       8.029  10.883  27.979  0.00  0.00    +0.059 A 
ATOM     23  N4  UNL     1       7.914  10.055  26.906  0.00  0.00    -0.239 NA
ATOM     24  C18 UNL     1       7.483   8.775  27.051  0.00  0.00    +0.221 A 
ATOM     25  N5  UNL     1       7.164   8.299  28.284  0.00  0.00    -0.241 NA
ENDBRANCH  18  22
ENDBRANCH   1  18
TORSDOF 4
ENDMDL
MODEL 3
REMARK VINA RESULT:    -5.873      1.594      2.201
REMARK INTER + INTRA:          -7.992
REMARK INTER:                  -7.124
REMARK INTRA:                  -0.868
REMARK UNBOUND:                -0.746
REMARK  Name = /home/qwerty/github/datacon2025hack/step_04_hit_selection/docking/ligands/lig_712.pdb
REMARK  6 active torsions:
REMARK  status: ('A' for Active; 'I' for Inactive)
REMARK    1  A    between atoms: C1_1  and  C2_2
REMARK    2  A    between atoms: C4_4  and  C5_5
REMARK    3  A    between atoms: C5_5  and  N1_6
REMARK    4  A    between atoms: C8_9  and  C9_10
REMARK    5  A    between atoms: C10_11  and  N2_12
REMARK    6  A    between atoms: C11_13  and  C12_15
REMARK                            x       y       z     vdW  Elec       q    Type
REMARK                         _______ _______ _______ _____ _____    ______ ____
ROOT
ATOM      1  N1  UNL     1      20.720   2.648  32.395  0.00  0.00    -0.295 NA
ATOM      2  C6  UNL     1      19.516   2.446  33.242  0.00  0.00    +0.085 C 
ATOM      3  C7  UNL     1      19.371   3.524  34.339  0.00  0.00    +0.020 C 
ATOM      4  C8  UNL     1      20.188   4.781  33.999  0.00  0.00    +0.009 C 
ATOM      5  C9  UNL     1      19.991   5.865  35.066  0.00  0.00    +0.009 C 
ATOM      6  C10 UNL     1      21.689   4.422  33.834  0.00  0.00    +0.090 C 
ATOM      7  C17 UNL     1      21.883   3.013  33.226  0.00  0.00    +0.107 C 
ENDROOT
BRANCH   6   8
ATOM      8  N2  UNL     1      22.336   5.425  32.980  0.00  0.00    -0.307 N 
ATOM      9  C11 UNL     1      23.363   6.313  33.455  0.00  0.00    +0.244 C 
ATOM     10  O1  UNL     1      23.942   6.072  34.549  0.00  0.00    -0.270 OA
ATOM     11  H16 UNL     1      22.016   5.495  31.989  0.00  0.00    +0.149 HD
BRANCH   9  12
ATOM     12  C12 UNL     1      23.768   7.499  32.664  0.00  0.00    +0.040 A 
ATOM     13  C13 UNL     1      24.897   8.247  33.042  0.00  0.00    +0.033 A 
ATOM     14  C14 UNL     1      25.267   9.368  32.295  0.00  0.00    +0.111 A 
ATOM     15  N3  UNL     1      24.534   9.740  31.214  0.00  0.00    -0.263 NA
ATOM     16  C15 UNL     1      23.431   9.046  30.828  0.00  0.00    +0.111 A 
ATOM     17  C16 UNL     1      23.025   7.917  31.547  0.00  0.00    +0.033 A 
ENDBRANCH   9  12
ENDBRANCH   6   8
BRANCH   1  18
ATOM     18  C5  UNL     1      21.014   1.444  31.590  0.00  0.00    +0.140 C 
BRANCH  18  22
ATOM     19  C1  UNL     1      21.247   4.537  27.627  0.00  0.00    +0.066 C 
ATOM     20  C2  UNL     1      21.673   3.298  28.349  0.00  0.00    +0.042 A 
ATOM     21  C3  UNL     1      21.146   2.994  29.607  0.00  0.00    +0.047 A 
ATOM     22  C4  UNL     1      21.572   1.826  30.249  0.00  0.00    +0.059 A 
ATOM     23  N4  UNL     1      22.476   1.016  29.636  0.00  0.00    -0.239 NA
ATOM     24  C18 UNL     1      22.981   1.326  28.414  0.00  0.00    +0.221 A 
ATOM     25  N5  UNL     1      22.580   2.459  27.780  0.00  0.00    -0.241 NA
ENDBRANCH  18  22
ENDBRANCH   1  18
TORSDOF 4
ENDMDL
MODEL 4
REMARK VINA RESULT:    -5.853     14.081     16.212
REMARK INTER + INTRA:          -7.967
REMARK INTER:                  -7.216
REMARK INTRA:                  -0.751
REMARK UNBOUND:                -0.746
REMARK  Name = /home/qwerty/github/datacon2025hack/step_04_hit_selection/docking/ligands/lig_712.pdb
REMARK  6 active torsions:
REMARK  status: ('A' for Active; 'I' for Inactive)
REMARK    1  A    between atoms: C1_1  and  C2_2
REMARK    2  A    between atoms: C4_4  and  C5_5
REMARK    3  A    between atoms: C5_5  and  N1_6
REMARK    4  A    between atoms: C8_9  and  C9_10
REMARK    5  A    between atoms: C10_11  and  N2_12
REMARK    6  A    between atoms: C11_13  and  C12_15
REMARK                            x       y       z     vdW  Elec       q    Type
REMARK                         _______ _______ _______ _____ _____    ______ ____
ROOT
ATOM      1  N1  UNL     1       9.160  11.738  28.639  0.00  0.00    -0.295 NA
ATOM      2  C6  UNL     1       9.108  10.746  29.743  0.00  0.00    +0.085 C 
ATOM      3  C7  UNL     1       8.790   9.317  29.247  0.00  0.00    +0.020 C 
ATOM      4  C8  UNL     1       9.088   9.168  27.747  0.00  0.00    +0.009 C 
ATOM      5  C9  UNL     1       8.824   7.732  27.278  0.00  0.00    +0.009 C 
ATOM      6  C10 UNL     1       8.253  10.188  26.926  0.00  0.00    +0.090 C 
ATOM      7  C17 UNL     1       8.051  11.518  27.691  0.00  0.00    +0.107 C 
ENDROOT
BRANCH   6   8
ATOM      8  N2  UNL     1       8.926  10.448  25.648  0.00  0.00    -0.307 N 
ATOM      9  C11 UNL     1       8.337  10.133  24.375  0.00  0.00    +0.244 C 
ATOM     10  O1  UNL     1       7.103   9.881  24.301  0.00  0.00    -0.270 OA
ATOM     11  H16 UNL     1       9.882  10.867  25.680  0.00  0.00    +0.149 HD
BRANCH   9  12
ATOM     12  C12 UNL     1       9.155  10.122  23.139  0.00  0.00    +0.040 A 
ATOM     13  C13 UNL     1       8.531  10.113  21.879  0.00  0.00    +0.033 A 
ATOM     14  C14 UNL     1       9.310  10.095  20.720  0.00  0.00    +0.111 A 
ATOM     15  N3  UNL     1      10.666  10.077  20.809  0.00  0.00    -0.263 NA
ATOM     16  C15 UNL     1      11.300  10.073  22.011  0.00  0.00    +0.111 A 
ATOM     17  C16 UNL     1      10.559  10.091  23.197  0.00  0.00    +0.033 A 
ENDBRANCH   9  12
ENDBRANCH   6   8
BRANCH   1  18
ATOM     18  C5  UNL     1       9.130  13.120  29.161  0.00  0.00    +0.140 C 
BRANCH  18  22
ATOM     19  C1  UNL     1      12.978  14.960  26.491  0.00  0.00    +0.066 C 
ATOM     20  C2  UNL     1      12.336  14.617  27.797  0.00  0.00    +0.042 A 
ATOM     21  C3  UNL     1      11.057  14.054  27.831  0.00  0.00    +0.047 A 
ATOM     22  C4  UNL     1      10.491  13.750  29.075  0.00  0.00    +0.059 A 
ATOM     23  N4  UNL     1      11.195  14.000  30.211  0.00  0.00    -0.239 NA
ATOM     24  C18 UNL     1      12.436  14.550  30.161  0.00  0.00    +0.221 A 
ATOM     25  N5  UNL     1      12.998  14.855  28.961  0.00  0.00    -0.241 NA
ENDBRANCH  18  22
ENDBRANCH   1  18
TORSDOF 4
ENDMDL
MODEL 5
REMARK VINA RESULT:    -5.784     14.748     15.996
REMARK INTER + INTRA:          -7.882
REMARK INTER:                  -7.140
REMARK INTRA:                  -0.742
REMARK UNBOUND:                -0.746
REMARK  Name = /home/qwerty/github/datacon2025hack/step_04_hit_selection/docking/ligands/lig_712.pdb
REMARK  6 active torsions:
REMARK  status: ('A' for Active; 'I' for Inactive)
REMARK    1  A    between atoms: C1_1  and  C2_2
REMARK    2  A    between atoms: C4_4  and  C5_5
REMARK    3  A    between atoms: C5_5  and  N1_6
REMARK    4  A    between atoms: C8_9  and  C9_10
REMARK    5  A    between atoms: C10_11  and  N2_12
REMARK    6  A    between atoms: C11_13  and  C12_15
REMARK                            x       y       z     vdW  Elec       q    Type
REMARK                         _______ _______ _______ _____ _____    ______ ____
ROOT
ATOM      1  N1  UNL     1       9.093   6.237  21.323  0.00  0.00    -0.295 NA
ATOM      2  C6  UNL     1      10.132   6.648  20.344  0.00  0.00    +0.085 C 
ATOM      3  C7  UNL     1      10.523   8.137  20.479  0.00  0.00    +0.020 C 
ATOM      4  C8  UNL     1      10.135   8.693  21.858  0.00  0.00    +0.009 C 
ATOM      5  C9  UNL     1      10.579  10.153  22.003  0.00  0.00    +0.009 C 
ATOM      6  C10 UNL     1       8.607   8.546  22.090  0.00  0.00    +0.090 C 
ATOM      7  C17 UNL     1       8.042   7.267  21.427  0.00  0.00    +0.107 C 
ENDROOT
BRANCH   6   8
ATOM      8  N2  UNL     1       8.336   8.519  23.532  0.00  0.00    -0.307 N 
ATOM      9  C11 UNL     1       7.748   9.624  24.240  0.00  0.00    +0.244 C 
ATOM     10  O1  UNL     1       7.184  10.551  23.596  0.00  0.00    -0.270 OA
ATOM     11  H16 UNL     1       8.601   7.657  24.059  0.00  0.00    +0.149 HD
BRANCH   9  12
ATOM     12  C12 UNL     1       7.773   9.680  25.720  0.00  0.00    +0.040 A 
ATOM     13  C13 UNL     1       8.264  10.823  26.375  0.00  0.00    +0.033 A 
ATOM     14  C14 UNL     1       8.291  10.863  27.771  0.00  0.00    +0.111 A 
ATOM     15  N3  UNL     1       7.853   9.800  28.494  0.00  0.00    -0.263 NA
ATOM     16  C15 UNL     1       7.384   8.675  27.892  0.00  0.00    +0.111 A 
ATOM     17  C16 UNL     1       7.338   8.592  26.497  0.00  0.00    +0.033 A 
ENDBRANCH   9  12
ENDBRANCH   6   8
BRANCH   1  18
ATOM     18  C5  UNL     1       8.505   4.931  20.959  0.00  0.00    +0.140 C 
BRANCH  18  22
ATOM     19  C1  UNL     1       7.721   2.909  25.500  0.00  0.00    +0.066 C 
ATOM     20  C2  UNL     1       8.439   2.944  24.188  0.00  0.00    +0.042 A 
ATOM     21  C3  UNL     1       8.110   3.905  23.227  0.00  0.00    +0.047 A 
ATOM     22  C4  UNL     1       8.805   3.903  22.012  0.00  0.00    +0.059 A 
ATOM     23  N4  UNL     1       9.780   2.979  21.799  0.00  0.00    -0.239 NA
ATOM     24  C18 UNL     1      10.085   2.051  22.742  0.00  0.00    +0.221 A 
ATOM     25  N5  UNL     1       9.417   2.037  23.926  0.00  0.00    -0.241 NA
ENDBRANCH  18  22
ENDBRANCH   1  18
TORSDOF 4
ENDMDL
MODEL 6
REMARK VINA RESULT:    -5.679     14.086     16.215
REMARK INTER + INTRA:          -7.752
REMARK INTER:                  -7.027
REMARK INTRA:                  -0.725
REMARK UNBOUND:                -0.746
REMARK  Name = /home/qwerty/github/datacon2025hack/step_04_hit_selection/docking/ligands/lig_712.pdb
REMARK  6 active torsions:
REMARK  status: ('A' for Active; 'I' for Inactive)
REMARK    1  A    between atoms: C1_1  and  C2_2
REMARK    2  A    between atoms: C4_4  and  C5_5
REMARK    3  A    between atoms: C5_5  and  N1_6
REMARK    4  A    between atoms: C8_9  and  C9_10
REMARK    5  A    between atoms: C10_11  and  N2_12
REMARK    6  A    between atoms: C11_13  and  C12_15
REMARK                            x       y       z     vdW  Elec       q    Type
REMARK                         _______ _______ _______ _____ _____    ______ ____
ROOT
ATOM      1  N1  UNL     1       8.946  11.261  28.834  0.00  0.00    -0.295 NA
ATOM      2  C6  UNL     1       8.850  10.221  29.891  0.00  0.00    +0.085 C 
ATOM      3  C7  UNL     1       8.605   8.808  29.316  0.00  0.00    +0.020 C 
ATOM      4  C8  UNL     1       9.002   8.731  27.834  0.00  0.00    +0.009 C 
ATOM      5  C9  UNL     1       8.809   7.311  27.290  0.00  0.00    +0.009 C 
ATOM      6  C10 UNL     1       8.194   9.764  27.003  0.00  0.00    +0.090 C 
ATOM      7  C17 UNL     1       7.906  11.054  27.808  0.00  0.00    +0.107 C 
ENDROOT
BRANCH   6   8
ATOM      8  N2  UNL     1       8.939  10.096  25.784  0.00  0.00    -0.307 N 
ATOM      9  C11 UNL     1       8.347  10.075  24.474  0.00  0.00    +0.244 C 
ATOM     10  O1  UNL     1       7.092  10.044  24.354  0.00  0.00    -0.270 OA
ATOM     11  H16 UNL     1       9.949  10.342  25.885  0.00  0.00    +0.149 HD
BRANCH   9  12
ATOM     12  C12 UNL     1       9.191  10.112  23.256  0.00  0.00    +0.040 A 
ATOM     13  C13 UNL     1       8.595  10.107  21.983  0.00  0.00    +0.033 A 
ATOM     14  C14 UNL     1       9.399  10.134  20.841  0.00  0.00    +0.111 A 
ATOM     15  N3  UNL     1      10.751  10.157  20.959  0.00  0.00    -0.263 NA
ATOM     16  C15 UNL     1      11.360  10.150  22.174  0.00  0.00    +0.111 A 
ATOM     17  C16 UNL     1      10.594  10.124  23.343  0.00  0.00    +0.033 A 
ENDBRANCH   9  12
ENDBRANCH   6   8
BRANCH   1  18
ATOM     18  C5  UNL     1       8.844  12.618  29.410  0.00  0.00    +0.140 C 
BRANCH  18  22
ATOM     19  C1  UNL     1      13.071  14.922  30.873  0.00  0.00    +0.066 C 
ATOM     20  C2  UNL     1      12.094  14.529  29.812  0.00  0.00    +0.042 A 
ATOM     21  C3  UNL     1      10.969  13.764  30.133  0.00  0.00    +0.047 A 
ATOM     22  C4  UNL     1      10.079  13.417  29.110  0.00  0.00    +0.059 A 
ATOM     23  N4  UNL     1      10.324  13.834  27.839  0.00  0.00    -0.239 NA
ATOM     24  C18 UNL     1      11.423  14.574  27.542  0.00  0.00    +0.221 A 
ATOM     25  N5  UNL     1      12.298  14.917  28.524  0.00  0.00    -0.241 NA
ENDBRANCH  18  22
ENDBRANCH   1  18
TORSDOF 4
ENDMDL
MODEL 7
REMARK VINA RESULT:    -5.484     12.665     14.439
REMARK INTER + INTRA:          -7.513
REMARK INTER:                  -6.638
REMARK INTRA:                  -0.875
REMARK UNBOUND:                -0.746
REMARK  Name = /home/qwerty/github/datacon2025hack/step_04_hit_selection/docking/ligands/lig_712.pdb
REMARK  6 active torsions:
REMARK  status: ('A' for Active; 'I' for Inactive)
REMARK    1  A    between atoms: C1_1  and  C2_2
REMARK    2  A    between atoms: C4_4  and  C5_5
REMARK    3  A    between atoms: C5_5  and  N1_6
REMARK    4  A    between atoms: C8_9  and  C9_10
REMARK    5  A    between atoms: C10_11  and  N2_12
REMARK    6  A    between atoms: C11_13  and  C12_15
REMARK                            x       y       z     vdW  Elec       q    Type
REMARK                         _______ _______ _______ _____ _____    ______ ____
ROOT
ATOM      1  N1  UNL     1       9.920  12.683  28.768  0.00  0.00    -0.295 NA
ATOM      2  C6  UNL     1      10.523  13.564  27.736  0.00  0.00    +0.085 C 
ATOM      3  C7  UNL     1      11.573  14.535  28.322  0.00  0.00    +0.020 C 
ATOM      4  C8  UNL     1      12.092  14.042  29.682  0.00  0.00    +0.009 C 
ATOM      5  C9  UNL     1      13.175  14.982  30.226  0.00  0.00    +0.009 C 
ATOM      6  C10 UNL     1      10.919  13.897  30.687  0.00  0.00    +0.090 C 
ATOM      7  C17 UNL     1       9.612  13.450  29.990  0.00  0.00    +0.107 C 
ENDROOT
BRANCH   6   8
ATOM      8  N2  UNL     1      11.286  12.925  31.724  0.00  0.00    -0.307 N 
ATOM      9  C11 UNL     1      11.410  13.272  33.114  0.00  0.00    +0.244 C 
ATOM     10  O1  UNL     1      10.933  14.362  33.532  0.00  0.00    -0.270 OA
ATOM     11  H16 UNL     1      11.479  11.944  31.422  0.00  0.00    +0.149 HD
BRANCH   9  12
ATOM     12  C12 UNL     1      12.073  12.354  34.071  0.00  0.00    +0.040 A 
ATOM     13  C13 UNL     1      13.416  12.559  34.431  0.00  0.00    +0.033 A 
ATOM     14  C14 UNL     1      14.034  11.684  35.327  0.00  0.00    +0.111 A 
ATOM     15  N3  UNL     1      13.344  10.635  35.843  0.00  0.00    -0.263 NA
ATOM     16  C15 UNL     1      12.048  10.401  35.507  0.00  0.00    +0.111 A 
ATOM     17  C16 UNL     1      11.390  11.252  34.614  0.00  0.00    +0.033 A 
ENDBRANCH   9  12
ENDBRANCH   6   8
BRANCH   1  18
ATOM     18  C5  UNL     1       8.705  12.015  28.255  0.00  0.00    +0.140 C 
BRANCH  18  22
ATOM     19  C1  UNL     1      10.425   7.624  30.012  0.00  0.00    +0.066 C 
ATOM     20  C2  UNL     1       9.311   8.594  29.774  0.00  0.00    +0.042 A 
ATOM     21  C3  UNL     1       9.561   9.819  29.148  0.00  0.00    +0.047 A 
ATOM     22  C4  UNL     1       8.492  10.699  28.946  0.00  0.00    +0.059 A 
ATOM     23  N4  UNL     1       7.244  10.342  29.352  0.00  0.00    -0.239 NA
ATOM     24  C18 UNL     1       7.019   9.149  29.961  0.00  0.00    +0.221 A 
ATOM     25  N5  UNL     1       8.047   8.285  30.168  0.00  0.00    -0.241 NA
ENDBRANCH  18  22
ENDBRANCH   1  18
TORSDOF 4
ENDMDL
MODEL 8
REMARK VINA RESULT:    -5.464      5.546     10.049
REMARK INTER + INTRA:          -7.487
REMARK INTER:                  -6.634
REMARK INTRA:                  -0.853
REMARK UNBOUND:                -0.746
REMARK  Name = /home/qwerty/github/datacon2025hack/step_04_hit_selection/docking/ligands/lig_712.pdb
REMARK  6 active torsions:
REMARK  status: ('A' for Active; 'I' for Inactive)
REMARK    1  A    between atoms: C1_1  and  C2_2
REMARK    2  A    between atoms: C4_4  and  C5_5
REMARK    3  A    between atoms: C5_5  and  N1_6
REMARK    4  A    between atoms: C8_9  and  C9_10
REMARK    5  A    between atoms: C10_11  and  N2_12
REMARK    6  A    between atoms: C11_13  and  C12_15
REMARK                            x       y       z     vdW  Elec       q    Type
REMARK                         _______ _______ _______ _____ _____    ______ ____
ROOT
ATOM      1  N1  UNL     1      20.430   2.395  25.579  0.00  0.00    -0.295 NA
ATOM      2  C6  UNL     1      20.421   3.706  24.883  0.00  0.00    +0.085 C 
ATOM      3  C7  UNL     1      19.279   3.824  23.849  0.00  0.00    +0.020 C 
ATOM      4  C8  UNL     1      18.166   2.801  24.126  0.00  0.00    +0.009 C 
ATOM      5  C9  UNL     1      17.012   2.965  23.129  0.00  0.00    +0.009 C 
ATOM      6  C10 UNL     1      18.737   1.358  24.091  0.00  0.00    +0.090 C 
ATOM      7  C17 UNL     1      20.189   1.298  24.623  0.00  0.00    +0.107 C 
ENDROOT
BRANCH   6   8
ATOM      8  N2  UNL     1      17.878   0.477  24.891  0.00  0.00    -0.307 N 
ATOM      9  C11 UNL     1      17.066  -0.560  24.314  0.00  0.00    +0.244 C 
ATOM     10  O1  UNL     1      17.278  -0.934  23.128  0.00  0.00    -0.270 OA
ATOM     11  H16 UNL     1      17.854   0.632  25.923  0.00  0.00    +0.149 HD
BRANCH   9  12
ATOM     12  C12 UNL     1      15.995  -1.215  25.102  0.00  0.00    +0.040 A 
ATOM     13  C13 UNL     1      15.512  -2.479  24.722  0.00  0.00    +0.033 A 
ATOM     14  C14 UNL     1      14.497  -3.085  25.465  0.00  0.00    +0.111 A 
ATOM     15  N3  UNL     1      13.972  -2.452  26.547  0.00  0.00    -0.263 NA
ATOM     16  C15 UNL     1      14.408  -1.224  26.934  0.00  0.00    +0.111 A 
ATOM     17  C16 UNL     1      15.423  -0.582  26.219  0.00  0.00    +0.033 A 
ENDBRANCH   9  12
ENDBRANCH   6   8
BRANCH   1  18
ATOM     18  C5  UNL     1      21.702   2.183  26.301  0.00  0.00    +0.140 C 
BRANCH  18  22
ATOM     19  C1  UNL     1      18.572   1.219  30.122  0.00  0.00    +0.066 C 
ATOM     20  C2  UNL     1      19.949   1.285  29.541  0.00  0.00    +0.042 A 
ATOM     21  C3  UNL     1      20.140   1.686  28.216  0.00  0.00    +0.047 A 
ATOM     22  C4  UNL     1      21.445   1.733  27.711  0.00  0.00    +0.059 A 
ATOM     23  N4  UNL     1      22.488   1.397  28.516  0.00  0.00    -0.239 NA
ATOM     24  C18 UNL     1      22.285   1.007  29.801  0.00  0.00    +0.221 A 
ATOM     25  N5  UNL     1      21.024   0.952  30.305  0.00  0.00    -0.241 NA
ENDBRANCH  18  22
ENDBRANCH   1  18
TORSDOF 4
ENDMDL
MODEL 9
REMARK VINA RESULT:    -5.357     14.298     15.415
REMARK INTER + INTRA:          -7.355
REMARK INTER:                  -6.582
REMARK INTRA:                  -0.773
REMARK UNBOUND:                -0.746
REMARK  Name = /home/qwerty/github/datacon2025hack/step_04_hit_selection/docking/ligands/lig_712.pdb
REMARK  6 active torsions:
REMARK  status: ('A' for Active; 'I' for Inactive)
REMARK    1  A    between atoms: C1_1  and  C2_2
REMARK    2  A    between atoms: C4_4  and  C5_5
REMARK    3  A    between atoms: C5_5  and  N1_6
REMARK    4  A    between atoms: C8_9  and  C9_10
REMARK    5  A    between atoms: C10_11  and  N2_12
REMARK    6  A    between atoms: C11_13  and  C12_15
REMARK                            x       y       z     vdW  Elec       q    Type
REMARK                         _______ _______ _______ _____ _____    ______ ____
ROOT
ATOM      1  N1  UNL     1       8.289   5.941  22.869  0.00  0.00    -0.295 NA
ATOM      2  C6  UNL     1       7.838   4.538  23.055  0.00  0.00    +0.085 C 
ATOM      3  C7  UNL     1       7.901   4.082  24.531  0.00  0.00    +0.020 C 
ATOM      4  C8  UNL     1       7.934   5.286  25.486  0.00  0.00    +0.009 C 
ATOM      5  C9  UNL     1       7.938   4.822  26.948  0.00  0.00    +0.009 C 
ATOM      6  C10 UNL     1       9.160   6.186  25.180  0.00  0.00    +0.090 C 
ATOM      7  C17 UNL     1       9.500   6.207  23.670  0.00  0.00    +0.107 C 
ENDROOT
BRANCH   6   8
ATOM      8  N2  UNL     1       8.888   7.551  25.646  0.00  0.00    -0.307 N 
ATOM      9  C11 UNL     1       9.448   8.091  26.855  0.00  0.00    +0.244 C 
ATOM     10  O1  UNL     1      10.417   7.507  27.413  0.00  0.00    -0.270 OA
ATOM     11  H16 UNL     1       8.246   8.140  25.072  0.00  0.00    +0.149 HD
BRANCH   9  12
ATOM     12  C12 UNL     1       8.917   9.342  27.448  0.00  0.00    +0.040 A 
ATOM     13  C13 UNL     1       8.138   9.294  28.617  0.00  0.00    +0.033 A 
ATOM     14  C14 UNL     1       7.635  10.476  29.164  0.00  0.00    +0.111 A 
ATOM     15  N3  UNL     1       7.889  11.668  28.563  0.00  0.00    -0.263 NA
ATOM     16  C15 UNL     1       8.628  11.748  27.425  0.00  0.00    +0.111 A 
ATOM     17  C16 UNL     1       9.151  10.589  26.844  0.00  0.00    +0.033 A 
ENDBRANCH   9  12
ENDBRANCH   6   8
BRANCH   1  18
ATOM     18  C5  UNL     1       8.536   6.236  21.442  0.00  0.00    +0.140 C 
BRANCH  18  22
ATOM     19  C1  UNL     1      11.185  10.077  19.557  0.00  0.00    +0.066 C 
ATOM     20  C2  UNL     1      10.031   9.544  20.346  0.00  0.00    +0.042 A 
ATOM     21  C3  UNL     1       9.851   8.166  20.492  0.00  0.00    +0.047 A 
ATOM     22  C4  UNL     1       8.757   7.708  21.236  0.00  0.00    +0.059 A 
ATOM     23  N4  UNL     1       7.907   8.606  21.801  0.00  0.00    -0.239 NA
ATOM     24  C18 UNL     1       8.095   9.943  21.647  0.00  0.00    +0.221 A 
ATOM     25  N5  UNL     1       9.150  10.403  20.924  0.00  0.00    -0.241 NA
ENDBRANCH  18  22
ENDBRANCH   1  18
TORSDOF 4
ENDMDL
