REMARK  Name = /home/qwerty/github/datacon2025hack/step_04_hit_selection/docking/ligands/lig_235.pdb
REMARK  2 active torsions:
REMARK  status: ('A' for Active; 'I' for Inactive)
REMARK    1  A    between atoms: C1_1  and  C2_2
REMARK    2  A    between atoms: C6_7  and  C7_8
REMARK                            x       y       z     vdW  Elec       q    Type
REMARK                         _______ _______ _______ _____ _____    ______ ____
ROOT
ATOM      1  C7  UNL     1       2.174  -1.550   0.761  0.00  0.00    +0.076 A 
ATOM      2  C8  UNL     1       0.966  -0.994   0.309  0.00  0.00    +0.072 A 
ATOM      3  C9  UNL     1      -0.247  -1.529   0.773  0.00  0.00    +0.125 A 
ATOM      4  N2  UNL     1      -1.518  -1.002   0.337  0.00  0.00    -0.312 N 
ATOM      5  C10 UNL     1      -2.669  -1.914   0.257  0.00  0.00    +0.125 C 
ATOM      6  C11 UNL     1      -3.831  -1.294  -0.524  0.00  0.00    +0.127 C 
ATOM      7  N3  UNL     1      -4.124   0.055  -0.021  0.00  0.00    -0.297 N 
ATOM      8  C12 UNL     1      -5.482   0.536   0.049  0.00  0.00    +0.218 A 
ATOM      9  N4  UNL     1      -5.755   1.734   0.638  0.00  0.00    -0.223 NA
ATOM     10  C13 UNL     1      -7.026   2.209   0.712  0.00  0.00    +0.116 A 
ATOM     11  C14 UNL     1      -8.077   1.466   0.180  0.00  0.00    +0.039 A 
ATOM     12  C15 UNL     1      -7.787   0.243  -0.421  0.00  0.00    +0.116 A 
ATOM     13  N5  UNL     1      -6.503  -0.197  -0.476  0.00  0.00    -0.223 NA
ATOM     14  C16 UNL     1      -3.021   0.963   0.331  0.00  0.00    +0.127 C 
ATOM     15  C17 UNL     1      -1.656   0.400  -0.084  0.00  0.00    +0.125 C 
ATOM     16  N6  UNL     1      -0.217  -2.589   1.627  0.00  0.00    -0.221 NA
ATOM     17  C18 UNL     1       0.955  -3.125   2.047  0.00  0.00    +0.223 A 
ATOM     18  N7  UNL     1       2.133  -2.608   1.616  0.00  0.00    -0.235 NA
ENDROOT
BRANCH   1  25
ATOM     19  C1  UNL     1       7.479   2.927  -1.646  0.00  0.00    +0.086 C 
ATOM     20  C2  UNL     1       6.625   1.824  -1.117  0.00  0.00    +0.105 A 
ATOM     21  N1  UNL     1       7.084   0.559  -0.927  0.00  0.00    -0.233 NA
ATOM     22  C3  UNL     1       5.986  -0.093  -0.504  0.00  0.00    +0.089 A 
ATOM     23  C4  UNL     1       5.876  -1.432  -0.147  0.00  0.00    +0.030 A 
ATOM     24  C5  UNL     1       4.615  -1.899   0.268  0.00  0.00    +0.012 A 
ATOM     25  C6  UNL     1       3.490  -1.029   0.311  0.00  0.00    +0.003 A 
ATOM     26  C19 UNL     1       3.654   0.331  -0.056  0.00  0.00    +0.037 A 
ATOM     27  C20 UNL     1       4.919   0.751  -0.458  0.00  0.00    +0.067 A 
ATOM     28  N8  UNL     1       5.304   1.972  -0.848  0.00  0.00    -0.342 N 
ATOM     29  H20 UNL     1       4.721   2.835  -0.932  0.00  0.00    +0.167 HD
ENDBRANCH   1  25
TORSDOF 1
