MODEL 1
REMARK VINA RESULT:    -6.173      0.000      0.000
REMARK INTER + INTRA:          -7.150
REMARK INTER:                  -6.895
REMARK INTRA:                  -0.255
REMARK UNBOUND:                -0.255
REMARK  Name = /home/qwerty/github/datacon2025hack/step_04_hit_selection/docking/ligands/lig_52.pdb
REMARK  7 active torsions:
REMARK  status: ('A' for Active; 'I' for Inactive)
REMARK    1  A    between atoms: C1_1  and  C2_2
REMARK    2  A    between atoms: C2_2  and  C3_3
REMARK    3  A    between atoms: C2_2  and  N1_4
REMARK    4  A    between atoms: C4_5  and  C5_7
REMARK    5  A    between atoms: C8_13  and  C9_14
REMARK    6  A    between atoms: C13_20  and  C14_21
REMARK    7  A    between atoms: N5_23  and  C16_24
REMARK                            x       y       z     vdW  Elec       q    Type
REMARK                         _______ _______ _______ _____ _____    ______ ____
ROOT
ATOM      1  C5  UNL     1       9.215   9.403  23.607  0.00  0.00    +0.220 A 
ATOM      2  N2  UNL     1       7.871   9.489  23.633  0.00  0.00    -0.123 NA
ATOM      3  N3  UNL     1       7.514   9.713  24.888  0.00  0.00    -0.113 NA
ATOM      4  C6  UNL     1       8.650   9.760  25.612  0.00  0.00    +0.220 A 
ATOM      5  N4  UNL     1       8.665   9.985  27.031  0.00  0.00    -0.294 N 
ATOM      6  C7  UNL     1       7.606   9.420  27.866  0.00  0.00    +0.139 C 
ATOM      7  C8  UNL     1       7.852   9.776  29.344  0.00  0.00    +0.133 C 
ATOM      8  C9  UNL     1       6.702   9.268  30.211  0.00  0.00    +0.039 C 
ATOM      9  O2  UNL     1       7.971  11.178  29.520  0.00  0.00    -0.365 OA
ATOM     10  C10 UNL     1       8.944  11.806  28.676  0.00  0.00    +0.113 C 
ATOM     11  C11 UNL     1       8.269  12.927  27.910  0.00  0.00    +0.067 C 
ATOM     12  C12 UNL     1       9.331  14.016  27.847  0.00  0.00    +0.163 C 
ATOM     13  O3  UNL     1      10.353  13.730  28.776  0.00  0.00    -0.374 OA
ATOM     14  C13 UNL     1       9.919  12.628  29.536  0.00  0.00    +0.149 C 
ATOM     15  C14 UNL     1      11.122  11.857  30.083  0.00  0.00    +0.041 C 
ATOM     16  C15 UNL     1       9.661  10.851  27.661  0.00  0.00    +0.145 C 
ATOM     17  N5  UNL     1       9.741   9.548  24.845  0.00  0.00    -0.295 N 
ATOM     18  C16 UNL     1      11.122   9.331  25.280  0.00  0.00    +0.154 C 
ENDROOT
BRANCH   1  20
ATOM     19  N1  UNL     1      10.687  10.204  21.707  0.00  0.00    -0.306 N 
ATOM     20  C4  UNL     1       9.972   9.149  22.367  0.00  0.00    +0.282 C 
ATOM     21  O1  UNL     1       9.942   7.995  21.861  0.00  0.00    -0.267 OA
ATOM     22  H8  UNL     1      10.469  11.192  21.970  0.00  0.00    +0.149 HD
BRANCH  19  24
ATOM     23  C1  UNL     1      12.831  10.900  20.729  0.00  0.00    +0.027 C 
ATOM     24  C2  UNL     1      11.639   9.944  20.622  0.00  0.00    +0.067 C 
ATOM     25  C3  UNL     1      10.952  10.099  19.262  0.00  0.00    +0.027 C 
ENDBRANCH  19  24
ENDBRANCH   1  20
TORSDOF 2
ENDMDL
MODEL 2
REMARK VINA RESULT:    -6.039      4.993      9.718
REMARK INTER + INTRA:          -7.000
REMARK INTER:                  -6.731
REMARK INTRA:                  -0.269
REMARK UNBOUND:                -0.255
REMARK  Name = /home/qwerty/github/datacon2025hack/step_04_hit_selection/docking/ligands/lig_52.pdb
REMARK  7 active torsions:
REMARK  status: ('A' for Active; 'I' for Inactive)
REMARK    1  A    between atoms: C1_1  and  C2_2
REMARK    2  A    between atoms: C2_2  and  C3_3
REMARK    3  A    between atoms: C2_2  and  N1_4
REMARK    4  A    between atoms: C4_5  and  C5_7
REMARK    5  A    between atoms: C8_13  and  C9_14
REMARK    6  A    between atoms: C13_20  and  C14_21
REMARK    7  A    between atoms: N5_23  and  C16_24
REMARK                            x       y       z     vdW  Elec       q    Type
REMARK                         _______ _______ _______ _____ _____    ______ ____
ROOT
ATOM      1  C5  UNL     1      12.077  13.067  33.689  0.00  0.00    +0.220 A 
ATOM      2  N2  UNL     1      11.901  14.397  33.566  0.00  0.00    -0.123 NA
ATOM      3  N3  UNL     1      11.744  14.655  32.277  0.00  0.00    -0.113 NA
ATOM      4  C6  UNL     1      11.827  13.475  31.631  0.00  0.00    +0.220 A 
ATOM      5  N4  UNL     1      11.706  13.354  30.204  0.00  0.00    -0.294 N 
ATOM      6  C7  UNL     1      12.256  14.396  29.339  0.00  0.00    +0.139 C 
ATOM      7  C8  UNL     1      12.024  14.032  27.860  0.00  0.00    +0.133 C 
ATOM      8  C9  UNL     1      12.512  15.159  26.952  0.00  0.00    +0.039 C 
ATOM      9  O2  UNL     1      10.650  13.799  27.600  0.00  0.00    -0.365 OA
ATOM     10  C10 UNL     1      10.032  12.838  28.463  0.00  0.00    +0.113 C 
ATOM     11  C11 UNL     1       8.814  13.477  29.105  0.00  0.00    +0.067 C 
ATOM     12  C12 UNL     1       7.799  12.344  29.167  0.00  0.00    +0.163 C 
ATOM     13  O3  UNL     1       8.221  11.288  28.332  0.00  0.00    -0.374 OA
ATOM     14  C13 UNL     1       9.342  11.753  27.620  0.00  0.00    +0.149 C 
ATOM     15  C14 UNL     1      10.232  10.577  27.209  0.00  0.00    +0.041 C 
ATOM     16  C15 UNL     1      10.958  12.259  29.587  0.00  0.00    +0.145 C 
ATOM     17  N5  UNL     1      12.058  12.454  32.484  0.00  0.00    -0.295 N 
ATOM     18  C16 UNL     1      12.401  11.068  32.160  0.00  0.00    +0.154 C 
ENDROOT
BRANCH   1  20
ATOM     19  N1  UNL     1      11.242  11.670  35.631  0.00  0.00    -0.306 N 
ATOM     20  C4  UNL     1      12.294  12.411  34.993  0.00  0.00    +0.282 C 
ATOM     21  O1  UNL     1      13.406  12.550  35.568  0.00  0.00    -0.267 OA
ATOM     22  H8  UNL     1      10.263  11.803  35.291  0.00  0.00    +0.149 HD
BRANCH  19  24
ATOM     23  C1  UNL     1      10.950   9.401  36.527  0.00  0.00    +0.027 C 
ATOM     24  C2  UNL     1      11.488  10.810  36.793  0.00  0.00    +0.067 C 
ATOM     25  C3  UNL     1      10.830  11.403  38.044  0.00  0.00    +0.027 C 
ENDBRANCH  19  24
ENDBRANCH   1  20
TORSDOF 2
ENDMDL
MODEL 3
REMARK VINA RESULT:    -5.866     13.986     16.189
REMARK INTER + INTRA:          -6.807
REMARK INTER:                  -6.537
REMARK INTRA:                  -0.269
REMARK UNBOUND:                -0.255
REMARK  Name = /home/qwerty/github/datacon2025hack/step_04_hit_selection/docking/ligands/lig_52.pdb
REMARK  7 active torsions:
REMARK  status: ('A' for Active; 'I' for Inactive)
REMARK    1  A    between atoms: C1_1  and  C2_2
REMARK    2  A    between atoms: C2_2  and  C3_3
REMARK    3  A    between atoms: C2_2  and  N1_4
REMARK    4  A    between atoms: C4_5  and  C5_7
REMARK    5  A    between atoms: C8_13  and  C9_14
REMARK    6  A    between atoms: C13_20  and  C14_21
REMARK    7  A    between atoms: N5_23  and  C16_24
REMARK                            x       y       z     vdW  Elec       q    Type
REMARK                         _______ _______ _______ _____ _____    ______ ____
ROOT
ATOM      1  C5  UNL     1      22.207   5.942  32.879  0.00  0.00    +0.220 A 
ATOM      2  N2  UNL     1      22.588   5.058  33.822  0.00  0.00    -0.123 NA
ATOM      3  N3  UNL     1      22.099   3.877  33.474  0.00  0.00    -0.113 NA
ATOM      4  C6  UNL     1      21.424   4.060  32.322  0.00  0.00    +0.220 A 
ATOM      5  N4  UNL     1      20.747   2.995  31.635  0.00  0.00    -0.294 N 
ATOM      6  C7  UNL     1      20.078   1.946  32.403  0.00  0.00    +0.139 C 
ATOM      7  C8  UNL     1      19.409   0.938  31.449  0.00  0.00    +0.133 C 
ATOM      8  C9  UNL     1      18.787  -0.210  32.241  0.00  0.00    +0.039 C 
ATOM      9  O2  UNL     1      20.347   0.403  30.530  0.00  0.00    -0.365 OA
ATOM     10  C10 UNL     1      21.090   1.383  29.796  0.00  0.00    +0.113 C 
ATOM     11  C11 UNL     1      22.570   1.111  29.987  0.00  0.00    +0.067 C 
ATOM     12  C12 UNL     1      23.179   1.438  28.631  0.00  0.00    +0.163 C 
ATOM     13  O3  UNL     1      22.155   1.523  27.664  0.00  0.00    -0.374 OA
ATOM     14  C13 UNL     1      20.967   1.101  28.289  0.00  0.00    +0.149 C 
ATOM     15  C14 UNL     1      19.755   1.734  27.600  0.00  0.00    +0.041 C 
ATOM     16  C15 UNL     1      20.789   2.872  30.177  0.00  0.00    +0.145 C 
ATOM     17  N5  UNL     1      21.451   5.351  31.926  0.00  0.00    -0.295 N 
ATOM     18  C16 UNL     1      20.686   5.980  30.848  0.00  0.00    +0.154 C 
ENDROOT
BRANCH   1  20
ATOM     19  N1  UNL     1      23.773   7.857  32.334  0.00  0.00    -0.306 N 
ATOM     20  C4  UNL     1      22.565   7.372  32.939  0.00  0.00    +0.282 C 
ATOM     21  O1  UNL     1      21.817   8.161  33.576  0.00  0.00    -0.267 OA
ATOM     22  H8  UNL     1      24.510   7.165  32.069  0.00  0.00    +0.149 HD
BRANCH  19  24
ATOM     23  C1  UNL     1      23.544   9.754  30.790  0.00  0.00    +0.027 C 
ATOM     24  C2  UNL     1      24.040   9.289  32.163  0.00  0.00    +0.067 C 
ATOM     25  C3  UNL     1      25.537   9.575  32.313  0.00  0.00    +0.027 C 
ENDBRANCH  19  24
ENDBRANCH   1  20
TORSDOF 2
ENDMDL
MODEL 4
REMARK VINA RESULT:    -5.716      2.297      8.184
REMARK INTER + INTRA:          -6.640
REMARK INTER:                  -6.383
REMARK INTRA:                  -0.257
REMARK UNBOUND:                -0.255
REMARK  Name = /home/qwerty/github/datacon2025hack/step_04_hit_selection/docking/ligands/lig_52.pdb
REMARK  7 active torsions:
REMARK  status: ('A' for Active; 'I' for Inactive)
REMARK    1  A    between atoms: C1_1  and  C2_2
REMARK    2  A    between atoms: C2_2  and  C3_3
REMARK    3  A    between atoms: C2_2  and  N1_4
REMARK    4  A    between atoms: C4_5  and  C5_7
REMARK    5  A    between atoms: C8_13  and  C9_14
REMARK    6  A    between atoms: C13_20  and  C14_21
REMARK    7  A    between atoms: N5_23  and  C16_24
REMARK                            x       y       z     vdW  Elec       q    Type
REMARK                         _______ _______ _______ _____ _____    ______ ____
ROOT
ATOM      1  C5  UNL     1       7.998   9.334  25.445  0.00  0.00    +0.220 A 
ATOM      2  N2  UNL     1       7.236  10.044  24.590  0.00  0.00    -0.123 NA
ATOM      3  N3  UNL     1       7.780   9.928  23.388  0.00  0.00    -0.113 NA
ATOM      4  C6  UNL     1       8.869   9.148  23.528  0.00  0.00    +0.220 A 
ATOM      5  N4  UNL     1       9.727   8.797  22.430  0.00  0.00    -0.294 N 
ATOM      6  C7  UNL     1       9.988   9.774  21.373  0.00  0.00    +0.139 C 
ATOM      7  C8  UNL     1      10.947   9.176  20.327  0.00  0.00    +0.133 C 
ATOM      8  C9  UNL     1      11.152  10.156  19.173  0.00  0.00    +0.039 C 
ATOM      9  O2  UNL     1      10.442   7.958  19.806  0.00  0.00    -0.365 OA
ATOM     10  C10 UNL     1      10.098   6.982  20.796  0.00  0.00    +0.113 C 
ATOM     11  C11 UNL     1       8.658   6.558  20.577  0.00  0.00    +0.067 C 
ATOM     12  C12 UNL     1       8.663   5.070  20.900  0.00  0.00    +0.163 C 
ATOM     13  O3  UNL     1       9.993   4.601  20.933  0.00  0.00    -0.374 OA
ATOM     14  C13 UNL     1      10.810   5.655  20.484  0.00  0.00    +0.149 C 
ATOM     15  C14 UNL     1      12.219   5.514  21.064  0.00  0.00    +0.041 C 
ATOM     16  C15 UNL     1      10.274   7.448  22.282  0.00  0.00    +0.145 C 
ATOM     17  N5  UNL     1       9.053   8.771  24.812  0.00  0.00    -0.295 N 
ATOM     18  C16 UNL     1      10.212   8.094  25.396  0.00  0.00    +0.154 C 
ENDROOT
BRANCH   1  20
ATOM     19  N1  UNL     1       8.335  10.115  27.831  0.00  0.00    -0.306 N 
ATOM     20  C4  UNL     1       7.700   9.240  26.886  0.00  0.00    +0.282 C 
ATOM     21  O1  UNL     1       6.912   8.342  27.288  0.00  0.00    -0.267 OA
ATOM     22  H8  UNL     1       9.182  10.645  27.526  0.00  0.00    +0.149 HD
BRANCH  19  24
ATOM     23  C1  UNL     1       7.741  11.686  29.624  0.00  0.00    +0.027 C 
ATOM     24  C2  UNL     1       7.888  10.214  29.224  0.00  0.00    +0.067 C 
ATOM     25  C3  UNL     1       8.879   9.507  30.154  0.00  0.00    +0.027 C 
ENDBRANCH  19  24
ENDBRANCH   1  20
TORSDOF 2
ENDMDL
MODEL 5
REMARK VINA RESULT:    -5.562     13.217     15.873
REMARK INTER + INTRA:          -6.467
REMARK INTER:                  -6.195
REMARK INTRA:                  -0.273
REMARK UNBOUND:                -0.255
REMARK  Name = /home/qwerty/github/datacon2025hack/step_04_hit_selection/docking/ligands/lig_52.pdb
REMARK  7 active torsions:
REMARK  status: ('A' for Active; 'I' for Inactive)
REMARK    1  A    between atoms: C1_1  and  C2_2
REMARK    2  A    between atoms: C2_2  and  C3_3
REMARK    3  A    between atoms: C2_2  and  N1_4
REMARK    4  A    between atoms: C4_5  and  C5_7
REMARK    5  A    between atoms: C8_13  and  C9_14
REMARK    6  A    between atoms: C13_20  and  C14_21
REMARK    7  A    between atoms: N5_23  and  C16_24
REMARK                            x       y       z     vdW  Elec       q    Type
REMARK                         _______ _______ _______ _____ _____    ______ ____
ROOT
ATOM      1  C5  UNL     1      21.912   2.854  31.117  0.00  0.00    +0.220 A 
ATOM      2  N2  UNL     1      22.597   1.746  30.775  0.00  0.00    -0.123 NA
ATOM      3  N3  UNL     1      22.273   1.453  29.525  0.00  0.00    -0.113 NA
ATOM      4  C6  UNL     1      21.392   2.389  29.122  0.00  0.00    +0.220 A 
ATOM      5  N4  UNL     1      20.807   2.400  27.809  0.00  0.00    -0.294 N 
ATOM      6  C7  UNL     1      20.474   1.137  27.153  0.00  0.00    +0.139 C 
ATOM      7  C8  UNL     1      19.844   1.408  25.774  0.00  0.00    +0.133 C 
ATOM      8  C9  UNL     1      19.578   0.094  25.044  0.00  0.00    +0.039 C 
ATOM      9  O2  UNL     1      20.692   2.213  24.972  0.00  0.00    -0.365 OA
ATOM     10  C10 UNL     1      21.114   3.435  25.588  0.00  0.00    +0.113 C 
ATOM     11  C11 UNL     1      22.630   3.494  25.557  0.00  0.00    +0.067 C 
ATOM     12  C12 UNL     1      22.932   4.964  25.305  0.00  0.00    +0.163 C 
ATOM     13  O3  UNL     1      21.761   5.617  24.865  0.00  0.00    -0.374 OA
ATOM     14  C13 UNL     1      20.790   4.619  24.661  0.00  0.00    +0.149 C 
ATOM     15  C14 UNL     1      19.386   5.209  24.819  0.00  0.00    +0.041 C 
ATOM     16  C15 UNL     1      20.623   3.644  27.061  0.00  0.00    +0.145 C 
ATOM     17  N5  UNL     1      21.123   3.277  30.103  0.00  0.00    -0.295 N 
ATOM     18  C16 UNL     1      20.087   4.311  30.125  0.00  0.00    +0.154 C 
ENDROOT
BRANCH   1  20
ATOM     19  N1  UNL     1      22.740   4.698  32.644  0.00  0.00    -0.306 N 
ATOM     20  C4  UNL     1      22.016   3.473  32.452  0.00  0.00    +0.282 C 
ATOM     21  O1  UNL     1      21.500   2.884  33.438  0.00  0.00    -0.267 OA
ATOM     22  H8  UNL     1      23.392   5.014  31.891  0.00  0.00    +0.149 HD
BRANCH  19  24
ATOM     23  C1  UNL     1      21.484   6.441  33.836  0.00  0.00    +0.027 C 
ATOM     24  C2  UNL     1      22.662   5.463  33.893  0.00  0.00    +0.067 C 
ATOM     25  C3  UNL     1      23.971   6.220  34.138  0.00  0.00    +0.027 C 
ENDBRANCH  19  24
ENDBRANCH   1  20
TORSDOF 2
ENDMDL
MODEL 6
REMARK VINA RESULT:    -5.558     14.365     16.240
REMARK INTER + INTRA:          -6.463
REMARK INTER:                  -6.193
REMARK INTRA:                  -0.270
REMARK UNBOUND:                -0.255
REMARK  Name = /home/qwerty/github/datacon2025hack/step_04_hit_selection/docking/ligands/lig_52.pdb
REMARK  7 active torsions:
REMARK  status: ('A' for Active; 'I' for Inactive)
REMARK    1  A    between atoms: C1_1  and  C2_2
REMARK    2  A    between atoms: C2_2  and  C3_3
REMARK    3  A    between atoms: C2_2  and  N1_4
REMARK    4  A    between atoms: C4_5  and  C5_7
REMARK    5  A    between atoms: C8_13  and  C9_14
REMARK    6  A    between atoms: C13_20  and  C14_21
REMARK    7  A    between atoms: N5_23  and  C16_24
REMARK                            x       y       z     vdW  Elec       q    Type
REMARK                         _______ _______ _______ _____ _____    ______ ____
ROOT
ATOM      1  C5  UNL     1      19.730   2.588  33.876  0.00  0.00    +0.220 A 
ATOM      2  N2  UNL     1      21.001   2.164  33.741  0.00  0.00    -0.123 NA
ATOM      3  N3  UNL     1      21.773   3.239  33.706  0.00  0.00    -0.113 NA
ATOM      4  C6  UNL     1      20.959   4.306  33.819  0.00  0.00    +0.220 A 
ATOM      5  N4  UNL     1      21.438   5.661  33.818  0.00  0.00    -0.294 N 
ATOM      6  C7  UNL     1      22.569   6.029  32.967  0.00  0.00    +0.139 C 
ATOM      7  C8  UNL     1      22.880   7.529  33.122  0.00  0.00    +0.133 C 
ATOM      8  C9  UNL     1      24.117   7.902  32.307  0.00  0.00    +0.039 C 
ATOM      9  O2  UNL     1      23.109   7.867  34.479  0.00  0.00    -0.365 OA
ATOM     10  C10 UNL     1      22.068   7.468  35.379  0.00  0.00    +0.113 C 
ATOM     11  C11 UNL     1      22.679   6.629  36.484  0.00  0.00    +0.067 C 
ATOM     12  C12 UNL     1      21.895   7.035  37.725  0.00  0.00    +0.163 C 
ATOM     13  O3  UNL     1      21.182   8.223  37.463  0.00  0.00    -0.374 OA
ATOM     14  C13 UNL     1      21.602   8.682  36.201  0.00  0.00    +0.149 C 
ATOM     15  C14 UNL     1      20.503   9.529  35.555  0.00  0.00    +0.041 C 
ATOM     16  C15 UNL     1      20.889   6.671  34.722  0.00  0.00    +0.145 C 
ATOM     17  N5  UNL     1      19.662   3.938  33.907  0.00  0.00    -0.295 N 
ATOM     18  C16 UNL     1      18.475   4.793  33.847  0.00  0.00    +0.154 C 
ENDROOT
BRANCH   1  20
ATOM     19  N1  UNL     1      18.062   1.222  35.207  0.00  0.00    -0.306 N 
ATOM     20  C4  UNL     1      18.585   1.660  33.943  0.00  0.00    +0.282 C 
ATOM     21  O1  UNL     1      18.099   1.214  32.870  0.00  0.00    -0.267 OA
ATOM     22  H8  UNL     1      18.644   1.365  36.063  0.00  0.00    +0.149 HD
BRANCH  19  24
ATOM     23  C1  UNL     1      15.628   1.500  35.392  0.00  0.00    +0.027 C 
ATOM     24  C2  UNL     1      16.789   0.502  35.317  0.00  0.00    +0.067 C 
ATOM     25  C3  UNL     1      16.793  -0.403  36.552  0.00  0.00    +0.027 C 
ENDBRANCH  19  24
ENDBRANCH   1  20
TORSDOF 2
ENDMDL
MODEL 7
REMARK VINA RESULT:    -5.495      5.145      9.569
REMARK INTER + INTRA:          -6.393
REMARK INTER:                  -6.127
REMARK INTRA:                  -0.266
REMARK UNBOUND:                -0.255
REMARK  Name = /home/qwerty/github/datacon2025hack/step_04_hit_selection/docking/ligands/lig_52.pdb
REMARK  7 active torsions:
REMARK  status: ('A' for Active; 'I' for Inactive)
REMARK    1  A    between atoms: C1_1  and  C2_2
REMARK    2  A    between atoms: C2_2  and  C3_3
REMARK    3  A    between atoms: C2_2  and  N1_4
REMARK    4  A    between atoms: C4_5  and  C5_7
REMARK    5  A    between atoms: C8_13  and  C9_14
REMARK    6  A    between atoms: C13_20  and  C14_21
REMARK    7  A    between atoms: N5_23  and  C16_24
REMARK                            x       y       z     vdW  Elec       q    Type
REMARK                         _______ _______ _______ _____ _____    ______ ____
ROOT
ATOM      1  C5  UNL     1      11.760  12.464  33.701  0.00  0.00    +0.220 A 
ATOM      2  N2  UNL     1      11.311  11.213  33.481  0.00  0.00    -0.123 NA
ATOM      3  N3  UNL     1      10.933  11.147  32.214  0.00  0.00    -0.113 NA
ATOM      4  C6  UNL     1      11.156  12.363  31.678  0.00  0.00    +0.220 A 
ATOM      5  N4  UNL     1      10.863  12.680  30.307  0.00  0.00    -0.294 N 
ATOM      6  C7  UNL     1       9.686  12.099  29.664  0.00  0.00    +0.139 C 
ATOM      7  C8  UNL     1       9.574  12.602  28.213  0.00  0.00    +0.133 C 
ATOM      8  C9  UNL     1       8.399  11.929  27.506  0.00  0.00    +0.039 C 
ATOM      9  O2  UNL     1      10.760  12.333  27.484  0.00  0.00    -0.365 OA
ATOM     10  C10 UNL     1      11.961  12.815  28.098  0.00  0.00    +0.113 C 
ATOM     11  C11 UNL     1      12.930  11.656  28.241  0.00  0.00    +0.067 C 
ATOM     12  C12 UNL     1      14.290  12.284  27.970  0.00  0.00    +0.163 C 
ATOM     13  O3  UNL     1      14.114  13.550  27.375  0.00  0.00    -0.374 OA
ATOM     14  C13 UNL     1      12.741  13.684  27.098  0.00  0.00    +0.149 C 
ATOM     15  C14 UNL     1      12.349  15.164  27.070  0.00  0.00    +0.041 C 
ATOM     16  C15 UNL     1      11.768  13.496  29.497  0.00  0.00    +0.145 C 
ATOM     17  N5  UNL     1      11.657  13.226  32.588  0.00  0.00    -0.295 N 
ATOM     18  C16 UNL     1      11.846  14.671  32.451  0.00  0.00    +0.154 C 
ENDROOT
BRANCH   1  20
ATOM     19  N1  UNL     1      13.632  12.717  35.388  0.00  0.00    -0.306 N 
ATOM     20  C4  UNL     1      12.259  12.911  35.014  0.00  0.00    +0.282 C 
ATOM     21  O1  UNL     1      11.450  13.424  35.832  0.00  0.00    -0.267 OA
ATOM     22  H8  UNL     1      14.208  12.045  34.832  0.00  0.00    +0.149 HD
BRANCH  19  24
ATOM     23  C1  UNL     1      14.745  14.748  36.207  0.00  0.00    +0.027 C 
ATOM     24  C2  UNL     1      14.217  13.356  36.571  0.00  0.00    +0.067 C 
ATOM     25  C3  UNL     1      15.345  12.492  37.143  0.00  0.00    +0.027 C 
ENDBRANCH  19  24
ENDBRANCH   1  20
TORSDOF 2
ENDMDL
MODEL 8
REMARK VINA RESULT:    -5.493     13.637     16.415
REMARK INTER + INTRA:          -6.391
REMARK INTER:                  -6.133
REMARK INTRA:                  -0.258
REMARK UNBOUND:                -0.255
REMARK  Name = /home/qwerty/github/datacon2025hack/step_04_hit_selection/docking/ligands/lig_52.pdb
REMARK  7 active torsions:
REMARK  status: ('A' for Active; 'I' for Inactive)
REMARK    1  A    between atoms: C1_1  and  C2_2
REMARK    2  A    between atoms: C2_2  and  C3_3
REMARK    3  A    between atoms: C2_2  and  N1_4
REMARK    4  A    between atoms: C4_5  and  C5_7
REMARK    5  A    between atoms: C8_13  and  C9_14
REMARK    6  A    between atoms: C13_20  and  C14_21
REMARK    7  A    between atoms: N5_23  and  C16_24
REMARK                            x       y       z     vdW  Elec       q    Type
REMARK                         _______ _______ _______ _____ _____    ______ ____
ROOT
ATOM      1  C5  UNL     1      21.314   4.914  33.704  0.00  0.00    +0.220 A 
ATOM      2  N2  UNL     1      20.522   3.929  34.169  0.00  0.00    -0.123 NA
ATOM      3  N3  UNL     1      20.094   3.240  33.122  0.00  0.00    -0.113 NA
ATOM      4  C6  UNL     1      20.633   3.818  32.031  0.00  0.00    +0.220 A 
ATOM      5  N4  UNL     1      20.392   3.345  30.695  0.00  0.00    -0.294 N 
ATOM      6  C7  UNL     1      19.075   2.818  30.340  0.00  0.00    +0.139 C 
ATOM      7  C8  UNL     1      19.057   2.398  28.858  0.00  0.00    +0.133 C 
ATOM      8  C9  UNL     1      17.714   1.761  28.502  0.00  0.00    +0.039 C 
ATOM      9  O2  UNL     1      20.090   1.469  28.576  0.00  0.00    -0.365 OA
ATOM     10  C10 UNL     1      21.400   1.896  28.968  0.00  0.00    +0.113 C 
ATOM     11  C11 UNL     1      22.006   0.835  29.867  0.00  0.00    +0.067 C 
ATOM     12  C12 UNL     1      23.477   0.824  29.477  0.00  0.00    +0.163 C 
ATOM     13  O3  UNL     1      23.645   1.507  28.254  0.00  0.00    -0.374 OA
ATOM     14  C13 UNL     1      22.357   1.796  27.767  0.00  0.00    +0.149 C 
ATOM     15  C14 UNL     1      22.400   3.027  26.859  0.00  0.00    +0.041 C 
ATOM     16  C15 UNL     1      21.460   3.282  29.698  0.00  0.00    +0.145 C 
ATOM     17  N5  UNL     1      21.390   4.888  32.353  0.00  0.00    -0.295 N 
ATOM     18  C16 UNL     1      21.976   5.883  31.454  0.00  0.00    +0.154 C 
ENDROOT
BRANCH   1  20
ATOM     19  N1  UNL     1      21.241   7.015  35.118  0.00  0.00    -0.306 N 
ATOM     20  C4  UNL     1      21.968   5.894  34.591  0.00  0.00    +0.282 C 
ATOM     21  O1  UNL     1      23.196   5.764  34.843  0.00  0.00    -0.267 OA
ATOM     22  H8  UNL     1      20.327   7.265  34.678  0.00  0.00    +0.149 HD
BRANCH  19  24
ATOM     23  C1  UNL     1      21.367   7.316  37.553  0.00  0.00    +0.027 C 
ATOM     24  C2  UNL     1      21.781   7.865  36.184  0.00  0.00    +0.067 C 
ATOM     25  C3  UNL     1      21.290   9.306  36.017  0.00  0.00    +0.027 C 
ENDBRANCH  19  24
ENDBRANCH   1  20
TORSDOF 2
ENDMDL
MODEL 9
REMARK VINA RESULT:    -4.383     12.571     14.542
REMARK INTER + INTRA:          -5.150
REMARK INTER:                  -4.896
REMARK INTRA:                  -0.255
REMARK UNBOUND:                -0.255
REMARK  Name = /home/qwerty/github/datacon2025hack/step_04_hit_selection/docking/ligands/lig_52.pdb
REMARK  7 active torsions:
REMARK  status: ('A' for Active; 'I' for Inactive)
REMARK    1  A    between atoms: C1_1  and  C2_2
REMARK    2  A    between atoms: C2_2  and  C3_3
REMARK    3  A    between atoms: C2_2  and  N1_4
REMARK    4  A    between atoms: C4_5  and  C5_7
REMARK    5  A    between atoms: C8_13  and  C9_14
REMARK    6  A    between atoms: C13_20  and  C14_21
REMARK    7  A    between atoms: N5_23  and  C16_24
REMARK                            x       y       z     vdW  Elec       q    Type
REMARK                         _______ _______ _______ _____ _____    ______ ____
ROOT
ATOM      1  C5  UNL     1      17.579   0.287  24.875  0.00  0.00    +0.220 A 
ATOM      2  N2  UNL     1      18.582  -0.025  24.031  0.00  0.00    -0.123 NA
ATOM      3  N3  UNL     1      19.655   0.639  24.432  0.00  0.00    -0.113 NA
ATOM      4  C6  UNL     1      19.289   1.350  25.517  0.00  0.00    +0.220 A 
ATOM      5  N4  UNL     1      20.195   2.205  26.234  0.00  0.00    -0.294 N 
ATOM      6  C7  UNL     1      21.209   2.963  25.503  0.00  0.00    +0.139 C 
ATOM      7  C8  UNL     1      22.037   3.817  26.481  0.00  0.00    +0.133 C 
ATOM      8  C9  UNL     1      23.158   4.541  25.737  0.00  0.00    +0.039 C 
ATOM      9  O2  UNL     1      22.610   3.017  27.502  0.00  0.00    -0.365 OA
ATOM     10  C10 UNL     1      21.677   2.193  28.210  0.00  0.00    +0.113 C 
ATOM     11  C11 UNL     1      22.154   0.754  28.144  0.00  0.00    +0.067 C 
ATOM     12  C12 UNL     1      21.795   0.189  29.511  0.00  0.00    +0.163 C 
ATOM     13  O3  UNL     1      21.497   1.247  30.395  0.00  0.00    -0.374 OA
ATOM     14  C13 UNL     1      21.811   2.442  29.722  0.00  0.00    +0.149 C 
ATOM     15  C14 UNL     1      20.970   3.596  30.274  0.00  0.00    +0.041 C 
ATOM     16  C15 UNL     1      20.198   2.267  27.696  0.00  0.00    +0.145 C 
ATOM     17  N5  UNL     1      17.984   1.172  25.815  0.00  0.00    -0.295 N 
ATOM     18  C16 UNL     1      17.172   1.907  26.785  0.00  0.00    +0.154 C 
ENDROOT
BRANCH   1  20
ATOM     19  N1  UNL     1      15.694  -1.195  25.689  0.00  0.00    -0.306 N 
ATOM     20  C4  UNL     1      16.219  -0.264  24.731  0.00  0.00    +0.282 C 
ATOM     21  O1  UNL     1      15.534   0.057  23.723  0.00  0.00    -0.267 OA
ATOM     22  H8  UNL     1      16.360  -1.664  26.343  0.00  0.00    +0.149 HD
BRANCH  19  24
ATOM     23  C1  UNL     1      13.643  -1.139  27.041  0.00  0.00    +0.027 C 
ATOM     24  C2  UNL     1      14.277  -1.573  25.716  0.00  0.00    +0.067 C 
ATOM     25  C3  UNL     1      14.124  -3.085  25.522  0.00  0.00    +0.027 C 
ENDBRANCH  19  24
ENDBRANCH   1  20
TORSDOF 2
ENDMDL
