REMARK  Name = /home/qwerty/github/datacon2025hack/step_04_hit_selection/docking/ligands/lig_229.pdb
REMARK  2 active torsions:
REMARK  status: ('A' for Active; 'I' for Inactive)
REMARK    1  A    between atoms: C1_2  and  C10_14
REMARK    2  A    between atoms: N1_3  and  C2_4
REMARK                            x       y       z     vdW  Elec       q    Type
REMARK                         _______ _______ _______ _____ _____    ______ ____
ROOT
ATOM      1  O1  UNL     1       0.386  -1.059  -0.870  0.00  0.00    -0.270 OA
ATOM      2  C1  UNL     1       0.541   0.128  -0.476  0.00  0.00    +0.250 C 
ATOM      3  N1  UNL     1      -0.530   1.072  -0.619  0.00  0.00    -0.281 N 
ATOM      4  H1  UNL     1      -0.294   2.084  -0.724  0.00  0.00    +0.155 HD
ENDROOT
BRANCH   3   5
ATOM      5  C2  UNL     1      -1.884   0.671  -0.867  0.00  0.00    +0.041 A 
ATOM      6  C3  UNL     1      -2.607   1.252  -1.928  0.00  0.00    +0.024 A 
ATOM      7  C4  UNL     1      -3.952   0.901  -2.158  0.00  0.00    +0.003 A 
ATOM      8  C5  UNL     1      -4.600  -0.016  -1.315  0.00  0.00    +0.015 A 
ATOM      9  C6  UNL     1      -3.870  -0.564  -0.263  0.00  0.00    +0.067 A 
ATOM     10  C7  UNL     1      -2.551  -0.244  -0.034  0.00  0.00    +0.025 A 
ATOM     11  C8  UNL     1      -2.074  -0.911   1.230  0.00  0.00    +0.270 C 
ATOM     12  O2  UNL     1      -3.225  -1.632   1.680  0.00  0.00    -0.456 OA
ATOM     13  C9  UNL     1      -4.283  -1.437   0.804  0.00  0.00    +0.340 C 
ATOM     14  O3  UNL     1      -5.427  -1.942   0.949  0.00  0.00    -0.245 OA
ENDBRANCH   3   5
BRANCH   2  15
ATOM     15  C10 UNL     1       1.835   0.545   0.101  0.00  0.00    +0.067 A 
ATOM     16  C11 UNL     1       2.130   1.780   0.691  0.00  0.00    +0.127 A 
ATOM     17  N2  UNL     1       3.409   1.847   1.145  0.00  0.00    -0.237 NA
ATOM     18  C12 UNL     1       3.936   0.649   0.845  0.00  0.00    +0.141 A 
ATOM     19  N3  UNL     1       5.197   0.234   1.104  0.00  0.00    -0.330 N 
ATOM     20  C13 UNL     1       5.554  -1.031   0.725  0.00  0.00    +0.197 A 
ATOM     21  N4  UNL     1       4.657  -1.859   0.097  0.00  0.00    -0.245 NA
ATOM     22  C14 UNL     1       3.376  -1.474  -0.180  0.00  0.00    +0.124 A 
ATOM     23  C15 UNL     1       2.993  -0.196   0.197  0.00  0.00    +0.049 A 
ATOM     24  H8  UNL     1       5.881   0.862   1.582  0.00  0.00    +0.168 HD
ENDBRANCH   2  15
TORSDOF 2
