MODEL 1
REMARK VINA RESULT:    -5.600      0.000      0.000
REMARK INTER + INTRA:          -7.884
REMARK INTER:                  -7.237
REMARK INTRA:                  -0.647
REMARK UNBOUND:                -0.647
REMARK  Name = /home/qwerty/github/datacon2025hack/step_04_hit_selection/docking/ligands/lig_177.pdb
REMARK  9 active torsions:
REMARK  status: ('A' for Active; 'I' for Inactive)
REMARK    1  A    between atoms: C1_1  and  C2_2
REMARK    2  A    between atoms: C3_4  and  C4_5
REMARK    3  A    between atoms: C5_6  and  C6_7
REMARK    4  A    between atoms: N2_9  and  C7_10
REMARK    5  A    between atoms: C7_10  and  C8_11
REMARK    6  A    between atoms: C8_11  and  C9_12
REMARK    7  A    between atoms: C8_11  and  N3_13
REMARK    8  A    between atoms: N3_13  and  C10_14
REMARK    9  A    between atoms: C11_15  and  C12_17
REMARK                            x       y       z     vdW  Elec       q    Type
REMARK                         _______ _______ _______ _____ _____    ______ ____
ROOT
ATOM      1  C7  UNL     1      18.561  -1.148  24.895  0.00  0.00    +0.126 C 
ENDROOT
BRANCH   1   4
ATOM      2  C6  UNL     1      19.721   0.784  26.063  0.00  0.00    +0.253 C 
ATOM      3  O1  UNL     1      18.854   0.777  26.979  0.00  0.00    -0.270 OA
ATOM      4  N2  UNL     1      19.611  -0.133  24.965  0.00  0.00    -0.309 N 
ATOM      5  H7  UNL     1      20.213  -0.002  24.123  0.00  0.00    +0.149 HD
BRANCH   2  11
ATOM      6  C1  UNL     1      23.058   4.890  25.295  0.00  0.00    +0.073 C 
ATOM      7  C2  UNL     1      22.344   3.659  25.734  0.00  0.00    +0.076 A 
ATOM      8  N1  UNL     1      22.670   2.963  26.844  0.00  0.00    -0.249 NA
ATOM      9  C3  UNL     1      21.821   1.923  27.068  0.00  0.00    +0.058 A 
ATOM     10  C4  UNL     1      21.990   1.049  28.273  0.00  0.00    +0.067 C 
ATOM     11  C5  UNL     1      20.802   1.786  26.115  0.00  0.00    +0.096 A 
ATOM     12  S1  UNL     1      20.968   3.036  24.998  0.00  0.00    -0.068 S 
ENDBRANCH   2  11
ENDBRANCH   1   4
BRANCH   1  13
ATOM     13  C8  UNL     1      17.173  -0.493  24.755  0.00  0.00    +0.090 C 
ATOM     14  C9  UNL     1      16.107  -1.288  25.518  0.00  0.00    +0.029 C 
BRANCH  13  15
ATOM     15  N3  UNL     1      16.792  -0.325  23.336  0.00  0.00    -0.295 N 
ATOM     16  C10 UNL     1      16.486  -1.498  22.505  0.00  0.00    +0.132 C 
ATOM     17  C11 UNL     1      16.867   0.988  22.727  0.00  0.00    +0.267 C 
ATOM     18  O2  UNL     1      17.623   1.863  23.228  0.00  0.00    -0.268 OA
BRANCH  17  19
ATOM     19  C12 UNL     1      16.082   1.351  21.529  0.00  0.00    +0.147 A 
ATOM     20  C13 UNL     1      14.736   1.676  21.518  0.00  0.00    +0.054 A 
ATOM     21  C14 UNL     1      14.446   1.900  20.190  0.00  0.00    +0.105 A 
ATOM     22  N4  UNL     1      15.562   1.707  19.467  0.00  0.00    -0.284 N 
ATOM     23  N5  UNL     1      16.559   1.370  20.268  0.00  0.00    -0.169 NA
ATOM     24  H19 UNL     1      15.646   1.800  18.431  0.00  0.00    +0.188 HD
ENDBRANCH  17  19
ENDBRANCH  13  15
ENDBRANCH   1  13
TORSDOF 5
ENDMDL
MODEL 2
REMARK VINA RESULT:    -5.498      3.741      8.323
REMARK INTER + INTRA:          -7.753
REMARK INTER:                  -7.190
REMARK INTRA:                  -0.563
REMARK UNBOUND:                -0.647
REMARK  Name = /home/qwerty/github/datacon2025hack/step_04_hit_selection/docking/ligands/lig_177.pdb
REMARK  9 active torsions:
REMARK  status: ('A' for Active; 'I' for Inactive)
REMARK    1  A    between atoms: C1_1  and  C2_2
REMARK    2  A    between atoms: C3_4  and  C4_5
REMARK    3  A    between atoms: C5_6  and  C6_7
REMARK    4  A    between atoms: N2_9  and  C7_10
REMARK    5  A    between atoms: C7_10  and  C8_11
REMARK    6  A    between atoms: C8_11  and  C9_12
REMARK    7  A    between atoms: C8_11  and  N3_13
REMARK    8  A    between atoms: N3_13  and  C10_14
REMARK    9  A    between atoms: C11_15  and  C12_17
REMARK                            x       y       z     vdW  Elec       q    Type
REMARK                         _______ _______ _______ _____ _____    ______ ____
ROOT
ATOM      1  C7  UNL     1      19.660   3.516  27.710  0.00  0.00    +0.126 C 
ENDROOT
BRANCH   1   4
ATOM      2  C6  UNL     1      17.810   2.174  26.606  0.00  0.00    +0.253 C 
ATOM      3  O1  UNL     1      17.322   3.222  26.104  0.00  0.00    -0.270 OA
ATOM      4  N2  UNL     1      18.963   2.257  27.456  0.00  0.00    -0.309 N 
ATOM      5  H7  UNL     1      19.250   1.425  28.016  0.00  0.00    +0.149 HD
BRANCH   2  11
ATOM      6  C1  UNL     1      14.406  -1.924  26.143  0.00  0.00    +0.073 C 
ATOM      7  C2  UNL     1      15.574  -0.999  26.174  0.00  0.00    +0.076 A 
ATOM      8  N1  UNL     1      16.775  -1.295  25.634  0.00  0.00    -0.249 NA
ATOM      9  C3  UNL     1      17.651  -0.258  25.725  0.00  0.00    +0.058 A 
ATOM     10  C4  UNL     1      19.030  -0.374  25.150  0.00  0.00    +0.067 C 
ATOM     11  C5  UNL     1      17.139   0.885  26.354  0.00  0.00    +0.096 A 
ATOM     12  S1  UNL     1      15.533   0.576  26.759  0.00  0.00    -0.068 S 
ENDBRANCH   2  11
ENDBRANCH   1   4
BRANCH   1  13
ATOM     13  C8  UNL     1      20.769   3.326  28.763  0.00  0.00    +0.090 C 
ATOM     14  C9  UNL     1      21.443   4.661  29.103  0.00  0.00    +0.029 C 
BRANCH  13  15
ATOM     15  N3  UNL     1      21.769   2.327  28.324  0.00  0.00    -0.295 N 
ATOM     16  C10 UNL     1      22.559   2.552  27.105  0.00  0.00    +0.132 C 
ATOM     17  C11 UNL     1      21.861   1.058  29.016  0.00  0.00    +0.267 C 
ATOM     18  O2  UNL     1      20.870   0.633  29.670  0.00  0.00    -0.268 OA
BRANCH  17  19
ATOM     19  C12 UNL     1      23.084   0.229  28.992  0.00  0.00    +0.147 A 
ATOM     20  C13 UNL     1      23.119  -1.146  28.841  0.00  0.00    +0.054 A 
ATOM     21  C14 UNL     1      24.456  -1.468  28.917  0.00  0.00    +0.105 A 
ATOM     22  N4  UNL     1      25.160  -0.340  29.110  0.00  0.00    -0.284 N 
ATOM     23  N5  UNL     1      24.338   0.695  29.161  0.00  0.00    -0.169 NA
ATOM     24  H19 UNL     1      26.196  -0.272  29.211  0.00  0.00    +0.188 HD
ENDBRANCH  17  19
ENDBRANCH  13  15
ENDBRANCH   1  13
TORSDOF 5
ENDMDL
MODEL 3
REMARK VINA RESULT:    -5.347      5.750      8.270
REMARK INTER + INTRA:          -7.557
REMARK INTER:                  -6.666
REMARK INTRA:                  -0.892
REMARK UNBOUND:                -0.647
REMARK  Name = /home/qwerty/github/datacon2025hack/step_04_hit_selection/docking/ligands/lig_177.pdb
REMARK  9 active torsions:
REMARK  status: ('A' for Active; 'I' for Inactive)
REMARK    1  A    between atoms: C1_1  and  C2_2
REMARK    2  A    between atoms: C3_4  and  C4_5
REMARK    3  A    between atoms: C5_6  and  C6_7
REMARK    4  A    between atoms: N2_9  and  C7_10
REMARK    5  A    between atoms: C7_10  and  C8_11
REMARK    6  A    between atoms: C8_11  and  C9_12
REMARK    7  A    between atoms: C8_11  and  N3_13
REMARK    8  A    between atoms: N3_13  and  C10_14
REMARK    9  A    between atoms: C11_15  and  C12_17
REMARK                            x       y       z     vdW  Elec       q    Type
REMARK                         _______ _______ _______ _____ _____    ______ ____
ROOT
ATOM      1  C7  UNL     1      21.830   2.529  32.066  0.00  0.00    +0.126 C 
ENDROOT
BRANCH   1   4
ATOM      2  C6  UNL     1      22.146   4.958  32.729  0.00  0.00    +0.253 C 
ATOM      3  O1  UNL     1      21.123   4.911  33.465  0.00  0.00    -0.270 OA
ATOM      4  N2  UNL     1      22.534   3.805  31.968  0.00  0.00    -0.309 N 
ATOM      5  H7  UNL     1      23.260   3.900  31.225  0.00  0.00    +0.149 HD
BRANCH   2  11
ATOM      6  C1  UNL     1      24.255   9.653  31.279  0.00  0.00    +0.073 C 
ATOM      7  C2  UNL     1      23.872   8.370  31.932  0.00  0.00    +0.076 A 
ATOM      8  N1  UNL     1      24.255   8.024  33.180  0.00  0.00    -0.249 NA
ATOM      9  C3  UNL     1      23.715   6.840  33.576  0.00  0.00    +0.058 A 
ATOM     10  C4  UNL     1      23.988   6.299  34.946  0.00  0.00    +0.067 C 
ATOM     11  C5  UNL     1      22.888   6.228  32.622  0.00  0.00    +0.096 A 
ATOM     12  S1  UNL     1      22.818   7.238  31.276  0.00  0.00    -0.068 S 
ENDBRANCH   2  11
ENDBRANCH   1   4
BRANCH   1  13
ATOM     13  C8  UNL     1      20.840   2.357  30.897  0.00  0.00    +0.090 C 
ATOM     14  C9  UNL     1      19.907   1.164  31.133  0.00  0.00    +0.029 C 
BRANCH  13  15
ATOM     15  N3  UNL     1      21.546   2.228  29.603  0.00  0.00    -0.295 N 
ATOM     16  C10 UNL     1      22.390   1.057  29.331  0.00  0.00    +0.132 C 
ATOM     17  C11 UNL     1      21.521   3.331  28.664  0.00  0.00    +0.267 C 
ATOM     18  O2  UNL     1      21.292   4.499  29.081  0.00  0.00    -0.268 OA
BRANCH  17  19
ATOM     19  C12 UNL     1      21.754   3.143  27.216  0.00  0.00    +0.147 A 
ATOM     20  C13 UNL     1      20.784   2.824  26.282  0.00  0.00    +0.054 A 
ATOM     21  C14 UNL     1      21.472   2.719  25.093  0.00  0.00    +0.105 A 
ATOM     22  N4  UNL     1      22.773   2.958  25.326  0.00  0.00    -0.284 N 
ATOM     23  N5  UNL     1      22.956   3.212  26.611  0.00  0.00    -0.169 NA
ATOM     24  H19 UNL     1      23.538   2.945  24.616  0.00  0.00    +0.188 HD
ENDBRANCH  17  19
ENDBRANCH  13  15
ENDBRANCH   1  13
TORSDOF 5
ENDMDL
MODEL 4
REMARK VINA RESULT:    -5.327      6.950      9.866
REMARK INTER + INTRA:          -7.531
REMARK INTER:                  -6.610
REMARK INTRA:                  -0.922
REMARK UNBOUND:                -0.647
REMARK  Name = /home/qwerty/github/datacon2025hack/step_04_hit_selection/docking/ligands/lig_177.pdb
REMARK  9 active torsions:
REMARK  status: ('A' for Active; 'I' for Inactive)
REMARK    1  A    between atoms: C1_1  and  C2_2
REMARK    2  A    between atoms: C3_4  and  C4_5
REMARK    3  A    between atoms: C5_6  and  C6_7
REMARK    4  A    between atoms: N2_9  and  C7_10
REMARK    5  A    between atoms: C7_10  and  C8_11
REMARK    6  A    between atoms: C8_11  and  C9_12
REMARK    7  A    between atoms: C8_11  and  N3_13
REMARK    8  A    between atoms: N3_13  and  C10_14
REMARK    9  A    between atoms: C11_15  and  C12_17
REMARK                            x       y       z     vdW  Elec       q    Type
REMARK                         _______ _______ _______ _____ _____    ______ ____
ROOT
ATOM      1  C7  UNL     1       9.869   3.142  22.807  0.00  0.00    +0.126 C 
ENDROOT
BRANCH   1   4
ATOM      2  C6  UNL     1      10.293   5.630  22.531  0.00  0.00    +0.253 C 
ATOM      3  O1  UNL     1      10.754   5.701  23.702  0.00  0.00    -0.270 OA
ATOM      4  N2  UNL     1       9.795   4.379  22.032  0.00  0.00    -0.309 N 
ATOM      5  H7  UNL     1       9.248   4.361  21.145  0.00  0.00    +0.149 HD
BRANCH   2  11
ATOM      6  C1  UNL     1      11.222   9.896  19.444  0.00  0.00    +0.073 C 
ATOM      7  C2  UNL     1      10.665   8.831  20.325  0.00  0.00    +0.076 A 
ATOM      8  N1  UNL     1       9.347   8.688  20.581  0.00  0.00    -0.249 NA
ATOM      9  C3  UNL     1       9.087   7.597  21.350  0.00  0.00    +0.058 A 
ATOM     10  C4  UNL     1       7.678   7.241  21.715  0.00  0.00    +0.067 C 
ATOM     11  C5  UNL     1      10.221   6.858  21.718  0.00  0.00    +0.096 A 
ATOM     12  S1  UNL     1      11.564   7.590  21.013  0.00  0.00    -0.068 S 
ENDBRANCH   2  11
ENDBRANCH   1   4
BRANCH   1  13
ATOM     13  C8  UNL     1      10.517   2.015  21.980  0.00  0.00    +0.090 C 
ATOM     14  C9  UNL     1      10.157   0.637  22.546  0.00  0.00    +0.029 C 
BRANCH  13  15
ATOM     15  N3  UNL     1      11.985   2.183  21.890  0.00  0.00    -0.295 N 
ATOM     16  C10 UNL     1      12.841   1.854  23.038  0.00  0.00    +0.132 C 
ATOM     17  C11 UNL     1      12.561   2.813  20.720  0.00  0.00    +0.267 C 
ATOM     18  O2  UNL     1      11.850   3.575  20.010  0.00  0.00    -0.268 OA
BRANCH  17  19
ATOM     19  C12 UNL     1      13.966   2.597  20.315  0.00  0.00    +0.147 A 
ATOM     20  C13 UNL     1      14.952   3.568  20.288  0.00  0.00    +0.054 A 
ATOM     21  C14 UNL     1      16.068   2.913  19.815  0.00  0.00    +0.105 A 
ATOM     22  N4  UNL     1      15.745   1.631  19.574  0.00  0.00    -0.284 N 
ATOM     23  N5  UNL     1      14.472   1.430  19.870  0.00  0.00    -0.169 NA
ATOM     24  H19 UNL     1      16.386   0.895  19.206  0.00  0.00    +0.188 HD
ENDBRANCH  17  19
ENDBRANCH  13  15
ENDBRANCH   1  13
TORSDOF 5
ENDMDL
MODEL 5
REMARK VINA RESULT:    -5.303      4.590      7.492
REMARK INTER + INTRA:          -7.500
REMARK INTER:                  -7.183
REMARK INTRA:                  -0.317
REMARK UNBOUND:                -0.647
REMARK  Name = /home/qwerty/github/datacon2025hack/step_04_hit_selection/docking/ligands/lig_177.pdb
REMARK  9 active torsions:
REMARK  status: ('A' for Active; 'I' for Inactive)
REMARK    1  A    between atoms: C1_1  and  C2_2
REMARK    2  A    between atoms: C3_4  and  C4_5
REMARK    3  A    between atoms: C5_6  and  C6_7
REMARK    4  A    between atoms: N2_9  and  C7_10
REMARK    5  A    between atoms: C7_10  and  C8_11
REMARK    6  A    between atoms: C8_11  and  C9_12
REMARK    7  A    between atoms: C8_11  and  N3_13
REMARK    8  A    between atoms: N3_13  and  C10_14
REMARK    9  A    between atoms: C11_15  and  C12_17
REMARK                            x       y       z     vdW  Elec       q    Type
REMARK                         _______ _______ _______ _____ _____    ______ ____
ROOT
ATOM      1  C7  UNL     1      19.393   1.676  27.571  0.00  0.00    +0.126 C 
ENDROOT
BRANCH   1   4
ATOM      2  C6  UNL     1      20.294   2.577  25.375  0.00  0.00    +0.253 C 
ATOM      3  O1  UNL     1      20.587   1.412  24.994  0.00  0.00    -0.270 OA
ATOM      4  N2  UNL     1      19.726   2.783  26.677  0.00  0.00    -0.309 N 
ATOM      5  H7  UNL     1      19.659   3.751  27.062  0.00  0.00    +0.149 HD
BRANCH   2  11
ATOM      6  C1  UNL     1      20.295   6.487  21.728  0.00  0.00    +0.073 C 
ATOM      7  C2  UNL     1      20.602   5.488  22.790  0.00  0.00    +0.076 A 
ATOM      8  N1  UNL     1      21.717   5.526  23.550  0.00  0.00    -0.249 NA
ATOM      9  C3  UNL     1      21.728   4.549  24.497  0.00  0.00    +0.058 A 
ATOM     10  C4  UNL     1      22.864   4.444  25.468  0.00  0.00    +0.067 C 
ATOM     11  C5  UNL     1      20.601   3.715  24.488  0.00  0.00    +0.096 A 
ATOM     12  S1  UNL     1      19.563   4.262  23.281  0.00  0.00    -0.068 S 
ENDBRANCH   2  11
ENDBRANCH   1   4
BRANCH   1  13
ATOM     13  C8  UNL     1      19.746   2.024  29.030  0.00  0.00    +0.090 C 
ATOM     14  C9  UNL     1      20.056   3.518  29.183  0.00  0.00    +0.029 C 
BRANCH  13  15
ATOM     15  N3  UNL     1      20.869   1.198  29.529  0.00  0.00    -0.295 N 
ATOM     16  C10 UNL     1      20.762   0.498  30.816  0.00  0.00    +0.132 C 
ATOM     17  C11 UNL     1      22.130   1.203  28.816  0.00  0.00    +0.267 C 
ATOM     18  O2  UNL     1      22.419   2.177  28.068  0.00  0.00    -0.268 OA
BRANCH  17  19
ATOM     19  C12 UNL     1      23.106   0.099  28.926  0.00  0.00    +0.147 A 
ATOM     20  C13 UNL     1      24.458   0.246  29.182  0.00  0.00    +0.054 A 
ATOM     21  C14 UNL     1      24.956  -1.039  29.154  0.00  0.00    +0.105 A 
ATOM     22  N4  UNL     1      23.947  -1.886  28.889  0.00  0.00    -0.284 N 
ATOM     23  N5  UNL     1      22.822  -1.206  28.744  0.00  0.00    -0.169 NA
ATOM     24  H19 UNL     1      24.022  -2.923  28.802  0.00  0.00    +0.188 HD
ENDBRANCH  17  19
ENDBRANCH  13  15
ENDBRANCH   1  13
TORSDOF 5
ENDMDL
MODEL 6
REMARK VINA RESULT:    -5.234     15.326     15.904
REMARK INTER + INTRA:          -7.411
REMARK INTER:                  -6.813
REMARK INTRA:                  -0.597
REMARK UNBOUND:                -0.647
REMARK  Name = /home/qwerty/github/datacon2025hack/step_04_hit_selection/docking/ligands/lig_177.pdb
REMARK  9 active torsions:
REMARK  status: ('A' for Active; 'I' for Inactive)
REMARK    1  A    between atoms: C1_1  and  C2_2
REMARK    2  A    between atoms: C3_4  and  C4_5
REMARK    3  A    between atoms: C5_6  and  C6_7
REMARK    4  A    between atoms: N2_9  and  C7_10
REMARK    5  A    between atoms: C7_10  and  C8_11
REMARK    6  A    between atoms: C8_11  and  C9_12
REMARK    7  A    between atoms: C8_11  and  N3_13
REMARK    8  A    between atoms: N3_13  and  C10_14
REMARK    9  A    between atoms: C11_15  and  C12_17
REMARK                            x       y       z     vdW  Elec       q    Type
REMARK                         _______ _______ _______ _____ _____    ______ ____
ROOT
ATOM      1  C7  UNL     1      10.721  13.810  30.840  0.00  0.00    +0.126 C 
ENDROOT
BRANCH   1   4
ATOM      2  C6  UNL     1      12.054  14.215  32.961  0.00  0.00    +0.253 C 
ATOM      3  O1  UNL     1      12.374  15.368  32.563  0.00  0.00    -0.270 OA
ATOM      4  N2  UNL     1      11.256  13.365  32.125  0.00  0.00    -0.309 N 
ATOM      5  H7  UNL     1      11.151  12.356  32.368  0.00  0.00    +0.149 HD
BRANCH   2  11
ATOM      6  C1  UNL     1      14.974  12.491  37.095  0.00  0.00    +0.073 C 
ATOM      7  C2  UNL     1      13.912  12.924  36.145  0.00  0.00    +0.076 A 
ATOM      8  N1  UNL     1      12.633  13.157  36.510  0.00  0.00    -0.249 NA
ATOM      9  C3  UNL     1      11.876  13.614  35.476  0.00  0.00    +0.058 A 
ATOM     10  C4  UNL     1      10.436  13.968  35.685  0.00  0.00    +0.067 C 
ATOM     11  C5  UNL     1      12.565  13.744  34.261  0.00  0.00    +0.096 A 
ATOM     12  S1  UNL     1      14.170  13.307  34.529  0.00  0.00    -0.068 S 
ENDBRANCH   2  11
ENDBRANCH   1   4
BRANCH   1  13
ATOM     13  C8  UNL     1      10.922  12.730  29.759  0.00  0.00    +0.090 C 
ATOM     14  C9  UNL     1      11.700  13.286  28.560  0.00  0.00    +0.029 C 
BRANCH  13  15
ATOM     15  N3  UNL     1       9.632  12.147  29.327  0.00  0.00    -0.295 N 
ATOM     16  C10 UNL     1       8.643  12.973  28.620  0.00  0.00    +0.132 C 
ATOM     17  C11 UNL     1       9.285  10.801  29.734  0.00  0.00    +0.267 C 
ATOM     18  O2  UNL     1       9.831  10.299  30.754  0.00  0.00    -0.268 OA
BRANCH  17  19
ATOM     19  C12 UNL     1       8.307   9.977  28.993  0.00  0.00    +0.147 A 
ATOM     20  C13 UNL     1       8.533   9.365  27.773  0.00  0.00    +0.054 A 
ATOM     21  C14 UNL     1       7.338   8.750  27.468  0.00  0.00    +0.105 A 
ATOM     22  N4  UNL     1       6.462   8.999  28.456  0.00  0.00    -0.284 N 
ATOM     23  N5  UNL     1       7.038   9.745  29.384  0.00  0.00    -0.169 NA
ATOM     24  H19 UNL     1       5.474   8.667  28.499  0.00  0.00    +0.188 HD
ENDBRANCH  17  19
ENDBRANCH  13  15
ENDBRANCH   1  13
TORSDOF 5
ENDMDL
MODEL 7
REMARK VINA RESULT:    -5.228     14.858     17.191
REMARK INTER + INTRA:          -7.403
REMARK INTER:                  -6.548
REMARK INTRA:                  -0.855
REMARK UNBOUND:                -0.647
REMARK  Name = /home/qwerty/github/datacon2025hack/step_04_hit_selection/docking/ligands/lig_177.pdb
REMARK  9 active torsions:
REMARK  status: ('A' for Active; 'I' for Inactive)
REMARK    1  A    between atoms: C1_1  and  C2_2
REMARK    2  A    between atoms: C3_4  and  C4_5
REMARK    3  A    between atoms: C5_6  and  C6_7
REMARK    4  A    between atoms: N2_9  and  C7_10
REMARK    5  A    between atoms: C7_10  and  C8_11
REMARK    6  A    between atoms: C8_11  and  C9_12
REMARK    7  A    between atoms: C8_11  and  N3_13
REMARK    8  A    between atoms: N3_13  and  C10_14
REMARK    9  A    between atoms: C11_15  and  C12_17
REMARK                            x       y       z     vdW  Elec       q    Type
REMARK                         _______ _______ _______ _____ _____    ______ ____
ROOT
ATOM      1  C7  UNL     1      18.286  12.759  35.373  0.00  0.00    +0.126 C 
ENDROOT
BRANCH   1   4
ATOM      2  C6  UNL     1      15.776  12.440  35.163  0.00  0.00    +0.253 C 
ATOM      3  O1  UNL     1      15.865  12.410  33.906  0.00  0.00    -0.270 OA
ATOM      4  N2  UNL     1      16.951  12.651  35.960  0.00  0.00    -0.309 N 
ATOM      5  H7  UNL     1      16.852  12.862  36.976  0.00  0.00    +0.149 HD
BRANCH   2  11
ATOM      6  C1  UNL     1      11.330  10.872  37.686  0.00  0.00    +0.073 C 
ATOM      7  C2  UNL     1      12.397  11.576  36.920  0.00  0.00    +0.076 A 
ATOM      8  N1  UNL     1      12.331  12.879  36.575  0.00  0.00    -0.249 NA
ATOM      9  C3  UNL     1      13.462  13.304  35.947  0.00  0.00    +0.058 A 
ATOM     10  C4  UNL     1      13.602  14.732  35.516  0.00  0.00    +0.067 C 
ATOM     11  C5  UNL     1      14.445  12.317  35.785  0.00  0.00    +0.096 A 
ATOM     12  S1  UNL     1      13.874  10.899  36.492  0.00  0.00    -0.068 S 
ENDBRANCH   2  11
ENDBRANCH   1   4
BRANCH   1  13
ATOM     13  C8  UNL     1      19.339  12.097  36.282  0.00  0.00    +0.090 C 
ATOM     14  C9  UNL     1      20.741  12.647  35.996  0.00  0.00    +0.029 C 
BRANCH  13  15
ATOM     15  N3  UNL     1      19.315  10.623  36.157  0.00  0.00    -0.295 N 
ATOM     16  C10 UNL     1      19.718   9.977  34.900  0.00  0.00    +0.132 C 
ATOM     17  C11 UNL     1      18.750   9.825  37.227  0.00  0.00    +0.267 C 
ATOM     18  O2  UNL     1      17.928  10.349  38.026  0.00  0.00    -0.268 OA
BRANCH  17  19
ATOM     19  C12 UNL     1      19.103   8.404  37.426  0.00  0.00    +0.147 A 
ATOM     20  C13 UNL     1      18.213   7.344  37.398  0.00  0.00    +0.054 A 
ATOM     21  C14 UNL     1      18.987   6.236  37.668  0.00  0.00    +0.105 A 
ATOM     22  N4  UNL     1      20.257   6.633  37.851  0.00  0.00    -0.284 N 
ATOM     23  N5  UNL     1      20.338   7.946  37.711  0.00  0.00    -0.169 NA
ATOM     24  H19 UNL     1      21.068   6.015  38.075  0.00  0.00    +0.188 HD
ENDBRANCH  17  19
ENDBRANCH  13  15
ENDBRANCH   1  13
TORSDOF 5
ENDMDL
MODEL 8
REMARK VINA RESULT:    -5.228      7.330     11.165
REMARK INTER + INTRA:          -7.403
REMARK INTER:                  -6.596
REMARK INTRA:                  -0.808
REMARK UNBOUND:                -0.647
REMARK  Name = /home/qwerty/github/datacon2025hack/step_04_hit_selection/docking/ligands/lig_177.pdb
REMARK  9 active torsions:
REMARK  status: ('A' for Active; 'I' for Inactive)
REMARK    1  A    between atoms: C1_1  and  C2_2
REMARK    2  A    between atoms: C3_4  and  C4_5
REMARK    3  A    between atoms: C5_6  and  C6_7
REMARK    4  A    between atoms: N2_9  and  C7_10
REMARK    5  A    between atoms: C7_10  and  C8_11
REMARK    6  A    between atoms: C8_11  and  C9_12
REMARK    7  A    between atoms: C8_11  and  N3_13
REMARK    8  A    between atoms: N3_13  and  C10_14
REMARK    9  A    between atoms: C11_15  and  C12_17
REMARK                            x       y       z     vdW  Elec       q    Type
REMARK                         _______ _______ _______ _____ _____    ______ ____
ROOT
ATOM      1  C7  UNL     1      21.699   5.034  34.185  0.00  0.00    +0.126 C 
ENDROOT
BRANCH   1   4
ATOM      2  C6  UNL     1      20.762   3.447  32.439  0.00  0.00    +0.253 C 
ATOM      3  O1  UNL     1      19.602   3.911  32.611  0.00  0.00    -0.270 OA
ATOM      4  N2  UNL     1      21.856   3.941  33.226  0.00  0.00    -0.309 N 
ATOM      5  H7  UNL     1      22.766   3.433  33.218  0.00  0.00    +0.149 HD
BRANCH   2  11
ATOM      6  C1  UNL     1      22.048   0.343  28.280  0.00  0.00    +0.073 C 
ATOM      7  C2  UNL     1      21.525   0.947  29.537  0.00  0.00    +0.076 A 
ATOM      8  N1  UNL     1      20.925   0.234  30.514  0.00  0.00    -0.249 NA
ATOM      9  C3  UNL     1      20.606   1.003  31.591  0.00  0.00    +0.058 A 
ATOM     10  C4  UNL     1      19.966   0.391  32.800  0.00  0.00    +0.067 C 
ATOM     11  C5  UNL     1      20.954   2.355  31.466  0.00  0.00    +0.096 A 
ATOM     12  S1  UNL     1      21.717   2.557  29.978  0.00  0.00    -0.068 S 
ENDBRANCH   2  11
ENDBRANCH   1   4
BRANCH   1  13
ATOM     13  C8  UNL     1      22.920   5.974  34.148  0.00  0.00    +0.090 C 
ATOM     14  C9  UNL     1      23.444   6.254  35.562  0.00  0.00    +0.029 C 
BRANCH  13  15
ATOM     15  N3  UNL     1      22.612   7.236  33.439  0.00  0.00    -0.295 N 
ATOM     16  C10 UNL     1      21.982   8.354  34.153  0.00  0.00    +0.132 C 
ATOM     17  C11 UNL     1      22.798   7.312  32.005  0.00  0.00    +0.267 C 
ATOM     18  O2  UNL     1      22.800   6.252  31.321  0.00  0.00    -0.268 OA
BRANCH  17  19
ATOM     19  C12 UNL     1      22.991   8.595  31.298  0.00  0.00    +0.147 A 
ATOM     20  C13 UNL     1      24.169   9.319  31.256  0.00  0.00    +0.054 A 
ATOM     21  C14 UNL     1      23.857  10.444  30.522  0.00  0.00    +0.105 A 
ATOM     22  N4  UNL     1      22.564  10.378  30.165  0.00  0.00    -0.284 N 
ATOM     23  N5  UNL     1      22.028   9.264  30.633  0.00  0.00    -0.169 NA
ATOM     24  H19 UNL     1      22.044  11.091  29.607  0.00  0.00    +0.188 HD
ENDBRANCH  17  19
ENDBRANCH  13  15
ENDBRANCH   1  13
TORSDOF 5
ENDMDL
MODEL 9
REMARK VINA RESULT:    -5.088      3.506      8.274
REMARK INTER + INTRA:          -7.222
REMARK INTER:                  -6.420
REMARK INTRA:                  -0.801
REMARK UNBOUND:                -0.647
REMARK  Name = /home/qwerty/github/datacon2025hack/step_04_hit_selection/docking/ligands/lig_177.pdb
REMARK  9 active torsions:
REMARK  status: ('A' for Active; 'I' for Inactive)
REMARK    1  A    between atoms: C1_1  and  C2_2
REMARK    2  A    between atoms: C3_4  and  C4_5
REMARK    3  A    between atoms: C5_6  and  C6_7
REMARK    4  A    between atoms: N2_9  and  C7_10
REMARK    5  A    between atoms: C7_10  and  C8_11
REMARK    6  A    between atoms: C8_11  and  C9_12
REMARK    7  A    between atoms: C8_11  and  N3_13
REMARK    8  A    between atoms: N3_13  and  C10_14
REMARK    9  A    between atoms: C11_15  and  C12_17
REMARK                            x       y       z     vdW  Elec       q    Type
REMARK                         _______ _______ _______ _____ _____    ______ ____
ROOT
ATOM      1  C7  UNL     1      20.657   1.355  25.794  0.00  0.00    +0.126 C 
ENDROOT
BRANCH   1   4
ATOM      2  C6  UNL     1      18.347   0.489  25.196  0.00  0.00    +0.253 C 
ATOM      3  O1  UNL     1      18.422   1.020  24.054  0.00  0.00    -0.270 OA
ATOM      4  N2  UNL     1      19.421   0.653  26.134  0.00  0.00    -0.309 N 
ATOM      5  H7  UNL     1      19.280   0.378  27.130  0.00  0.00    +0.149 HD
BRANCH   2  11
ATOM      6  C1  UNL     1      13.543  -1.074  26.945  0.00  0.00    +0.073 C 
ATOM      7  C2  UNL     1      14.922  -0.953  26.396  0.00  0.00    +0.076 A 
ATOM      8  N1  UNL     1      15.555  -1.951  25.744  0.00  0.00    -0.249 NA
ATOM      9  C3  UNL     1      16.774  -1.569  25.274  0.00  0.00    +0.058 A 
ATOM     10  C4  UNL     1      17.620  -2.523  24.489  0.00  0.00    +0.067 C 
ATOM     11  C5  UNL     1      17.119  -0.240  25.561  0.00  0.00    +0.096 A 
ATOM     12  S1  UNL     1      15.830   0.460  26.389  0.00  0.00    -0.068 S 
ENDBRANCH   2  11
ENDBRANCH   1   4
BRANCH   1  13
ATOM     13  C8  UNL     1      21.122   2.243  26.965  0.00  0.00    +0.090 C 
ATOM     14  C9  UNL     1      22.476   2.895  26.660  0.00  0.00    +0.029 C 
BRANCH  13  15
ATOM     15  N3  UNL     1      21.175   1.484  28.234  0.00  0.00    -0.295 N 
ATOM     16  C10 UNL     1      22.183   0.432  28.429  0.00  0.00    +0.132 C 
ATOM     17  C11 UNL     1      20.137   1.678  29.225  0.00  0.00    +0.267 C 
ATOM     18  O2  UNL     1      19.014   2.129  28.870  0.00  0.00    -0.268 OA
BRANCH  17  19
ATOM     19  C12 UNL     1      20.340   1.368  30.656  0.00  0.00    +0.147 A 
ATOM     20  C13 UNL     1      19.725   0.340  31.350  0.00  0.00    +0.054 A 
ATOM     21  C14 UNL     1      20.190   0.469  32.641  0.00  0.00    +0.105 A 
ATOM     22  N4  UNL     1      21.024   1.521  32.694  0.00  0.00    -0.284 N 
ATOM     23  N5  UNL     1      21.119   2.076  31.498  0.00  0.00    -0.169 NA
ATOM     24  H19 UNL     1      21.525   1.865  33.543  0.00  0.00    +0.188 HD
ENDBRANCH  17  19
ENDBRANCH  13  15
ENDBRANCH   1  13
TORSDOF 5
ENDMDL
