REMARK  Name = /home/qwerty/github/datacon2025hack/step_04_hit_selection/docking/ligands/lig_781.pdb
REMARK  5 active torsions:
REMARK  status: ('A' for Active; 'I' for Inactive)
REMARK    1  A    between atoms: C1_1  and  C2_2
REMARK    2  A    between atoms: C3_4  and  C4_5
REMARK    3  A    between atoms: C4_5  and  C5_6
REMARK    4  A    between atoms: N2_8  and  C6_9
REMARK    5  A    between atoms: C10_14  and  C11_15
REMARK                            x       y       z     vdW  Elec       q    Type
REMARK                         _______ _______ _______ _____ _____    ______ ____
ROOT
ATOM      1  C6  UNL     1       1.238  -2.002   0.148  0.00  0.00    +0.070 A 
ATOM      2  C7  UNL     1       0.482  -2.900   0.937  0.00  0.00    +0.138 A 
ATOM      3  N3  UNL     1      -0.848  -2.685   1.158  0.00  0.00    -0.234 NA
ATOM      4  C8  UNL     1      -1.428  -1.587   0.618  0.00  0.00    +0.156 A 
ATOM      5  C9  UNL     1      -2.736  -1.181   0.719  0.00  0.00    +0.073 A 
ATOM      6  C10 UNL     1      -2.748   0.008  -0.016  0.00  0.00    +0.069 A 
ATOM      7  N4  UNL     1      -1.514   0.274  -0.515  0.00  0.00    -0.170 NA
ATOM      8  N5  UNL     1      -0.732  -0.712  -0.115  0.00  0.00    -0.220 N 
ATOM      9  C16 UNL     1       0.588  -0.864  -0.374  0.00  0.00    +0.139 A 
ENDROOT
BRANCH   6  10
ATOM     10  C11 UNL     1      -3.942   0.893  -0.251  0.00  0.00    +0.044 C 
ATOM     11  C12 UNL     1      -4.505   1.428   1.075  0.00  0.00    +0.038 C 
ATOM     12  C13 UNL     1      -5.801   2.206   0.811  0.00  0.00    +0.160 C 
ATOM     13  O2  UNL     1      -6.758   1.388   0.163  0.00  0.00    -0.380 OA
ATOM     14  C14 UNL     1      -6.293   1.025  -1.125  0.00  0.00    +0.160 C 
ATOM     15  C15 UNL     1      -5.038   0.148  -1.028  0.00  0.00    +0.038 C 
ENDBRANCH   6  10
BRANCH   1  18
ATOM     16  C5  UNL     1       3.360  -1.867  -1.239  0.00  0.00    +0.225 C 
ATOM     17  O1  UNL     1       2.745  -1.493  -2.275  0.00  0.00    -0.275 OA
ATOM     18  N2  UNL     1       2.642  -2.235  -0.051  0.00  0.00    -0.283 N 
ATOM     19  H6  UNL     1       3.157  -2.773   0.683  0.00  0.00    +0.155 HD
BRANCH  16  20
ATOM     20  C4  UNL     1       4.856  -1.926  -1.255  0.00  0.00    +0.174 C 
BRANCH  20  24
ATOM     21  C1  UNL     1       6.485   2.662  -0.392  0.00  0.00    +0.087 C 
ATOM     22  C2  UNL     1       6.110   1.227  -0.224  0.00  0.00    +0.122 A 
ATOM     23  N1  UNL     1       5.695   0.437  -1.233  0.00  0.00    -0.216 NA
ATOM     24  C3  UNL     1       5.418  -0.716  -0.584  0.00  0.00    +0.160 A 
ATOM     25  N6  UNL     1       5.618  -0.628   0.747  0.00  0.00    -0.157 NA
ATOM     26  N7  UNL     1       6.055   0.598   0.961  0.00  0.00    -0.263 N 
ATOM     27  H19 UNL     1       6.293   0.991   1.899  0.00  0.00    +0.190 HD
ENDBRANCH  20  24
ENDBRANCH  16  20
ENDBRANCH   1  18
TORSDOF 4
