REMARK  Name = /home/qwerty/github/datacon2025hack/step_04_hit_selection/docking/ligands/lig_596.pdb
REMARK  7 active torsions:
REMARK  status: ('A' for Active; 'I' for Inactive)
REMARK    1  A    between atoms: C1_1  and  C2_2
REMARK    2  A    between atoms: C2_2  and  C3_3
REMARK    3  A    between atoms: C3_3  and  C4_4
REMARK    4  A    between atoms: C3_3  and  C5_5
REMARK    5  A    between atoms: C9_12  and  C10_13
REMARK    6  A    between atoms: N6_24  and  C19_25
REMARK    7  A    between atoms: C19_25  and  C20_26
REMARK                            x       y       z     vdW  Elec       q    Type
REMARK                         _______ _______ _______ _____ _____    ______ ____
ROOT
ATOM      1  C5  UNL     1      -3.566  -1.449   0.734  0.00  0.00    +0.138 A 
ATOM      2  N1  UNL     1      -2.962  -2.027   1.793  0.00  0.00    -0.132 NA
ATOM      3  N2  UNL     1      -1.711  -1.593   1.817  0.00  0.00    -0.113 NA
ATOM      4  C6  UNL     1      -1.564  -0.772   0.761  0.00  0.00    +0.220 A 
ATOM      5  N3  UNL     1      -0.333  -0.091   0.471  0.00  0.00    -0.300 N 
ATOM      6  C7  UNL     1       0.292  -0.217  -0.854  0.00  0.00    +0.108 C 
ATOM      7  C8  UNL     1       1.794  -0.456  -0.700  0.00  0.00    +0.030 C 
ATOM      8  C9  UNL     1       2.479   0.702   0.065  0.00  0.00    +0.058 C 
ATOM      9  C17 UNL     1       1.536   1.416   1.069  0.00  0.00    +0.030 C 
ATOM     10  C18 UNL     1       0.422   0.497   1.586  0.00  0.00    +0.108 C 
ATOM     11  N6  UNL     1      -2.708  -0.658   0.048  0.00  0.00    -0.296 N 
ENDROOT
BRANCH   8  12
ATOM     12  C10 UNL     1       3.731   0.197   0.742  0.00  0.00    +0.113 A 
ATOM     13  N4  UNL     1       3.726  -0.405   1.956  0.00  0.00    -0.240 NA
ATOM     14  C11 UNL     1       5.016  -0.739   2.176  0.00  0.00    +0.134 A 
ATOM     15  C12 UNL     1       5.772  -0.339   1.099  0.00  0.00    +0.038 A 
ATOM     16  N5  UNL     1       4.962   0.214   0.183  0.00  0.00    -0.331 N 
ATOM     17  C13 UNL     1       5.392   0.797  -1.090  0.00  0.00    +0.123 C 
ATOM     18  C14 UNL     1       6.794   0.294  -1.474  0.00  0.00    +0.022 C 
ATOM     19  C15 UNL     1       7.744   0.327  -0.264  0.00  0.00    +0.008 C 
ATOM     20  C16 UNL     1       7.234  -0.574   0.872  0.00  0.00    +0.055 C 
ENDBRANCH   8  12
BRANCH   1  21
ATOM     21  C3  UNL     1      -4.999  -1.730   0.336  0.00  0.00    +0.054 C 
ATOM     22  C4  UNL     1      -5.883  -2.001   1.563  0.00  0.00    +0.015 C 
BRANCH  21  24
ATOM     23  C1  UNL     1      -4.558  -4.215  -0.229  0.00  0.00    +0.004 C 
ATOM     24  C2  UNL     1      -5.084  -2.861  -0.713  0.00  0.00    +0.007 C 
ENDBRANCH  21  24
ENDBRANCH   1  21
BRANCH  11  25
ATOM     25  C19 UNL     1      -3.022   0.256  -1.058  0.00  0.00    +0.157 C 
BRANCH  25  26
ATOM     26  C20 UNL     1      -3.581   1.588  -0.534  0.00  0.00    +0.138 C 
ATOM     27  C21 UNL     1      -2.541   2.410   0.213  0.00  0.00    +0.035 C 
ATOM     28  C22 UNL     1      -2.989   3.811  -0.052  0.00  0.00    +0.031 C 
ATOM     29  C23 UNL     1      -3.687   3.695  -1.392  0.00  0.00    +0.160 C 
ATOM     30  O1  UNL     1      -4.070   2.356  -1.611  0.00  0.00    -0.375 OA
ENDBRANCH  25  26
ENDBRANCH  11  25
TORSDOF 5
