MODEL 1
REMARK VINA RESULT:    -6.276      0.000      0.000
REMARK INTER + INTRA:          -9.720
REMARK INTER:                  -8.478
REMARK INTRA:                  -1.242
REMARK UNBOUND:                -1.242
REMARK  Name = /home/qwerty/github/datacon2025hack/step_04_hit_selection/docking/ligands/lig_96.pdb
REMARK  7 active torsions:
REMARK  status: ('A' for Active; 'I' for Inactive)
REMARK    1  A    between atoms: C1_1  and  O1_2
REMARK    2  A    between atoms: O1_2  and  C2_3
REMARK    3  A    between atoms: C2_3  and  C3_4
REMARK    4  A    between atoms: C7_9  and  C8_11
REMARK    5  A    between atoms: N2_13  and  C9_14
REMARK    6  A    between atoms: C14_19  and  N3_20
REMARK    7  A    between atoms: N3_20  and  C15_21
REMARK                            x       y       z     vdW  Elec       q    Type
REMARK                         _______ _______ _______ _____ _____    ______ ____
ROOT
ATOM      1  C9  UNL     1       7.519   8.291  27.743  0.00  0.00    +0.055 A 
ATOM      2  C10 UNL     1       7.288   7.320  28.731  0.00  0.00    +0.025 A 
ATOM      3  C11 UNL     1       7.134   7.696  30.067  0.00  0.00    +0.002 A 
ATOM      4  C12 UNL     1       7.195   9.042  30.427  0.00  0.00    +0.002 A 
ATOM      5  C13 UNL     1       7.422  10.018  29.453  0.00  0.00    +0.025 A 
ATOM      6  C14 UNL     1       7.606   9.653  28.112  0.00  0.00    +0.053 A 
ENDROOT
BRANCH   1   9
ATOM      7  C8  UNL     1       8.758   7.356  25.764  0.00  0.00    +0.303 C 
ATOM      8  O3  UNL     1       9.700   6.953  26.496  0.00  0.00    -0.265 OA
ATOM      9  N2  UNL     1       7.575   7.907  26.362  0.00  0.00    -0.276 N 
ATOM     10  H13 UNL     1       6.806   8.241  25.738  0.00  0.00    +0.155 HD
BRANCH   7  16
ATOM     11  C3  UNL     1       8.497   6.115  22.063  0.00  0.00    +0.102 C 
ATOM     12  C4  UNL     1       8.442   4.622  21.736  0.00  0.00    +0.026 C 
ATOM     13  C5  UNL     1       7.728   3.973  22.913  0.00  0.00    +0.021 C 
ATOM     14  C6  UNL     1       7.929   4.920  24.088  0.00  0.00    +0.108 C 
ATOM     15  N1  UNL     1       8.356   6.190  23.514  0.00  0.00    -0.289 N 
ATOM     16  C7  UNL     1       8.876   7.294  24.289  0.00  0.00    +0.302 C 
ATOM     17  O2  UNL     1       9.479   8.230  23.697  0.00  0.00    -0.265 OA
BRANCH  11  18
ATOM     18  C2  UNL     1       7.359   6.885  21.372  0.00  0.00    +0.181 C 
BRANCH  18  20
ATOM     19  C1  UNL     1       5.418   6.215  20.331  0.00  0.00    +0.194 C 
ATOM     20  O1  UNL     1       6.822   6.102  20.328  0.00  0.00    -0.381 OA
ENDBRANCH  18  20
ENDBRANCH  11  18
ENDBRANCH   7  16
ENDBRANCH   1   9
BRANCH   6  21
ATOM     21  N3  UNL     1       7.879  10.678  27.141  0.00  0.00    -0.309 N 
ATOM     22  H18 UNL     1       7.238  10.765  26.320  0.00  0.00    +0.152 HD
BRANCH  21  23
ATOM     23  C15 UNL     1       8.962  11.615  27.260  0.00  0.00    +0.103 A 
ATOM     24  C16 UNL     1      10.257  11.231  26.876  0.00  0.00    +0.147 A 
ATOM     25  F1  UNL     1      10.488   9.980  26.404  0.00  0.00    -0.203 F 
ATOM     26  C17 UNL     1      11.328  12.118  27.022  0.00  0.00    +0.040 A 
ATOM     27  C18 UNL     1      11.113  13.400  27.533  0.00  0.00    +0.006 A 
ATOM     28  C19 UNL     1       9.825  13.801  27.893  0.00  0.00    +0.040 A 
ATOM     29  C20 UNL     1       8.749  12.918  27.757  0.00  0.00    +0.147 A 
ATOM     30  F2  UNL     1       7.504  13.337  28.093  0.00  0.00    -0.203 F 
ENDBRANCH  21  23
ENDBRANCH   6  21
TORSDOF 6
ENDMDL
MODEL 2
REMARK VINA RESULT:    -6.189     14.610     16.895
REMARK INTER + INTRA:          -9.602
REMARK INTER:                  -8.326
REMARK INTRA:                  -1.276
REMARK UNBOUND:                -1.242
REMARK  Name = /home/qwerty/github/datacon2025hack/step_04_hit_selection/docking/ligands/lig_96.pdb
REMARK  7 active torsions:
REMARK  status: ('A' for Active; 'I' for Inactive)
REMARK    1  A    between atoms: C1_1  and  O1_2
REMARK    2  A    between atoms: O1_2  and  C2_3
REMARK    3  A    between atoms: C2_3  and  C3_4
REMARK    4  A    between atoms: C7_9  and  C8_11
REMARK    5  A    between atoms: N2_13  and  C9_14
REMARK    6  A    between atoms: C14_19  and  N3_20
REMARK    7  A    between atoms: N3_20  and  C15_21
REMARK                            x       y       z     vdW  Elec       q    Type
REMARK                         _______ _______ _______ _____ _____    ______ ____
ROOT
ATOM      1  C9  UNL     1      19.885   2.149  33.152  0.00  0.00    +0.055 A 
ATOM      2  C10 UNL     1      18.708   1.860  33.861  0.00  0.00    +0.025 A 
ATOM      3  C11 UNL     1      17.977   0.706  33.575  0.00  0.00    +0.002 A 
ATOM      4  C12 UNL     1      18.419  -0.176  32.588  0.00  0.00    +0.002 A 
ATOM      5  C13 UNL     1      19.589   0.100  31.877  0.00  0.00    +0.025 A 
ATOM      6  C14 UNL     1      20.319   1.269  32.135  0.00  0.00    +0.053 A 
ENDROOT
BRANCH   1   9
ATOM      7  C8  UNL     1      20.394   4.611  33.061  0.00  0.00    +0.303 C 
ATOM      8  O3  UNL     1      19.280   4.861  32.528  0.00  0.00    -0.265 OA
ATOM      9  N2  UNL     1      20.683   3.283  33.522  0.00  0.00    -0.276 N 
ATOM     10  H13 UNL     1      21.615   3.094  33.956  0.00  0.00    +0.155 HD
BRANCH   7  16
ATOM     11  C3  UNL     1      22.663   7.431  34.545  0.00  0.00    +0.102 C 
ATOM     12  C4  UNL     1      22.184   8.290  35.717  0.00  0.00    +0.026 C 
ATOM     13  C5  UNL     1      21.284   7.384  36.546  0.00  0.00    +0.021 C 
ATOM     14  C6  UNL     1      20.790   6.310  35.589  0.00  0.00    +0.108 C 
ATOM     15  N1  UNL     1      21.672   6.365  34.429  0.00  0.00    -0.289 N 
ATOM     16  C7  UNL     1      21.418   5.673  33.186  0.00  0.00    +0.302 C 
ATOM     17  O2  UNL     1      22.071   5.998  32.157  0.00  0.00    -0.265 OA
BRANCH  11  18
ATOM     18  C2  UNL     1      24.058   6.841  34.812  0.00  0.00    +0.181 C 
BRANCH  18  20
ATOM     19  C1  UNL     1      25.458   5.901  33.245  0.00  0.00    +0.194 C 
ATOM     20  O1  UNL     1      24.904   7.108  33.714  0.00  0.00    -0.381 OA
ENDBRANCH  18  20
ENDBRANCH  11  18
ENDBRANCH   7  16
ENDBRANCH   1   9
BRANCH   6  21
ATOM     21  N3  UNL     1      21.496   1.543  31.356  0.00  0.00    -0.309 N 
ATOM     22  H18 UNL     1      22.408   1.646  31.857  0.00  0.00    +0.152 HD
BRANCH  21  23
ATOM     23  C15 UNL     1      21.493   1.643  29.922  0.00  0.00    +0.103 A 
ATOM     24  C16 UNL     1      21.302   2.895  29.315  0.00  0.00    +0.147 A 
ATOM     25  F1  UNL     1      21.112   4.003  30.074  0.00  0.00    -0.203 F 
ATOM     26  C17 UNL     1      21.257   3.003  27.921  0.00  0.00    +0.040 A 
ATOM     27  C18 UNL     1      21.423   1.868  27.124  0.00  0.00    +0.006 A 
ATOM     28  C19 UNL     1      21.639   0.622  27.717  0.00  0.00    +0.040 A 
ATOM     29  C20 UNL     1      21.678   0.505  29.110  0.00  0.00    +0.147 A 
ATOM     30  F2  UNL     1      21.912  -0.711  29.664  0.00  0.00    -0.203 F 
ENDBRANCH  21  23
ENDBRANCH   6  21
TORSDOF 6
ENDMDL
MODEL 3
REMARK VINA RESULT:    -6.117     12.304     14.037
REMARK INTER + INTRA:          -9.504
REMARK INTER:                  -8.288
REMARK INTRA:                  -1.216
REMARK UNBOUND:                -1.242
REMARK  Name = /home/qwerty/github/datacon2025hack/step_04_hit_selection/docking/ligands/lig_96.pdb
REMARK  7 active torsions:
REMARK  status: ('A' for Active; 'I' for Inactive)
REMARK    1  A    between atoms: C1_1  and  O1_2
REMARK    2  A    between atoms: O1_2  and  C2_3
REMARK    3  A    between atoms: C2_3  and  C3_4
REMARK    4  A    between atoms: C7_9  and  C8_11
REMARK    5  A    between atoms: N2_13  and  C9_14
REMARK    6  A    between atoms: C14_19  and  N3_20
REMARK    7  A    between atoms: N3_20  and  C15_21
REMARK                            x       y       z     vdW  Elec       q    Type
REMARK                         _______ _______ _______ _____ _____    ______ ____
ROOT
ATOM      1  C9  UNL     1      20.733   2.854  24.900  0.00  0.00    +0.055 A 
ATOM      2  C10 UNL     1      20.889   4.041  24.168  0.00  0.00    +0.025 A 
ATOM      3  C11 UNL     1      21.919   4.932  24.479  0.00  0.00    +0.002 A 
ATOM      4  C12 UNL     1      22.808   4.639  25.513  0.00  0.00    +0.002 A 
ATOM      5  C13 UNL     1      22.663   3.460  26.248  0.00  0.00    +0.025 A 
ATOM      6  C14 UNL     1      21.618   2.570  25.965  0.00  0.00    +0.053 A 
ENDROOT
BRANCH   1   9
ATOM      7  C8  UNL     1      18.345   2.066  24.819  0.00  0.00    +0.303 C 
ATOM      8  O3  UNL     1      17.922   3.184  25.218  0.00  0.00    -0.265 OA
ATOM      9  N2  UNL     1      19.736   1.898  24.508  0.00  0.00    -0.276 N 
ATOM     10  H13 UNL     1      20.069   0.962  24.184  0.00  0.00    +0.155 HD
BRANCH   7  16
ATOM     11  C3  UNL     1      15.744  -0.477  23.381  0.00  0.00    +0.102 C 
ATOM     12  C4  UNL     1      14.745  -0.055  22.302  0.00  0.00    +0.026 C 
ATOM     13  C5  UNL     1      15.461   1.004  21.475  0.00  0.00    +0.021 C 
ATOM     14  C6  UNL     1      16.529   1.585  22.389  0.00  0.00    +0.108 C 
ATOM     15  N1  UNL     1      16.677   0.640  23.491  0.00  0.00    -0.289 N 
ATOM     16  C7  UNL     1      17.420   0.916  24.699  0.00  0.00    +0.302 C 
ATOM     17  O2  UNL     1      17.260   0.169  25.703  0.00  0.00    -0.265 OA
BRANCH  11  18
ATOM     18  C2  UNL     1      16.490  -1.763  22.986  0.00  0.00    +0.181 C 
BRANCH  18  20
ATOM     19  C1  UNL     1      17.660  -3.085  24.463  0.00  0.00    +0.194 C 
ATOM     20  O1  UNL     1      16.375  -2.715  24.021  0.00  0.00    -0.381 OA
ENDBRANCH  18  20
ENDBRANCH  11  18
ENDBRANCH   7  16
ENDBRANCH   1   9
BRANCH   6  21
ATOM     21  N3  UNL     1      21.473   1.385  26.767  0.00  0.00    -0.309 N 
ATOM     22  H18 UNL     1      21.514   0.457  26.289  0.00  0.00    +0.152 HD
BRANCH  21  23
ATOM     23  C15 UNL     1      21.315   1.409  28.196  0.00  0.00    +0.103 A 
ATOM     24  C16 UNL     1      20.025   1.415  28.750  0.00  0.00    +0.147 A 
ATOM     25  F1  UNL     1      18.933   1.407  27.945  0.00  0.00    -0.203 F 
ATOM     26  C17 UNL     1      19.855   1.477  30.137  0.00  0.00    +0.040 A 
ATOM     27  C18 UNL     1      20.968   1.514  30.980  0.00  0.00    +0.006 A 
ATOM     28  C19 UNL     1      22.255   1.483  30.439  0.00  0.00    +0.040 A 
ATOM     29  C20 UNL     1      22.434   1.427  29.053  0.00  0.00    +0.147 A 
ATOM     30  F2  UNL     1      23.693   1.376  28.552  0.00  0.00    -0.203 F 
ENDBRANCH  21  23
ENDBRANCH   6  21
TORSDOF 6
ENDMDL
MODEL 4
REMARK VINA RESULT:    -6.091      6.878     11.250
REMARK INTER + INTRA:          -9.470
REMARK INTER:                  -8.203
REMARK INTRA:                  -1.266
REMARK UNBOUND:                -1.242
REMARK  Name = /home/qwerty/github/datacon2025hack/step_04_hit_selection/docking/ligands/lig_96.pdb
REMARK  7 active torsions:
REMARK  status: ('A' for Active; 'I' for Inactive)
REMARK    1  A    between atoms: C1_1  and  O1_2
REMARK    2  A    between atoms: O1_2  and  C2_3
REMARK    3  A    between atoms: C2_3  and  C3_4
REMARK    4  A    between atoms: C7_9  and  C8_11
REMARK    5  A    between atoms: N2_13  and  C9_14
REMARK    6  A    between atoms: C14_19  and  N3_20
REMARK    7  A    between atoms: N3_20  and  C15_21
REMARK                            x       y       z     vdW  Elec       q    Type
REMARK                         _______ _______ _______ _____ _____    ______ ____
ROOT
ATOM      1  C9  UNL     1      12.955  13.935  30.469  0.00  0.00    +0.055 A 
ATOM      2  C10 UNL     1      14.134  14.314  29.808  0.00  0.00    +0.025 A 
ATOM      3  C11 UNL     1      14.085  14.791  28.496  0.00  0.00    +0.002 A 
ATOM      4  C12 UNL     1      12.860  14.906  27.839  0.00  0.00    +0.002 A 
ATOM      5  C13 UNL     1      11.680  14.533  28.487  0.00  0.00    +0.025 A 
ATOM      6  C14 UNL     1      11.717  14.027  29.794  0.00  0.00    +0.053 A 
ENDROOT
BRANCH   1   9
ATOM      7  C8  UNL     1      12.612  14.423  32.913  0.00  0.00    +0.303 C 
ATOM      8  O3  UNL     1      11.969  15.474  32.652  0.00  0.00    -0.265 OA
ATOM      9  N2  UNL     1      13.004  13.543  31.849  0.00  0.00    -0.276 N 
ATOM     10  H13 UNL     1      13.542  12.678  32.084  0.00  0.00    +0.155 HD
BRANCH   7  16
ATOM     11  C3  UNL     1      12.900  12.607  36.366  0.00  0.00    +0.102 C 
ATOM     12  C4  UNL     1      11.778  11.700  36.874  0.00  0.00    +0.026 C 
ATOM     13  C5  UNL     1      11.157  11.084  35.627  0.00  0.00    +0.021 C 
ATOM     14  C6  UNL     1      11.478  12.045  34.492  0.00  0.00    +0.108 C 
ATOM     15  N1  UNL     1      12.547  12.907  34.982  0.00  0.00    -0.289 N 
ATOM     16  C7  UNL     1      12.993  14.105  34.308  0.00  0.00    +0.302 C 
ATOM     17  O2  UNL     1      13.712  14.931  34.934  0.00  0.00    -0.265 OA
BRANCH  11  18
ATOM     18  C2  UNL     1      14.267  11.905  36.433  0.00  0.00    +0.181 C 
BRANCH  18  20
ATOM     19  C1  UNL     1      16.323  12.878  36.785  0.00  0.00    +0.194 C 
ATOM     20  O1  UNL     1      15.088  12.554  37.380  0.00  0.00    -0.381 OA
ENDBRANCH  18  20
ENDBRANCH  11  18
ENDBRANCH   7  16
ENDBRANCH   1   9
BRANCH   6  21
ATOM     21  N3  UNL     1      10.488  13.614  30.417  0.00  0.00    -0.309 N 
ATOM     22  H18 UNL     1      10.081  14.226  31.161  0.00  0.00    +0.152 HD
BRANCH  21  23
ATOM     23  C15 UNL     1       9.770  12.426  30.045  0.00  0.00    +0.103 A 
ATOM     24  C16 UNL     1       8.657  12.526  29.194  0.00  0.00    +0.147 A 
ATOM     25  F1  UNL     1       8.255  13.737  28.733  0.00  0.00    -0.203 F 
ATOM     26  C17 UNL     1       7.925  11.384  28.855  0.00  0.00    +0.040 A 
ATOM     27  C18 UNL     1       8.308  10.133  29.343  0.00  0.00    +0.006 A 
ATOM     28  C19 UNL     1       9.429  10.019  30.169  0.00  0.00    +0.040 A 
ATOM     29  C20 UNL     1      10.162  11.157  30.519  0.00  0.00    +0.147 A 
ATOM     30  F2  UNL     1      11.260  11.020  31.304  0.00  0.00    -0.203 F 
ENDBRANCH  21  23
ENDBRANCH   6  21
TORSDOF 6
ENDMDL
MODEL 5
REMARK VINA RESULT:    -6.043      4.851      8.668
REMARK INTER + INTRA:          -9.404
REMARK INTER:                  -8.394
REMARK INTRA:                  -1.010
REMARK UNBOUND:                -1.242
REMARK  Name = /home/qwerty/github/datacon2025hack/step_04_hit_selection/docking/ligands/lig_96.pdb
REMARK  7 active torsions:
REMARK  status: ('A' for Active; 'I' for Inactive)
REMARK    1  A    between atoms: C1_1  and  O1_2
REMARK    2  A    between atoms: O1_2  and  C2_3
REMARK    3  A    between atoms: C2_3  and  C3_4
REMARK    4  A    between atoms: C7_9  and  C8_11
REMARK    5  A    between atoms: N2_13  and  C9_14
REMARK    6  A    between atoms: C14_19  and  N3_20
REMARK    7  A    between atoms: N3_20  and  C15_21
REMARK                            x       y       z     vdW  Elec       q    Type
REMARK                         _______ _______ _______ _____ _____    ______ ____
ROOT
ATOM      1  C9  UNL     1       9.629   3.272  22.393  0.00  0.00    +0.055 A 
ATOM      2  C10 UNL     1       9.069   3.043  23.659  0.00  0.00    +0.025 A 
ATOM      3  C11 UNL     1       9.400   1.893  24.379  0.00  0.00    +0.002 A 
ATOM      4  C12 UNL     1      10.301   0.971  23.848  0.00  0.00    +0.002 A 
ATOM      5  C13 UNL     1      10.866   1.188  22.589  0.00  0.00    +0.025 A 
ATOM      6  C14 UNL     1      10.522   2.324  21.843  0.00  0.00    +0.053 A 
ENDROOT
BRANCH   1   9
ATOM      7  C8  UNL     1      10.010   5.736  22.056  0.00  0.00    +0.303 C 
ATOM      8  O3  UNL     1      11.022   5.721  22.805  0.00  0.00    -0.265 OA
ATOM      9  N2  UNL     1       9.362   4.504  21.705  0.00  0.00    -0.276 N 
ATOM     10  H13 UNL     1       8.521   4.537  21.087  0.00  0.00    +0.155 HD
BRANCH   7  16
ATOM     11  C3  UNL     1       8.521   9.352  21.955  0.00  0.00    +0.102 C 
ATOM     12  C4  UNL     1       7.687   9.893  23.119  0.00  0.00    +0.026 C 
ATOM     13  C5  UNL     1       8.252   9.229  24.367  0.00  0.00    +0.021 C 
ATOM     14  C6  UNL     1       8.920   7.950  23.885  0.00  0.00    +0.108 C 
ATOM     15  N1  UNL     1       9.083   8.097  22.443  0.00  0.00    -0.289 N 
ATOM     16  C7  UNL     1       9.465   7.020  21.559  0.00  0.00    +0.302 C 
ATOM     17  O2  UNL     1       9.307   7.161  20.315  0.00  0.00    -0.265 OA
BRANCH  11  18
ATOM     18  C2  UNL     1       9.643  10.329  21.565  0.00  0.00    +0.181 C 
BRANCH  18  20
ATOM     19  C1  UNL     1      10.924  10.240  19.655  0.00  0.00    +0.194 C 
ATOM     20  O1  UNL     1       9.642  10.519  20.167  0.00  0.00    -0.381 OA
ENDBRANCH  18  20
ENDBRANCH  11  18
ENDBRANCH   7  16
ENDBRANCH   1   9
BRANCH   6  21
ATOM     21  N3  UNL     1      11.090   2.498  20.534  0.00  0.00    -0.309 N 
ATOM     22  H18 UNL     1      10.487   2.302  19.703  0.00  0.00    +0.152 HD
BRANCH  21  23
ATOM     23  C15 UNL     1      12.431   2.964  20.306  0.00  0.00    +0.103 A 
ATOM     24  C16 UNL     1      13.513   2.097  20.526  0.00  0.00    +0.147 A 
ATOM     25  F1  UNL     1      13.298   0.830  20.959  0.00  0.00    -0.203 F 
ATOM     26  C17 UNL     1      14.825   2.548  20.347  0.00  0.00    +0.040 A 
ATOM     27  C18 UNL     1      15.065   3.859  19.929  0.00  0.00    +0.006 A 
ATOM     28  C19 UNL     1      13.995   4.722  19.683  0.00  0.00    +0.040 A 
ATOM     29  C20 UNL     1      12.680   4.281  19.866  0.00  0.00    +0.147 A 
ATOM     30  F2  UNL     1      11.656   5.129  19.600  0.00  0.00    -0.203 F 
ENDBRANCH  21  23
ENDBRANCH   6  21
TORSDOF 6
ENDMDL
MODEL 6
REMARK VINA RESULT:    -6.017     14.527     16.714
REMARK INTER + INTRA:          -9.370
REMARK INTER:                  -7.987
REMARK INTRA:                  -1.383
REMARK UNBOUND:                -1.242
REMARK  Name = /home/qwerty/github/datacon2025hack/step_04_hit_selection/docking/ligands/lig_96.pdb
REMARK  7 active torsions:
REMARK  status: ('A' for Active; 'I' for Inactive)
REMARK    1  A    between atoms: C1_1  and  O1_2
REMARK    2  A    between atoms: O1_2  and  C2_3
REMARK    3  A    between atoms: C2_3  and  C3_4
REMARK    4  A    between atoms: C7_9  and  C8_11
REMARK    5  A    between atoms: N2_13  and  C9_14
REMARK    6  A    between atoms: C14_19  and  N3_20
REMARK    7  A    between atoms: N3_20  and  C15_21
REMARK                            x       y       z     vdW  Elec       q    Type
REMARK                         _______ _______ _______ _____ _____    ______ ____
ROOT
ATOM      1  C9  UNL     1      19.870   2.068  33.376  0.00  0.00    +0.055 A 
ATOM      2  C10 UNL     1      18.693   1.465  33.846  0.00  0.00    +0.025 A 
ATOM      3  C11 UNL     1      18.131   0.385  33.160  0.00  0.00    +0.002 A 
ATOM      4  C12 UNL     1      18.746  -0.109  32.010  0.00  0.00    +0.002 A 
ATOM      5  C13 UNL     1      19.919   0.482  31.534  0.00  0.00    +0.025 A 
ATOM      6  C14 UNL     1      20.478   1.583  32.196  0.00  0.00    +0.053 A 
ENDROOT
BRANCH   1   9
ATOM      7  C8  UNL     1      20.187   4.497  33.945  0.00  0.00    +0.303 C 
ATOM      8  O3  UNL     1      19.172   4.826  33.276  0.00  0.00    -0.265 OA
ATOM      9  N2  UNL     1      20.494   3.109  34.142  0.00  0.00    -0.276 N 
ATOM     10  H13 UNL     1      21.344   2.856  34.695  0.00  0.00    +0.155 HD
BRANCH   7  16
ATOM     11  C3  UNL     1      23.247   6.879  34.467  0.00  0.00    +0.102 C 
ATOM     12  C4  UNL     1      24.643   6.485  33.979  0.00  0.00    +0.026 C 
ATOM     13  C5  UNL     1      24.415   5.635  32.736  0.00  0.00    +0.021 C 
ATOM     14  C6  UNL     1      23.009   5.072  32.876  0.00  0.00    +0.108 C 
ATOM     15  N1  UNL     1      22.351   5.875  33.900  0.00  0.00    -0.289 N 
ATOM     16  C7  UNL     1      21.084   5.535  34.504  0.00  0.00    +0.302 C 
ATOM     17  O2  UNL     1      20.732   6.120  35.565  0.00  0.00    -0.265 OA
BRANCH  11  18
ATOM     18  C2  UNL     1      22.857   8.284  33.980  0.00  0.00    +0.181 C 
BRANCH  18  20
ATOM     19  C1  UNL     1      21.027   9.615  34.403  0.00  0.00    +0.194 C 
ATOM     20  O1  UNL     1      22.121   8.947  34.986  0.00  0.00    -0.381 OA
ENDBRANCH  18  20
ENDBRANCH  11  18
ENDBRANCH   7  16
ENDBRANCH   1   9
BRANCH   6  21
ATOM     21  N3  UNL     1      21.663   2.194  31.657  0.00  0.00    -0.309 N 
ATOM     22  H18 UNL     1      22.466   2.372  32.302  0.00  0.00    +0.152 HD
BRANCH  21  23
ATOM     23  C15 UNL     1      21.818   2.536  30.269  0.00  0.00    +0.103 A 
ATOM     24  C16 UNL     1      21.285   3.743  29.789  0.00  0.00    +0.147 A 
ATOM     25  F1  UNL     1      20.622   4.579  30.625  0.00  0.00    -0.203 F 
ATOM     26  C17 UNL     1      21.394   4.072  28.433  0.00  0.00    +0.040 A 
ATOM     27  C18 UNL     1      22.050   3.209  27.552  0.00  0.00    +0.006 A 
ATOM     28  C19 UNL     1      22.605   2.017  28.025  0.00  0.00    +0.040 A 
ATOM     29  C20 UNL     1      22.495   1.678  29.377  0.00  0.00    +0.147 A 
ATOM     30  F2  UNL     1      23.061   0.527  29.817  0.00  0.00    -0.203 F 
ENDBRANCH  21  23
ENDBRANCH   6  21
TORSDOF 6
ENDMDL
MODEL 7
REMARK VINA RESULT:    -5.974      6.306      9.343
REMARK INTER + INTRA:          -9.312
REMARK INTER:                  -8.077
REMARK INTRA:                  -1.234
REMARK UNBOUND:                -1.242
REMARK  Name = /home/qwerty/github/datacon2025hack/step_04_hit_selection/docking/ligands/lig_96.pdb
REMARK  7 active torsions:
REMARK  status: ('A' for Active; 'I' for Inactive)
REMARK    1  A    between atoms: C1_1  and  O1_2
REMARK    2  A    between atoms: O1_2  and  C2_3
REMARK    3  A    between atoms: C2_3  and  C3_4
REMARK    4  A    between atoms: C7_9  and  C8_11
REMARK    5  A    between atoms: N2_13  and  C9_14
REMARK    6  A    between atoms: C14_19  and  N3_20
REMARK    7  A    between atoms: N3_20  and  C15_21
REMARK                            x       y       z     vdW  Elec       q    Type
REMARK                         _______ _______ _______ _____ _____    ______ ____
ROOT
ATOM      1  C9  UNL     1      10.154   4.445  20.849  0.00  0.00    +0.055 A 
ATOM      2  C10 UNL     1      10.634   5.603  20.218  0.00  0.00    +0.025 A 
ATOM      3  C11 UNL     1       9.885   6.782  20.242  0.00  0.00    +0.002 A 
ATOM      4  C12 UNL     1       8.659   6.818  20.906  0.00  0.00    +0.002 A 
ATOM      5  C13 UNL     1       8.171   5.672  21.539  0.00  0.00    +0.025 A 
ATOM      6  C14 UNL     1       8.899   4.474  21.499  0.00  0.00    +0.053 A 
ENDROOT
BRANCH   1   9
ATOM      7  C8  UNL     1      12.021   3.108  21.875  0.00  0.00    +0.303 C 
ATOM      8  O3  UNL     1      12.079   3.880  22.869  0.00  0.00    -0.265 OA
ATOM      9  N2  UNL     1      10.975   3.269  20.905  0.00  0.00    -0.276 N 
ATOM     10  H13 UNL     1      10.946   2.623  20.085  0.00  0.00    +0.155 HD
BRANCH   7  16
ATOM     11  C3  UNL     1      15.375   1.299  20.989  0.00  0.00    +0.102 C 
ATOM     12  C4  UNL     1      16.316   1.864  19.924  0.00  0.00    +0.026 C 
ATOM     13  C5  UNL     1      16.145   3.376  19.990  0.00  0.00    +0.021 C 
ATOM     14  C6  UNL     1      14.767   3.607  20.593  0.00  0.00    +0.108 C 
ATOM     15  N1  UNL     1      14.375   2.341  21.203  0.00  0.00    -0.289 N 
ATOM     16  C7  UNL     1      13.044   2.054  21.685  0.00  0.00    +0.302 C 
ATOM     17  O2  UNL     1      12.723   0.859  21.931  0.00  0.00    -0.265 OA
BRANCH  11  18
ATOM     18  C2  UNL     1      16.123   0.996  22.298  0.00  0.00    +0.181 C 
BRANCH  18  20
ATOM     19  C1  UNL     1      16.221  -1.263  21.865  0.00  0.00    +0.194 C 
ATOM     20  O1  UNL     1      15.758  -0.285  22.767  0.00  0.00    -0.381 OA
ENDBRANCH  18  20
ENDBRANCH  11  18
ENDBRANCH   7  16
ENDBRANCH   1   9
BRANCH   6  21
ATOM     21  N3  UNL     1       8.350   3.302  22.126  0.00  0.00    -0.309 N 
ATOM     22  H18 UNL     1       7.725   2.685  21.559  0.00  0.00    +0.152 HD
BRANCH  21  23
ATOM     23  C15 UNL     1       8.646   2.913  23.478  0.00  0.00    +0.103 A 
ATOM     24  C16 UNL     1       9.340   1.717  23.719  0.00  0.00    +0.147 A 
ATOM     25  F1  UNL     1       9.722   0.927  22.685  0.00  0.00    -0.203 F 
ATOM     26  C17 UNL     1       9.601   1.306  25.030  0.00  0.00    +0.040 A 
ATOM     27  C18 UNL     1       9.189   2.093  26.108  0.00  0.00    +0.006 A 
ATOM     28  C19 UNL     1       8.521   3.298  25.878  0.00  0.00    +0.040 A 
ATOM     29  C20 UNL     1       8.250   3.713  24.570  0.00  0.00    +0.147 A 
ATOM     30  F2  UNL     1       7.619   4.897  24.370  0.00  0.00    -0.203 F 
ENDBRANCH  21  23
ENDBRANCH   6  21
TORSDOF 6
ENDMDL
MODEL 8
REMARK VINA RESULT:    -5.870     12.289     13.945
REMARK INTER + INTRA:          -9.171
REMARK INTER:                  -8.065
REMARK INTRA:                  -1.105
REMARK UNBOUND:                -1.242
REMARK  Name = /home/qwerty/github/datacon2025hack/step_04_hit_selection/docking/ligands/lig_96.pdb
REMARK  7 active torsions:
REMARK  status: ('A' for Active; 'I' for Inactive)
REMARK    1  A    between atoms: C1_1  and  O1_2
REMARK    2  A    between atoms: O1_2  and  C2_3
REMARK    3  A    between atoms: C2_3  and  C3_4
REMARK    4  A    between atoms: C7_9  and  C8_11
REMARK    5  A    between atoms: N2_13  and  C9_14
REMARK    6  A    between atoms: C14_19  and  N3_20
REMARK    7  A    between atoms: N3_20  and  C15_21
REMARK                            x       y       z     vdW  Elec       q    Type
REMARK                         _______ _______ _______ _____ _____    ______ ____
ROOT
ATOM      1  C9  UNL     1      20.597   2.809  24.973  0.00  0.00    +0.055 A 
ATOM      2  C10 UNL     1      20.716   3.976  24.202  0.00  0.00    +0.025 A 
ATOM      3  C11 UNL     1      21.774   4.861  24.420  0.00  0.00    +0.002 A 
ATOM      4  C12 UNL     1      22.727   4.583  25.399  0.00  0.00    +0.002 A 
ATOM      5  C13 UNL     1      22.621   3.424  26.172  0.00  0.00    +0.025 A 
ATOM      6  C14 UNL     1      21.549   2.541  25.982  0.00  0.00    +0.053 A 
ENDROOT
BRANCH   1   9
ATOM      7  C8  UNL     1      18.218   2.010  25.139  0.00  0.00    +0.303 C 
ATOM      8  O3  UNL     1      17.838   3.117  25.605  0.00  0.00    -0.265 OA
ATOM      9  N2  UNL     1      19.567   1.856  24.673  0.00  0.00    -0.276 N 
ATOM     10  H13 UNL     1      19.865   0.928  24.296  0.00  0.00    +0.155 HD
BRANCH   7  16
ATOM     11  C3  UNL     1      15.763  -0.741  23.830  0.00  0.00    +0.102 C 
ATOM     12  C4  UNL     1      14.922  -0.510  22.573  0.00  0.00    +0.026 C 
ATOM     13  C5  UNL     1      15.764   0.388  21.678  0.00  0.00    +0.021 C 
ATOM     14  C6  UNL     1      16.719   1.118  22.611  0.00  0.00    +0.108 C 
ATOM     15  N1  UNL     1      16.700   0.378  23.868  0.00  0.00    -0.289 N 
ATOM     16  C7  UNL     1      17.289   0.858  25.097  0.00  0.00    +0.302 C 
ATOM     17  O2  UNL     1      16.983   0.296  26.185  0.00  0.00    -0.265 OA
BRANCH  11  18
ATOM     18  C2  UNL     1      16.523  -2.076  23.762  0.00  0.00    +0.181 C 
BRANCH  18  20
ATOM     19  C1  UNL     1      15.081  -2.528  25.499  0.00  0.00    +0.194 C 
ATOM     20  O1  UNL     1      15.769  -3.083  24.403  0.00  0.00    -0.381 OA
ENDBRANCH  18  20
ENDBRANCH  11  18
ENDBRANCH   7  16
ENDBRANCH   1   9
BRANCH   6  21
ATOM     21  N3  UNL     1      21.447   1.378  26.822  0.00  0.00    -0.309 N 
ATOM     22  H18 UNL     1      21.468   0.437  26.368  0.00  0.00    +0.152 HD
BRANCH  21  23
ATOM     23  C15 UNL     1      21.357   1.440  28.256  0.00  0.00    +0.103 A 
ATOM     24  C16 UNL     1      22.532   1.483  29.023  0.00  0.00    +0.147 A 
ATOM     25  F1  UNL     1      23.746   1.456  28.418  0.00  0.00    -0.203 F 
ATOM     26  C17 UNL     1      22.461   1.504  30.420  0.00  0.00    +0.040 A 
ATOM     27  C18 UNL     1      21.219   1.504  31.060  0.00  0.00    +0.006 A 
ATOM     28  C19 UNL     1      20.045   1.488  30.305  0.00  0.00    +0.040 A 
ATOM     29  C20 UNL     1      20.107   1.460  28.908  0.00  0.00    +0.147 A 
ATOM     30  F2  UNL     1      18.953   1.467  28.196  0.00  0.00    -0.203 F 
ENDBRANCH  21  23
ENDBRANCH   6  21
TORSDOF 6
ENDMDL
MODEL 9
REMARK VINA RESULT:    -5.869      6.725     10.902
REMARK INTER + INTRA:          -9.170
REMARK INTER:                  -7.976
REMARK INTRA:                  -1.194
REMARK UNBOUND:                -1.242
REMARK  Name = /home/qwerty/github/datacon2025hack/step_04_hit_selection/docking/ligands/lig_96.pdb
REMARK  7 active torsions:
REMARK  status: ('A' for Active; 'I' for Inactive)
REMARK    1  A    between atoms: C1_1  and  O1_2
REMARK    2  A    between atoms: O1_2  and  C2_3
REMARK    3  A    between atoms: C2_3  and  C3_4
REMARK    4  A    between atoms: C7_9  and  C8_11
REMARK    5  A    between atoms: N2_13  and  C9_14
REMARK    6  A    between atoms: C14_19  and  N3_20
REMARK    7  A    between atoms: N3_20  and  C15_21
REMARK                            x       y       z     vdW  Elec       q    Type
REMARK                         _______ _______ _______ _____ _____    ______ ____
ROOT
ATOM      1  C9  UNL     1      13.179  14.529  29.426  0.00  0.00    +0.055 A 
ATOM      2  C10 UNL     1      14.132  14.831  28.440  0.00  0.00    +0.025 A 
ATOM      3  C11 UNL     1      13.760  14.897  27.096  0.00  0.00    +0.002 A 
ATOM      4  C12 UNL     1      12.434  14.676  26.725  0.00  0.00    +0.002 A 
ATOM      5  C13 UNL     1      11.476  14.377  27.697  0.00  0.00    +0.025 A 
ATOM      6  C14 UNL     1      11.840  14.279  29.048  0.00  0.00    +0.053 A 
ENDROOT
BRANCH   1   9
ATOM      7  C8  UNL     1      14.133  13.435  31.480  0.00  0.00    +0.303 C 
ATOM      8  O3  UNL     1      14.578  12.468  30.806  0.00  0.00    -0.265 OA
ATOM      9  N2  UNL     1      13.549  14.563  30.812  0.00  0.00    -0.276 N 
ATOM     10  H13 UNL     1      13.180  15.353  31.389  0.00  0.00    +0.155 HD
BRANCH   7  16
ATOM     11  C3  UNL     1      13.038  13.395  35.236  0.00  0.00    +0.102 C 
ATOM     12  C4  UNL     1      11.724  14.040  35.679  0.00  0.00    +0.026 C 
ATOM     13  C5  UNL     1      10.771  13.872  34.503  0.00  0.00    +0.021 C 
ATOM     14  C6  UNL     1      11.657  13.717  33.276  0.00  0.00    +0.108 C 
ATOM     15  N1  UNL     1      12.990  13.401  33.777  0.00  0.00    -0.289 N 
ATOM     16  C7  UNL     1      14.182  13.400  32.960  0.00  0.00    +0.302 C 
ATOM     17  O2  UNL     1      15.312  13.397  33.521  0.00  0.00    -0.265 OA
BRANCH  11  18
ATOM     18  C2  UNL     1      13.166  11.956  35.763  0.00  0.00    +0.181 C 
BRANCH  18  20
ATOM     19  C1  UNL     1      14.940  12.365  37.172  0.00  0.00    +0.194 C 
ATOM     20  O1  UNL     1      14.522  11.665  36.023  0.00  0.00    -0.381 OA
ENDBRANCH  18  20
ENDBRANCH  11  18
ENDBRANCH   7  16
ENDBRANCH   1   9
BRANCH   6  21
ATOM     21  N3  UNL     1      10.838  13.929  30.017  0.00  0.00    -0.309 N 
ATOM     22  H18 UNL     1      10.676  14.581  30.819  0.00  0.00    +0.152 HD
BRANCH  21  23
ATOM     23  C15 UNL     1      10.020  12.751  29.922  0.00  0.00    +0.103 A 
ATOM     24  C16 UNL     1       8.735  12.843  29.361  0.00  0.00    +0.147 A 
ATOM     25  F1  UNL     1       8.264  14.035  28.920  0.00  0.00    -0.203 F 
ATOM     26  C17 UNL     1       7.913  11.713  29.297  0.00  0.00    +0.040 A 
ATOM     27  C18 UNL     1       8.372  10.482  29.773  0.00  0.00    +0.006 A 
ATOM     28  C19 UNL     1       9.657  10.376  30.308  0.00  0.00    +0.040 A 
ATOM     29  C20 UNL     1      10.483  11.501  30.383  0.00  0.00    +0.147 A 
ATOM     30  F2  UNL     1      11.736  11.369  30.886  0.00  0.00    -0.203 F 
ENDBRANCH  21  23
ENDBRANCH   6  21
TORSDOF 6
ENDMDL
