REMARK  Name = /home/qwerty/github/datacon2025hack/step_04_hit_selection/docking/ligands/lig_678.pdb
REMARK  4 active torsions:
REMARK  status: ('A' for Active; 'I' for Inactive)
REMARK    1  A    between atoms: C1_1  and  C2_2
REMARK    2  A    between atoms: N1_4  and  C3_5
REMARK    3  A    between atoms: C6_8  and  N2_9
REMARK    4  A    between atoms: C11_16  and  C12_17
REMARK                            x       y       z     vdW  Elec       q    Type
REMARK                         _______ _______ _______ _____ _____    ______ ____
ROOT
ATOM      1  N2  UNL     1       0.619  -0.714   0.427  0.00  0.00    -0.269 N 
ATOM      2  C7  UNL     1       0.511  -1.144   1.793  0.00  0.00    +0.307 C 
ATOM      3  O2  UNL     1       1.541  -1.525   2.411  0.00  0.00    -0.252 OA
ATOM      4  N3  UNL     1      -0.766  -1.182   2.450  0.00  0.00    -0.278 N 
ATOM      5  C8  UNL     1      -1.025  -2.048   3.588  0.00  0.00    +0.110 C 
ATOM      6  C9  UNL     1      -2.163  -1.396   4.358  0.00  0.00    +0.021 C 
ATOM      7  C10 UNL     1      -2.816  -0.411   3.391  0.00  0.00    +0.029 C 
ATOM      8  C11 UNL     1      -1.763  -0.125   2.317  0.00  0.00    +0.108 C 
ATOM      9  H7  UNL     1      -0.149  -0.976  -0.232  0.00  0.00    +0.156 HD
ENDROOT
BRANCH   8  10
ATOM     10  C12 UNL     1      -2.367  -0.093   0.930  0.00  0.00    -0.023 A 
ATOM     11  C13 UNL     1      -2.357   1.100   0.185  0.00  0.00    +0.009 A 
ATOM     12  C14 UNL     1      -2.852   1.124  -1.121  0.00  0.00    +0.050 A 
ATOM     13  C15 UNL     1      -3.359  -0.044  -1.695  0.00  0.00    +0.162 A 
ATOM     14  C16 UNL     1      -3.412  -1.227  -0.949  0.00  0.00    +0.162 A 
ATOM     15  C17 UNL     1      -2.912  -1.257   0.354  0.00  0.00    +0.055 A 
ATOM     16  O3  UNL     1      -3.960  -2.376  -1.530  0.00  0.00    -0.485 OA
ATOM     17  C18 UNL     1      -4.685  -2.308  -2.758  0.00  0.00    +0.270 C 
ATOM     18  C19 UNL     1      -4.033  -1.290  -3.702  0.00  0.00    +0.270 C 
ATOM     19  O4  UNL     1      -3.810  -0.056  -3.018  0.00  0.00    -0.485 OA
ENDBRANCH   8  10
BRANCH   1  23
ATOM     20  C3  UNL     1       4.049   1.170  -1.240  0.00  0.00    +0.033 A 
ATOM     21  C4  UNL     1       3.764   1.317   0.126  0.00  0.00    +0.025 A 
ATOM     22  C5  UNL     1       2.640   0.700   0.685  0.00  0.00    +0.025 A 
ATOM     23  C6  UNL     1       1.790  -0.085  -0.114  0.00  0.00    +0.035 A 
ATOM     24  C20 UNL     1       2.067  -0.216  -1.483  0.00  0.00    +0.025 A 
ATOM     25  C21 UNL     1       3.196   0.391  -2.039  0.00  0.00    +0.025 A 
BRANCH  20  29
ATOM     26  C1  UNL     1       7.005   3.541  -2.073  0.00  0.00    +0.109 C 
ATOM     27  C2  UNL     1       5.711   3.065  -1.497  0.00  0.00    +0.214 C 
ATOM     28  O1  UNL     1       5.039   3.836  -0.763  0.00  0.00    -0.276 OA
ATOM     29  N1  UNL     1       5.221   1.758  -1.829  0.00  0.00    -0.286 N 
ATOM     30  H4  UNL     1       5.677   1.253  -2.627  0.00  0.00    +0.155 HD
ENDBRANCH  20  29
ENDBRANCH   1  23
TORSDOF 3
