MODEL 1
REMARK VINA RESULT:    -7.976      0.000      0.000
REMARK INTER + INTRA:         -10.431
REMARK INTER:                  -9.842
REMARK INTRA:                  -0.589
REMARK UNBOUND:                -0.589
REMARK  Name = /home/qwerty/github/datacon2025hack/step_04_hit_selection/docking/ligands/lig_461.pdb
REMARK  4 active torsions:
REMARK  status: ('A' for Active; 'I' for Inactive)
REMARK    1  A    between atoms: N1_3  and  C2_4
REMARK    2  A    between atoms: C5_7  and  N2_8
REMARK    3  A    between atoms: N5_15  and  C10_16
REMARK    4  A    between atoms: C18_24  and  C19_25
REMARK                            x       y       z     vdW  Elec       q    Type
REMARK                         _______ _______ _______ _____ _____    ______ ____
ROOT
ATOM      1  O1  UNL     1      17.632   6.758  20.825  0.00  0.00    -0.252 OA
ATOM      2  C1  UNL     1      16.819   6.907  19.872  0.00  0.00    +0.308 C 
ATOM      3  N1  UNL     1      15.796   5.929  19.635  0.00  0.00    -0.269 N 
ATOM      4  N5  UNL     1      16.855   8.098  19.073  0.00  0.00    -0.269 N 
ATOM      5  H1  UNL     1      14.968   6.221  19.070  0.00  0.00    +0.156 HD
ATOM      6  H8  UNL     1      16.004   8.333  18.514  0.00  0.00    +0.156 HD
ENDROOT
BRANCH   4   7
ATOM      7  C10 UNL     1      17.944   9.038  19.070  0.00  0.00    +0.035 A 
ATOM      8  C11 UNL     1      19.207   8.623  18.621  0.00  0.00    +0.023 A 
ATOM      9  C12 UNL     1      20.285   9.511  18.614  0.00  0.00    +0.006 A 
ATOM     10  C13 UNL     1      20.119  10.820  19.088  0.00  0.00    -0.043 A 
ATOM     11  C14 UNL     1      18.873  11.235  19.577  0.00  0.00    -0.042 A 
ATOM     12  C15 UNL     1      17.786  10.348  19.559  0.00  0.00    +0.027 A 
ATOM     13  C16 UNL     1      18.703  12.663  20.032  0.00  0.00    +0.036 C 
ATOM     14  C17 UNL     1      19.932  13.213  20.793  0.00  0.00    +0.018 C 
ATOM     15  C18 UNL     1      21.284  12.520  20.460  0.00  0.00    +0.080 C 
ATOM     16  C24 UNL     1      21.262  11.796  19.103  0.00  0.00    +0.048 C 
BRANCH  15  17
ATOM     17  C19 UNL     1      22.423  13.517  20.516  0.00  0.00    +0.219 C 
ATOM     18  O2  UNL     1      22.733  14.146  19.468  0.00  0.00    -0.275 OA
ATOM     19  N6  UNL     1      23.133  13.795  21.737  0.00  0.00    -0.301 N 
ATOM     20  C20 UNL     1      24.238  14.737  21.802  0.00  0.00    +0.108 C 
ATOM     21  C21 UNL     1      24.803  14.615  23.213  0.00  0.00    +0.020 C 
ATOM     22  C22 UNL     1      23.722  13.917  24.035  0.00  0.00    +0.020 C 
ATOM     23  C23 UNL     1      22.835  13.195  23.027  0.00  0.00    +0.108 C 
ENDBRANCH  15  17
ENDBRANCH   4   7
BRANCH   3  24
ATOM     24  C2  UNL     1      15.788   4.612  20.212  0.00  0.00    +0.035 A 
ATOM     25  C3  UNL     1      16.461   3.538  19.608  0.00  0.00    +0.025 A 
ATOM     26  C4  UNL     1      16.411   2.259  20.173  0.00  0.00    +0.029 A 
ATOM     27  C5  UNL     1      15.676   2.023  21.351  0.00  0.00    +0.067 A 
ATOM     28  C8  UNL     1      14.987   3.099  21.940  0.00  0.00    +0.029 A 
ATOM     29  C9  UNL     1      15.038   4.377  21.372  0.00  0.00    +0.025 A 
BRANCH  27  30
ATOM     30  N2  UNL     1      15.603   0.708  21.944  0.00  0.00    -0.220 N 
ATOM     31  C6  UNL     1      16.270  -0.409  21.586  0.00  0.00    +0.225 A 
ATOM     32  N3  UNL     1      15.930  -1.455  22.362  0.00  0.00    -0.222 NA
ATOM     33  C7  UNL     1      15.025  -0.911  23.204  0.00  0.00    +0.245 A 
ATOM     34  N4  UNL     1      14.819   0.397  22.962  0.00  0.00    -0.154 NA
ENDBRANCH  27  30
ENDBRANCH   3  24
TORSDOF 4
ENDMDL
MODEL 2
REMARK VINA RESULT:    -7.591      2.657     12.250
REMARK INTER + INTRA:          -9.956
REMARK INTER:                 -10.010
REMARK INTRA:                   0.054
REMARK UNBOUND:                -0.589
REMARK  Name = /home/qwerty/github/datacon2025hack/step_04_hit_selection/docking/ligands/lig_461.pdb
REMARK  4 active torsions:
REMARK  status: ('A' for Active; 'I' for Inactive)
REMARK    1  A    between atoms: N1_3  and  C2_4
REMARK    2  A    between atoms: C5_7  and  N2_8
REMARK    3  A    between atoms: N5_15  and  C10_16
REMARK    4  A    between atoms: C18_24  and  C19_25
REMARK                            x       y       z     vdW  Elec       q    Type
REMARK                         _______ _______ _______ _____ _____    ______ ____
ROOT
ATOM      1  O1  UNL     1      18.106   6.743  19.269  0.00  0.00    -0.252 OA
ATOM      2  C1  UNL     1      16.990   7.226  19.605  0.00  0.00    +0.308 C 
ATOM      3  N1  UNL     1      16.751   8.637  19.497  0.00  0.00    -0.269 N 
ATOM      4  N5  UNL     1      15.922   6.359  20.015  0.00  0.00    -0.269 N 
ATOM      5  H1  UNL     1      15.759   8.960  19.471  0.00  0.00    +0.156 HD
ATOM      6  H8  UNL     1      14.950   6.741  19.985  0.00  0.00    +0.156 HD
ENDROOT
BRANCH   4   7
ATOM      7  C10 UNL     1      16.093   4.974  20.365  0.00  0.00    +0.035 A 
ATOM      8  C11 UNL     1      15.464   3.988  19.589  0.00  0.00    +0.023 A 
ATOM      9  C12 UNL     1      15.606   2.636  19.911  0.00  0.00    +0.006 A 
ATOM     10  C13 UNL     1      16.354   2.255  21.033  0.00  0.00    -0.043 A 
ATOM     11  C14 UNL     1      16.953   3.232  21.839  0.00  0.00    -0.042 A 
ATOM     12  C15 UNL     1      16.830   4.589  21.500  0.00  0.00    +0.027 A 
ATOM     13  C16 UNL     1      17.798   2.799  23.012  0.00  0.00    +0.036 C 
ATOM     14  C17 UNL     1      17.217   1.580  23.766  0.00  0.00    +0.018 C 
ATOM     15  C18 UNL     1      16.289   0.659  22.924  0.00  0.00    +0.080 C 
ATOM     16  C24 UNL     1      16.516   0.810  21.410  0.00  0.00    +0.048 C 
BRANCH  15  17
ATOM     17  C19 UNL     1      16.445  -0.787  23.347  0.00  0.00    +0.219 C 
ATOM     18  O2  UNL     1      17.403  -1.459  22.876  0.00  0.00    -0.275 OA
ATOM     19  N6  UNL     1      15.558  -1.403  24.300  0.00  0.00    -0.301 N 
ATOM     20  C20 UNL     1      15.687  -2.793  24.702  0.00  0.00    +0.108 C 
ATOM     21  C21 UNL     1      14.475  -3.084  25.581  0.00  0.00    +0.020 C 
ATOM     22  C22 UNL     1      13.927  -1.720  25.997  0.00  0.00    +0.020 C 
ATOM     23  C23 UNL     1      14.460  -0.727  24.969  0.00  0.00    +0.108 C 
ENDBRANCH  15  17
ENDBRANCH   4   7
BRANCH   3  24
ATOM     24  C2  UNL     1      17.784   9.620  19.313  0.00  0.00    +0.035 A 
ATOM     25  C3  UNL     1      19.107   9.251  19.018  0.00  0.00    +0.025 A 
ATOM     26  C4  UNL     1      20.102  10.226  18.876  0.00  0.00    +0.029 A 
ATOM     27  C5  UNL     1      19.797  11.591  19.036  0.00  0.00    +0.067 A 
ATOM     28  C8  UNL     1      18.474  11.951  19.352  0.00  0.00    +0.029 A 
ATOM     29  C9  UNL     1      17.482  10.975  19.495  0.00  0.00    +0.025 A 
BRANCH  27  30
ATOM     30  N2  UNL     1      20.811  12.610  18.904  0.00  0.00    -0.220 N 
ATOM     31  C6  UNL     1      22.136  12.506  19.132  0.00  0.00    +0.225 A 
ATOM     32  N3  UNL     1      22.766  13.677  18.919  0.00  0.00    -0.222 NA
ATOM     33  C7  UNL     1      21.752  14.491  18.552  0.00  0.00    +0.245 A 
ATOM     34  N4  UNL     1      20.564  13.857  18.538  0.00  0.00    -0.154 NA
ENDBRANCH  27  30
ENDBRANCH   3  24
TORSDOF 4
ENDMDL
MODEL 3
REMARK VINA RESULT:    -7.464     10.812     17.524
REMARK INTER + INTRA:          -9.799
REMARK INTER:                  -9.179
REMARK INTRA:                  -0.620
REMARK UNBOUND:                -0.589
REMARK  Name = /home/qwerty/github/datacon2025hack/step_04_hit_selection/docking/ligands/lig_461.pdb
REMARK  4 active torsions:
REMARK  status: ('A' for Active; 'I' for Inactive)
REMARK    1  A    between atoms: N1_3  and  C2_4
REMARK    2  A    between atoms: C5_7  and  N2_8
REMARK    3  A    between atoms: N5_15  and  C10_16
REMARK    4  A    between atoms: C18_24  and  C19_25
REMARK                            x       y       z     vdW  Elec       q    Type
REMARK                         _______ _______ _______ _____ _____    ______ ____
ROOT
ATOM      1  O1  UNL     1       9.005   2.198  26.954  0.00  0.00    -0.252 OA
ATOM      2  C1  UNL     1       8.875   1.230  26.155  0.00  0.00    +0.308 C 
ATOM      3  N1  UNL     1       9.020   1.435  24.742  0.00  0.00    -0.269 N 
ATOM      4  N5  UNL     1       8.667  -0.098  26.658  0.00  0.00    -0.269 N 
ATOM      5  H1  UNL     1       9.223   0.600  24.150  0.00  0.00    +0.156 HD
ATOM      6  H8  UNL     1       8.870  -0.897  26.015  0.00  0.00    +0.156 HD
ENDROOT
BRANCH   4   7
ATOM      7  C10 UNL     1       8.296  -0.402  28.014  0.00  0.00    +0.035 A 
ATOM      8  C11 UNL     1       6.994  -0.108  28.450  0.00  0.00    +0.023 A 
ATOM      9  C12 UNL     1       6.609  -0.384  29.764  0.00  0.00    +0.006 A 
ATOM     10  C13 UNL     1       7.531  -0.929  30.668  0.00  0.00    -0.043 A 
ATOM     11  C14 UNL     1       8.846  -1.189  30.256  0.00  0.00    -0.042 A 
ATOM     12  C15 UNL     1       9.224  -0.934  28.928  0.00  0.00    +0.027 A 
ATOM     13  C16 UNL     1       9.808  -1.823  31.229  0.00  0.00    +0.036 C 
ATOM     14  C17 UNL     1       9.657  -1.290  32.674  0.00  0.00    +0.018 C 
ATOM     15  C18 UNL     1       8.257  -0.712  33.025  0.00  0.00    +0.080 C 
ATOM     16  C24 UNL     1       7.149  -1.227  32.090  0.00  0.00    +0.048 C 
BRANCH  15  17
ATOM     17  C19 UNL     1       7.911  -0.996  34.472  0.00  0.00    +0.219 C 
ATOM     18  O2  UNL     1       7.579  -2.167  34.800  0.00  0.00    -0.275 OA
ATOM     19  N6  UNL     1       7.988   0.022  35.488  0.00  0.00    -0.301 N 
ATOM     20  C20 UNL     1       7.644  -0.232  36.876  0.00  0.00    +0.108 C 
ATOM     21  C21 UNL     1       7.704   1.123  37.572  0.00  0.00    +0.020 C 
ATOM     22  C22 UNL     1       8.503   2.033  36.642  0.00  0.00    +0.020 C 
ATOM     23  C23 UNL     1       8.421   1.390  35.261  0.00  0.00    +0.108 C 
ENDBRANCH  15  17
ENDBRANCH   4   7
BRANCH   3  24
ATOM     24  C2  UNL     1       9.011   2.725  24.108  0.00  0.00    +0.035 A 
ATOM     25  C3  UNL     1       7.841   3.499  24.028  0.00  0.00    +0.025 A 
ATOM     26  C4  UNL     1       7.852   4.737  23.376  0.00  0.00    +0.029 A 
ATOM     27  C5  UNL     1       9.031   5.225  22.781  0.00  0.00    +0.067 A 
ATOM     28  C8  UNL     1      10.193   4.436  22.847  0.00  0.00    +0.029 A 
ATOM     29  C9  UNL     1      10.181   3.197  23.498  0.00  0.00    +0.025 A 
BRANCH  27  30
ATOM     30  N2  UNL     1       9.059   6.496  22.096  0.00  0.00    -0.220 N 
ATOM     31  C6  UNL     1       9.882   6.893  21.103  0.00  0.00    +0.225 A 
ATOM     32  N3  UNL     1       9.622   8.158  20.723  0.00  0.00    -0.222 NA
ATOM     33  C7  UNL     1       8.601   8.503  21.538  0.00  0.00    +0.245 A 
ATOM     34  N4  UNL     1       8.251   7.505  22.372  0.00  0.00    -0.154 NA
ENDBRANCH  27  30
ENDBRANCH   3  24
TORSDOF 4
ENDMDL
MODEL 4
REMARK VINA RESULT:    -7.163      9.208     12.625
REMARK INTER + INTRA:          -9.428
REMARK INTER:                  -8.781
REMARK INTRA:                  -0.647
REMARK UNBOUND:                -0.589
REMARK  Name = /home/qwerty/github/datacon2025hack/step_04_hit_selection/docking/ligands/lig_461.pdb
REMARK  4 active torsions:
REMARK  status: ('A' for Active; 'I' for Inactive)
REMARK    1  A    between atoms: N1_3  and  C2_4
REMARK    2  A    between atoms: C5_7  and  N2_8
REMARK    3  A    between atoms: N5_15  and  C10_16
REMARK    4  A    between atoms: C18_24  and  C19_25
REMARK                            x       y       z     vdW  Elec       q    Type
REMARK                         _______ _______ _______ _____ _____    ______ ____
ROOT
ATOM      1  O1  UNL     1      19.564  13.452  30.466  0.00  0.00    -0.252 OA
ATOM      2  C1  UNL     1      20.471  13.809  31.266  0.00  0.00    +0.308 C 
ATOM      3  N1  UNL     1      20.330  13.566  32.674  0.00  0.00    -0.269 N 
ATOM      4  N5  UNL     1      21.689  14.382  30.768  0.00  0.00    -0.269 N 
ATOM      5  H1  UNL     1      21.196  13.574  33.256  0.00  0.00    +0.156 HD
ATOM      6  H8  UNL     1      22.521  14.378  31.401  0.00  0.00    +0.156 HD
ENDROOT
BRANCH   4   7
ATOM      7  C10 UNL     1      21.866  14.867  29.426  0.00  0.00    +0.035 A 
ATOM      8  C11 UNL     1      21.261  16.077  29.048  0.00  0.00    +0.023 A 
ATOM      9  C12 UNL     1      21.409  16.567  27.749  0.00  0.00    +0.006 A 
ATOM     10  C13 UNL     1      22.137  15.837  26.800  0.00  0.00    -0.043 A 
ATOM     11  C14 UNL     1      22.712  14.608  27.153  0.00  0.00    -0.042 A 
ATOM     12  C15 UNL     1      22.584  14.129  28.466  0.00  0.00    +0.027 A 
ATOM     13  C16 UNL     1      23.536  13.864  26.132  0.00  0.00    +0.036 C 
ATOM     14  C17 UNL     1      22.951  13.938  24.702  0.00  0.00    +0.018 C 
ATOM     15  C18 UNL     1      22.049  15.172  24.417  0.00  0.00    +0.080 C 
ATOM     16  C24 UNL     1      22.305  16.334  25.392  0.00  0.00    +0.048 C 
BRANCH  15  17
ATOM     17  C19 UNL     1      22.210  15.632  22.983  0.00  0.00    +0.219 C 
ATOM     18  O2  UNL     1      23.142  16.433  22.702  0.00  0.00    -0.275 OA
ATOM     19  N6  UNL     1      21.357  15.150  21.927  0.00  0.00    -0.301 N 
ATOM     20  C20 UNL     1      21.490  15.594  20.551  0.00  0.00    +0.108 C 
ATOM     21  C21 UNL     1      20.312  14.980  19.802  0.00  0.00    +0.020 C 
ATOM     22  C22 UNL     1      19.794  13.855  20.694  0.00  0.00    +0.020 C 
ATOM     23  C23 UNL     1      20.292  14.176  22.099  0.00  0.00    +0.108 C 
ENDBRANCH  15  17
ENDBRANCH   4   7
BRANCH   3  24
ATOM     24  C2  UNL     1      19.092  13.207  33.311  0.00  0.00    +0.035 A 
ATOM     25  C3  UNL     1      18.115  14.169  33.616  0.00  0.00    +0.025 A 
ATOM     26  C4  UNL     1      16.932  13.799  34.266  0.00  0.00    +0.029 A 
ATOM     27  C5  UNL     1      16.705  12.459  34.636  0.00  0.00    +0.067 A 
ATOM     28  C8  UNL     1      17.697  11.505  34.345  0.00  0.00    +0.029 A 
ATOM     29  C9  UNL     1      18.880  11.877  33.696  0.00  0.00    +0.025 A 
BRANCH  27  30
ATOM     30  N2  UNL     1      15.496  12.059  35.316  0.00  0.00    -0.220 N 
ATOM     31  C6  UNL     1      14.265  11.875  34.796  0.00  0.00    +0.225 A 
ATOM     32  N3  UNL     1      13.378  11.518  35.744  0.00  0.00    -0.222 NA
ATOM     33  C7  UNL     1      14.137  11.498  36.861  0.00  0.00    +0.245 A 
ATOM     34  N4  UNL     1      15.421  11.823  36.615  0.00  0.00    -0.154 NA
ENDBRANCH  27  30
ENDBRANCH   3  24
TORSDOF 4
ENDMDL
MODEL 5
REMARK VINA RESULT:    -7.138     12.550     18.085
REMARK INTER + INTRA:          -9.396
REMARK INTER:                  -8.725
REMARK INTRA:                  -0.671
REMARK UNBOUND:                -0.589
REMARK  Name = /home/qwerty/github/datacon2025hack/step_04_hit_selection/docking/ligands/lig_461.pdb
REMARK  4 active torsions:
REMARK  status: ('A' for Active; 'I' for Inactive)
REMARK    1  A    between atoms: N1_3  and  C2_4
REMARK    2  A    between atoms: C5_7  and  N2_8
REMARK    3  A    between atoms: N5_15  and  C10_16
REMARK    4  A    between atoms: C18_24  and  C19_25
REMARK                            x       y       z     vdW  Elec       q    Type
REMARK                         _______ _______ _______ _____ _____    ______ ____
ROOT
ATOM      1  O1  UNL     1       8.258   6.686  28.783  0.00  0.00    -0.252 OA
ATOM      2  C1  UNL     1       7.067   6.939  28.455  0.00  0.00    +0.308 C 
ATOM      3  N1  UNL     1       6.716   8.238  27.955  0.00  0.00    -0.269 N 
ATOM      4  N5  UNL     1       6.071   5.906  28.496  0.00  0.00    -0.269 N 
ATOM      5  H1  UNL     1       5.832   8.324  27.407  0.00  0.00    +0.156 HD
ATOM      6  H8  UNL     1       5.198   6.053  27.942  0.00  0.00    +0.156 HD
ENDROOT
BRANCH   4   7
ATOM      7  C10 UNL     1       6.240   4.646  29.167  0.00  0.00    +0.035 A 
ATOM      8  C11 UNL     1       5.782   4.504  30.487  0.00  0.00    +0.023 A 
ATOM      9  C12 UNL     1       5.940   3.294  31.165  0.00  0.00    +0.006 A 
ATOM     10  C13 UNL     1       6.588   2.218  30.544  0.00  0.00    -0.043 A 
ATOM     11  C14 UNL     1       7.087   2.360  29.241  0.00  0.00    -0.042 A 
ATOM     12  C15 UNL     1       6.904   3.569  28.552  0.00  0.00    +0.027 A 
ATOM     13  C16 UNL     1       7.734   1.174  28.571  0.00  0.00    +0.036 C 
ATOM     14  C17 UNL     1       8.609   0.331  29.530  0.00  0.00    +0.018 C 
ATOM     15  C18 UNL     1       8.229   0.430  31.034  0.00  0.00    +0.080 C 
ATOM     16  C24 UNL     1       6.782   0.907  31.252  0.00  0.00    +0.048 C 
BRANCH  15  17
ATOM     17  C19 UNL     1       8.466  -0.893  31.732  0.00  0.00    +0.219 C 
ATOM     18  O2  UNL     1       8.120  -1.958  31.153  0.00  0.00    -0.275 OA
ATOM     19  N6  UNL     1       9.111  -0.971  33.018  0.00  0.00    -0.301 N 
ATOM     20  C20 UNL     1       9.330  -2.232  33.706  0.00  0.00    +0.108 C 
ATOM     21  C21 UNL     1       9.880  -1.863  35.080  0.00  0.00    +0.020 C 
ATOM     22  C22 UNL     1      10.358  -0.418  34.961  0.00  0.00    +0.020 C 
ATOM     23  C23 UNL     1       9.619   0.168  33.763  0.00  0.00    +0.108 C 
ENDBRANCH  15  17
ENDBRANCH   4   7
BRANCH   3  24
ATOM     24  C2  UNL     1       7.554   9.401  28.068  0.00  0.00    +0.035 A 
ATOM     25  C3  UNL     1       8.416   9.792  27.030  0.00  0.00    +0.025 A 
ATOM     26  C4  UNL     1       9.245  10.909  27.177  0.00  0.00    +0.029 A 
ATOM     27  C5  UNL     1       9.239  11.655  28.371  0.00  0.00    +0.067 A 
ATOM     28  C8  UNL     1       8.389  11.246  29.415  0.00  0.00    +0.029 A 
ATOM     29  C9  UNL     1       7.561  10.127  29.266  0.00  0.00    +0.025 A 
BRANCH  27  30
ATOM     30  N2  UNL     1      10.095  12.804  28.547  0.00  0.00    -0.220 N 
ATOM     31  C6  UNL     1      10.606  13.300  29.693  0.00  0.00    +0.225 A 
ATOM     32  N3  UNL     1      11.350  14.399  29.466  0.00  0.00    -0.222 NA
ATOM     33  C7  UNL     1      11.260  14.540  28.126  0.00  0.00    +0.245 A 
ATOM     34  N4  UNL     1      10.505  13.581  27.558  0.00  0.00    -0.154 NA
ENDBRANCH  27  30
ENDBRANCH   3  24
TORSDOF 4
ENDMDL
MODEL 6
REMARK VINA RESULT:    -7.114     14.070     15.749
REMARK INTER + INTRA:          -9.366
REMARK INTER:                  -8.744
REMARK INTRA:                  -0.623
REMARK UNBOUND:                -0.589
REMARK  Name = /home/qwerty/github/datacon2025hack/step_04_hit_selection/docking/ligands/lig_461.pdb
REMARK  4 active torsions:
REMARK  status: ('A' for Active; 'I' for Inactive)
REMARK    1  A    between atoms: N1_3  and  C2_4
REMARK    2  A    between atoms: C5_7  and  N2_8
REMARK    3  A    between atoms: N5_15  and  C10_16
REMARK    4  A    between atoms: C18_24  and  C19_25
REMARK                            x       y       z     vdW  Elec       q    Type
REMARK                         _______ _______ _______ _____ _____    ______ ____
ROOT
ATOM      1  O1  UNL     1      19.844   7.471  34.283  0.00  0.00    -0.252 OA
ATOM      2  C1  UNL     1      20.617   7.325  35.269  0.00  0.00    +0.308 C 
ATOM      3  N1  UNL     1      21.638   6.316  35.243  0.00  0.00    -0.269 N 
ATOM      4  N5  UNL     1      20.539   8.221  36.387  0.00  0.00    -0.269 N 
ATOM      5  H1  UNL     1      22.441   6.423  35.902  0.00  0.00    +0.156 HD
ATOM      6  H8  UNL     1      21.365   8.274  37.024  0.00  0.00    +0.156 HD
ENDROOT
BRANCH   4   7
ATOM      7  C10 UNL     1      19.442   9.120  36.628  0.00  0.00    +0.035 A 
ATOM      8  C11 UNL     1      18.377   8.700  37.440  0.00  0.00    +0.023 A 
ATOM      9  C12 UNL     1      17.295   9.549  37.684  0.00  0.00    +0.006 A 
ATOM     10  C13 UNL     1      17.250  10.818  37.093  0.00  0.00    -0.043 A 
ATOM     11  C14 UNL     1      18.288  11.234  36.247  0.00  0.00    -0.042 A 
ATOM     12  C15 UNL     1      19.386  10.389  36.023  0.00  0.00    +0.027 A 
ATOM     13  C16 UNL     1      18.246  12.624  35.663  0.00  0.00    +0.036 C 
ATOM     14  C17 UNL     1      16.825  13.067  35.239  0.00  0.00    +0.018 C 
ATOM     15  C18 UNL     1      15.659  12.358  35.984  0.00  0.00    +0.080 C 
ATOM     16  C24 UNL     1      16.094  11.750  37.329  0.00  0.00    +0.048 C 
BRANCH  15  17
ATOM     17  C19 UNL     1      14.495  13.307  36.179  0.00  0.00    +0.219 C 
ATOM     18  O2  UNL     1      14.697  14.407  36.761  0.00  0.00    -0.275 OA
ATOM     19  N6  UNL     1      13.176  13.007  35.683  0.00  0.00    -0.301 N 
ATOM     20  C20 UNL     1      12.047  13.901  35.877  0.00  0.00    +0.108 C 
ATOM     21  C21 UNL     1      10.829  13.148  35.354  0.00  0.00    +0.020 C 
ATOM     22  C22 UNL     1      11.379  12.019  34.485  0.00  0.00    +0.020 C 
ATOM     23  C23 UNL     1      12.821  11.812  34.938  0.00  0.00    +0.108 C 
ENDBRANCH  15  17
ENDBRANCH   4   7
BRANCH   3  24
ATOM     24  C2  UNL     1      21.682   5.234  34.297  0.00  0.00    +0.035 A 
ATOM     25  C3  UNL     1      22.648   5.184  33.279  0.00  0.00    +0.025 A 
ATOM     26  C4  UNL     1      22.649   4.137  32.351  0.00  0.00    +0.029 A 
ATOM     27  C5  UNL     1      21.677   3.120  32.415  0.00  0.00    +0.067 A 
ATOM     28  C8  UNL     1      20.700   3.188  33.425  0.00  0.00    +0.029 A 
ATOM     29  C9  UNL     1      20.700   4.237  34.351  0.00  0.00    +0.025 A 
BRANCH  27  30
ATOM     30  N2  UNL     1      21.655   2.037  31.461  0.00  0.00    -0.220 N 
ATOM     31  C6  UNL     1      22.506   1.803  30.440  0.00  0.00    +0.225 A 
ATOM     32  N3  UNL     1      22.157   0.701  29.750  0.00  0.00    -0.222 NA
ATOM     33  C7  UNL     1      21.053   0.284  30.407  0.00  0.00    +0.245 A 
ATOM     34  N4  UNL     1      20.739   1.083  31.444  0.00  0.00    -0.154 NA
ENDBRANCH  27  30
ENDBRANCH   3  24
TORSDOF 4
ENDMDL
MODEL 7
REMARK VINA RESULT:    -7.095      8.884     10.454
REMARK INTER + INTRA:          -9.344
REMARK INTER:                  -8.696
REMARK INTRA:                  -0.648
REMARK UNBOUND:                -0.589
REMARK  Name = /home/qwerty/github/datacon2025hack/step_04_hit_selection/docking/ligands/lig_461.pdb
REMARK  4 active torsions:
REMARK  status: ('A' for Active; 'I' for Inactive)
REMARK    1  A    between atoms: N1_3  and  C2_4
REMARK    2  A    between atoms: C5_7  and  N2_8
REMARK    3  A    between atoms: N5_15  and  C10_16
REMARK    4  A    between atoms: C18_24  and  C19_25
REMARK                            x       y       z     vdW  Elec       q    Type
REMARK                         _______ _______ _______ _____ _____    ______ ____
ROOT
ATOM      1  O1  UNL     1      10.990   4.660  23.739  0.00  0.00    -0.252 OA
ATOM      2  C1  UNL     1      10.053   4.379  22.943  0.00  0.00    +0.308 C 
ATOM      3  N1  UNL     1      10.163   3.246  22.068  0.00  0.00    -0.269 N 
ATOM      4  N5  UNL     1       8.834   5.136  22.966  0.00  0.00    -0.269 N 
ATOM      5  H1  UNL     1       9.282   2.856  21.667  0.00  0.00    +0.156 HD
ATOM      6  H8  UNL     1       7.987   4.703  22.534  0.00  0.00    +0.156 HD
ENDROOT
BRANCH   4   7
ATOM      7  C10 UNL     1       8.681   6.402  23.630  0.00  0.00    +0.035 A 
ATOM      8  C11 UNL     1       8.797   7.586  22.885  0.00  0.00    +0.023 A 
ATOM      9  C12 UNL     1       8.662   8.830  23.506  0.00  0.00    +0.006 A 
ATOM     10  C13 UNL     1       8.439   8.906  24.887  0.00  0.00    -0.043 A 
ATOM     11  C14 UNL     1       8.361   7.732  25.650  0.00  0.00    -0.042 A 
ATOM     12  C15 UNL     1       8.472   6.483  25.020  0.00  0.00    +0.027 A 
ATOM     13  C16 UNL     1       8.068   7.834  27.126  0.00  0.00    +0.036 C 
ATOM     14  C17 UNL     1       8.780   9.025  27.810  0.00  0.00    +0.018 C 
ATOM     15  C18 UNL     1       9.142  10.210  26.871  0.00  0.00    +0.080 C 
ATOM     16  C24 UNL     1       8.298  10.230  25.585  0.00  0.00    +0.048 C 
BRANCH  15  17
ATOM     17  C19 UNL     1       9.027  11.529  27.607  0.00  0.00    +0.219 C 
ATOM     18  O2  UNL     1       7.967  11.780  28.243  0.00  0.00    -0.275 OA
ATOM     19  N6  UNL     1      10.105  12.483  27.634  0.00  0.00    -0.301 N 
ATOM     20  C20 UNL     1      10.002  13.759  28.322  0.00  0.00    +0.108 C 
ATOM     21  C21 UNL     1      11.275  14.522  27.973  0.00  0.00    +0.020 C 
ATOM     22  C22 UNL     1      12.254  13.476  27.445  0.00  0.00    +0.020 C 
ATOM     23  C23 UNL     1      11.400  12.292  27.004  0.00  0.00    +0.108 C 
ENDBRANCH  15  17
ENDBRANCH   4   7
BRANCH   3  24
ATOM     24  C2  UNL     1      11.393   2.552  21.796  0.00  0.00    +0.035 A 
ATOM     25  C3  UNL     1      12.288   2.998  20.810  0.00  0.00    +0.025 A 
ATOM     26  C4  UNL     1      13.463   2.285  20.542  0.00  0.00    +0.029 A 
ATOM     27  C5  UNL     1      13.763   1.105  21.248  0.00  0.00    +0.067 A 
ATOM     28  C8  UNL     1      12.852   0.653  22.221  0.00  0.00    +0.029 A 
ATOM     29  C9  UNL     1      11.677   1.366  22.486  0.00  0.00    +0.025 A 
BRANCH  27  30
ATOM     30  N2  UNL     1      14.965   0.351  20.980  0.00  0.00    -0.220 N 
ATOM     31  C6  UNL     1      15.687   0.305  19.841  0.00  0.00    +0.225 A 
ATOM     32  N3  UNL     1      16.739  -0.527  19.958  0.00  0.00    -0.222 NA
ATOM     33  C7  UNL     1      16.613  -0.980  21.224  0.00  0.00    +0.245 A 
ATOM     34  N4  UNL     1      15.544  -0.455  21.853  0.00  0.00    -0.154 NA
ENDBRANCH  27  30
ENDBRANCH   3  24
TORSDOF 4
ENDMDL
MODEL 8
REMARK VINA RESULT:    -7.038     10.117     15.559
REMARK INTER + INTRA:          -9.273
REMARK INTER:                  -8.585
REMARK INTRA:                  -0.688
REMARK UNBOUND:                -0.589
REMARK  Name = /home/qwerty/github/datacon2025hack/step_04_hit_selection/docking/ligands/lig_461.pdb
REMARK  4 active torsions:
REMARK  status: ('A' for Active; 'I' for Inactive)
REMARK    1  A    between atoms: N1_3  and  C2_4
REMARK    2  A    between atoms: C5_7  and  N2_8
REMARK    3  A    between atoms: N5_15  and  C10_16
REMARK    4  A    between atoms: C18_24  and  C19_25
REMARK                            x       y       z     vdW  Elec       q    Type
REMARK                         _______ _______ _______ _____ _____    ______ ____
ROOT
ATOM      1  O1  UNL     1      14.489  14.165  28.222  0.00  0.00    -0.252 OA
ATOM      2  C1  UNL     1      14.296  15.106  29.039  0.00  0.00    +0.308 C 
ATOM      3  N1  UNL     1      15.315  16.093  29.258  0.00  0.00    -0.269 N 
ATOM      4  N5  UNL     1      13.025  15.248  29.691  0.00  0.00    -0.269 N 
ATOM      5  H1  UNL     1      15.024  17.005  29.674  0.00  0.00    +0.156 HD
ATOM      6  H8  UNL     1      12.794  16.179  30.105  0.00  0.00    +0.156 HD
ENDROOT
BRANCH   4   7
ATOM      7  C10 UNL     1      12.014  14.226  29.722  0.00  0.00    +0.035 A 
ATOM      8  C11 UNL     1      12.096  13.209  30.686  0.00  0.00    +0.023 A 
ATOM      9  C12 UNL     1      11.132  12.199  30.734  0.00  0.00    +0.006 A 
ATOM     10  C13 UNL     1      10.090  12.176  29.797  0.00  0.00    -0.043 A 
ATOM     11  C14 UNL     1      10.020  13.163  28.804  0.00  0.00    -0.042 A 
ATOM     12  C15 UNL     1      10.975  14.191  28.773  0.00  0.00    +0.027 A 
ATOM     13  C16 UNL     1       8.862  13.150  27.838  0.00  0.00    +0.036 C 
ATOM     14  C17 UNL     1       8.454  11.726  27.390  0.00  0.00    +0.018 C 
ATOM     15  C18 UNL     1       8.823  10.587  28.383  0.00  0.00    +0.080 C 
ATOM     16  C24 UNL     1       9.044  11.097  29.817  0.00  0.00    +0.048 C 
BRANCH  15  17
ATOM     17  C19 UNL     1       7.772   9.497  28.359  0.00  0.00    +0.219 C 
ATOM     18  O2  UNL     1       6.715   9.656  29.028  0.00  0.00    -0.275 OA
ATOM     19  N6  UNL     1       7.928   8.306  27.564  0.00  0.00    -0.301 N 
ATOM     20  C20 UNL     1       6.935   7.245  27.545  0.00  0.00    +0.108 C 
ATOM     21  C21 UNL     1       7.551   6.117  26.723  0.00  0.00    +0.020 C 
ATOM     22  C22 UNL     1       8.701   6.751  25.944  0.00  0.00    +0.020 C 
ATOM     23  C23 UNL     1       9.060   8.027  26.698  0.00  0.00    +0.108 C 
ENDBRANCH  15  17
ENDBRANCH   4   7
BRANCH   3  24
ATOM     24  C2  UNL     1      16.684  15.947  28.843  0.00  0.00    +0.035 A 
ATOM     25  C3  UNL     1      17.112  16.340  27.564  0.00  0.00    +0.025 A 
ATOM     26  C4  UNL     1      18.443  16.158  27.173  0.00  0.00    +0.029 A 
ATOM     27  C5  UNL     1      19.374  15.568  28.049  0.00  0.00    +0.067 A 
ATOM     28  C8  UNL     1      18.934  15.158  29.321  0.00  0.00    +0.029 A 
ATOM     29  C9  UNL     1      17.602  15.340  29.710  0.00  0.00    +0.025 A 
BRANCH  27  30
ATOM     30  N2  UNL     1      20.749  15.362  27.661  0.00  0.00    -0.220 N 
ATOM     31  C6  UNL     1      21.596  14.392  28.064  0.00  0.00    +0.225 A 
ATOM     32  N3  UNL     1      22.811  14.532  27.499  0.00  0.00    -0.222 NA
ATOM     33  C7  UNL     1      22.651  15.635  26.736  0.00  0.00    +0.245 A 
ATOM     34  N4  UNL     1      21.408  16.145  26.824  0.00  0.00    -0.154 NA
ENDBRANCH  27  30
ENDBRANCH   3  24
TORSDOF 4
ENDMDL
MODEL 9
REMARK VINA RESULT:    -7.034      2.447     12.108
REMARK INTER + INTRA:          -9.268
REMARK INTER:                  -8.665
REMARK INTRA:                  -0.603
REMARK UNBOUND:                -0.589
REMARK  Name = /home/qwerty/github/datacon2025hack/step_04_hit_selection/docking/ligands/lig_461.pdb
REMARK  4 active torsions:
REMARK  status: ('A' for Active; 'I' for Inactive)
REMARK    1  A    between atoms: N1_3  and  C2_4
REMARK    2  A    between atoms: C5_7  and  N2_8
REMARK    3  A    between atoms: N5_15  and  C10_16
REMARK    4  A    between atoms: C18_24  and  C19_25
REMARK                            x       y       z     vdW  Elec       q    Type
REMARK                         _______ _______ _______ _____ _____    ______ ____
ROOT
ATOM      1  O1  UNL     1      17.671   6.743  20.411  0.00  0.00    -0.252 OA
ATOM      2  C1  UNL     1      17.027   6.923  19.342  0.00  0.00    +0.308 C 
ATOM      3  N1  UNL     1      17.265   8.091  18.543  0.00  0.00    -0.269 N 
ATOM      4  N5  UNL     1      16.114   5.920  18.871  0.00  0.00    -0.269 N 
ATOM      5  H1  UNL     1      16.971   8.061  17.542  0.00  0.00    +0.156 HD
ATOM      6  H8  UNL     1      15.840   5.949  17.863  0.00  0.00    +0.156 HD
ENDROOT
BRANCH   4   7
ATOM      7  C10 UNL     1      15.633   4.825  19.670  0.00  0.00    +0.035 A 
ATOM      8  C11 UNL     1      14.605   5.052  20.598  0.00  0.00    +0.023 A 
ATOM      9  C12 UNL     1      14.124   4.009  21.392  0.00  0.00    +0.006 A 
ATOM     10  C13 UNL     1      14.689   2.730  21.291  0.00  0.00    -0.043 A 
ATOM     11  C14 UNL     1      15.744   2.500  20.397  0.00  0.00    -0.042 A 
ATOM     12  C15 UNL     1      16.208   3.543  19.582  0.00  0.00    +0.027 A 
ATOM     13  C16 UNL     1      16.302   1.105  20.265  0.00  0.00    +0.036 C 
ATOM     14  C17 UNL     1      16.398   0.354  21.615  0.00  0.00    +0.018 C 
ATOM     15  C18 UNL     1      15.412   0.839  22.716  0.00  0.00    +0.080 C 
ATOM     16  C24 UNL     1      14.200   1.590  22.139  0.00  0.00    +0.048 C 
BRANCH  15  17
ATOM     17  C19 UNL     1      14.962  -0.322  23.578  0.00  0.00    +0.219 C 
ATOM     18  O2  UNL     1      15.051  -1.492  23.117  0.00  0.00    -0.275 OA
ATOM     19  N6  UNL     1      14.473  -0.131  24.919  0.00  0.00    -0.301 N 
ATOM     20  C20 UNL     1      14.023  -1.233  25.751  0.00  0.00    +0.108 C 
ATOM     21  C21 UNL     1      13.444  -0.593  27.008  0.00  0.00    +0.020 C 
ATOM     22  C22 UNL     1      13.980   0.836  27.031  0.00  0.00    +0.020 C 
ATOM     23  C23 UNL     1      14.383   1.152  25.595  0.00  0.00    +0.108 C 
ENDBRANCH  15  17
ENDBRANCH   4   7
BRANCH   3  24
ATOM     24  C2  UNL     1      17.977   9.253  19.002  0.00  0.00    +0.035 A 
ATOM     25  C3  UNL     1      17.308  10.352  19.565  0.00  0.00    +0.025 A 
ATOM     26  C4  UNL     1      18.021  11.484  19.975  0.00  0.00    +0.029 A 
ATOM     27  C5  UNL     1      19.419  11.547  19.821  0.00  0.00    +0.067 A 
ATOM     28  C8  UNL     1      20.081  10.450  19.237  0.00  0.00    +0.029 A 
ATOM     29  C9  UNL     1      19.365   9.320  18.827  0.00  0.00    +0.025 A 
BRANCH  27  30
ATOM     30  N2  UNL     1      20.172  12.710  20.227  0.00  0.00    -0.220 N 
ATOM     31  C6  UNL     1      21.509  12.890  20.210  0.00  0.00    +0.225 A 
ATOM     32  N3  UNL     1      21.849  14.103  20.683  0.00  0.00    -0.222 NA
ATOM     33  C7  UNL     1      20.649  14.645  20.986  0.00  0.00    +0.245 A 
ATOM     34  N4  UNL     1      19.627  13.812  20.714  0.00  0.00    -0.154 NA
ENDBRANCH  27  30
ENDBRANCH   3  24
TORSDOF 4
ENDMDL
