MODEL 1
REMARK VINA RESULT:    -6.133      0.000      0.000
REMARK INTER + INTRA:          -7.864
REMARK INTER:                  -7.209
REMARK INTRA:                  -0.655
REMARK UNBOUND:                -0.655
REMARK  Name = /home/qwerty/github/datacon2025hack/step_04_hit_selection/docking/ligands/lig_485.pdb
REMARK  5 active torsions:
REMARK  status: ('A' for Active; 'I' for Inactive)
REMARK    1  A    between atoms: C1_1  and  C2_2
REMARK    2  A    between atoms: C2_2  and  C3_3
REMARK    3  A    between atoms: C2_2  and  N1_4
REMARK    4  A    between atoms: C7_8  and  C8_9
REMARK    5  A    between atoms: C13_17  and  C14_19
REMARK                            x       y       z     vdW  Elec       q    Type
REMARK                         _______ _______ _______ _____ _____    ______ ____
ROOT
ATOM      1  C8  UNL     1      21.921   5.630  32.531  0.00  0.00    +0.233 C 
ATOM      2  O1  UNL     1      22.817   5.867  31.678  0.00  0.00    -0.274 OA
ATOM      3  N2  UNL     1      21.593   4.276  32.848  0.00  0.00    -0.295 N 
ATOM      4  C9  UNL     1      20.741   3.546  33.811  0.00  0.00    +0.113 C 
ATOM      5  C10 UNL     1      21.086   2.172  33.319  0.00  0.00    +0.030 C 
ATOM      6  C11 UNL     1      19.929   1.395  32.665  0.00  0.00    +0.026 C 
ATOM      7  C12 UNL     1      20.470   0.543  31.512  0.00  0.00    +0.108 C 
ATOM      8  N3  UNL     1      21.264   1.352  30.572  0.00  0.00    -0.294 N 
ATOM      9  C13 UNL     1      21.722   0.740  29.352  0.00  0.00    +0.266 C 
ATOM     10  O2  UNL     1      22.057  -0.476  29.360  0.00  0.00    -0.268 OA
ATOM     11  C17 UNL     1      21.554   2.764  30.869  0.00  0.00    +0.131 C 
ATOM     12  C18 UNL     1      21.949   2.934  32.350  0.00  0.00    +0.098 C 
ENDROOT
BRANCH   1  17
ATOM     13  N1  UNL     1      22.055   7.335  34.265  0.00  0.00    -0.289 NA
ATOM     14  C4  UNL     1      21.823   8.782  34.270  0.00  0.00    +0.085 C 
ATOM     15  C5  UNL     1      21.534   9.157  32.831  0.00  0.00    +0.017 C 
ATOM     16  C6  UNL     1      20.914   7.911  32.218  0.00  0.00    +0.029 C 
ATOM     17  C7  UNL     1      21.211   6.772  33.203  0.00  0.00    +0.144 C 
BRANCH  13  19
ATOM     18  C1  UNL     1      20.820   7.117  36.482  0.00  0.00    +0.024 C 
ATOM     19  C2  UNL     1      21.964   6.631  35.570  0.00  0.00    +0.051 C 
ATOM     20  C3  UNL     1      23.308   6.720  36.297  0.00  0.00    +0.024 C 
ENDBRANCH  13  19
ENDBRANCH   1  17
BRANCH   9  21
ATOM     21  C14 UNL     1      21.778   1.490  28.078  0.00  0.00    +0.135 A 
ATOM     22  C15 UNL     1      20.757   1.410  27.102  0.00  0.00    +0.042 A 
ATOM     23  C16 UNL     1      20.982   2.208  25.989  0.00  0.00    +0.067 A 
ATOM     24  S1  UNL     1      22.432   2.965  26.301  0.00  0.00    +0.004 S 
ATOM     25  N4  UNL     1      22.804   2.334  27.790  0.00  0.00    -0.206 NA
ENDBRANCH   9  21
TORSDOF 3
ENDMDL
MODEL 2
REMARK VINA RESULT:    -5.926     14.320     15.163
REMARK INTER + INTRA:          -7.620
REMARK INTER:                  -6.843
REMARK INTRA:                  -0.777
REMARK UNBOUND:                -0.655
REMARK  Name = /home/qwerty/github/datacon2025hack/step_04_hit_selection/docking/ligands/lig_485.pdb
REMARK  5 active torsions:
REMARK  status: ('A' for Active; 'I' for Inactive)
REMARK    1  A    between atoms: C1_1  and  C2_2
REMARK    2  A    between atoms: C2_2  and  C3_3
REMARK    3  A    between atoms: C2_2  and  N1_4
REMARK    4  A    between atoms: C7_8  and  C8_9
REMARK    5  A    between atoms: C13_17  and  C14_19
REMARK                            x       y       z     vdW  Elec       q    Type
REMARK                         _______ _______ _______ _____ _____    ______ ____
ROOT
ATOM      1  C8  UNL     1       8.624   9.843  26.401  0.00  0.00    +0.233 C 
ATOM      2  O1  UNL     1       7.510   9.304  26.174  0.00  0.00    -0.274 OA
ATOM      3  N2  UNL     1       9.568   9.980  25.336  0.00  0.00    -0.295 N 
ATOM      4  C9  UNL     1      10.885  10.612  25.107  0.00  0.00    +0.113 C 
ATOM      5  C10 UNL     1      11.026  10.172  23.680  0.00  0.00    +0.030 C 
ATOM      6  C11 UNL     1      12.161   9.168  23.407  0.00  0.00    +0.026 C 
ATOM      7  C12 UNL     1      11.724   8.182  22.319  0.00  0.00    +0.108 C 
ATOM      8  N3  UNL     1      10.430   7.559  22.647  0.00  0.00    -0.294 N 
ATOM      9  C13 UNL     1       9.943   6.496  21.805  0.00  0.00    +0.266 C 
ATOM     10  O2  UNL     1      10.170   6.539  20.565  0.00  0.00    -0.268 OA
ATOM     11  C17 UNL     1       9.670   8.000  23.827  0.00  0.00    +0.131 C 
ATOM     12  C18 UNL     1       9.685   9.539  23.933  0.00  0.00    +0.098 C 
ENDROOT
BRANCH   1  17
ATOM     13  N1  UNL     1       8.207  11.574  28.062  0.00  0.00    -0.289 NA
ATOM     14  C4  UNL     1       7.835  11.536  29.480  0.00  0.00    +0.085 C 
ATOM     15  C5  UNL     1       7.621  10.072  29.810  0.00  0.00    +0.017 C 
ATOM     16  C6  UNL     1       8.536   9.318  28.857  0.00  0.00    +0.029 C 
ATOM     17  C7  UNL     1       8.947  10.336  27.784  0.00  0.00    +0.144 C 
BRANCH  13  19
ATOM     18  C1  UNL     1      10.131  13.220  28.340  0.00  0.00    +0.024 C 
ATOM     19  C2  UNL     1       8.860  12.813  27.569  0.00  0.00    +0.051 C 
ATOM     20  C3  UNL     1       7.845  13.959  27.559  0.00  0.00    +0.024 C 
ENDBRANCH  13  19
ENDBRANCH   1  17
BRANCH   9  21
ATOM     21  C14 UNL     1       9.213   5.336  22.361  0.00  0.00    +0.135 A 
ATOM     22  C15 UNL     1       7.801   5.254  22.362  0.00  0.00    +0.042 A 
ATOM     23  C16 UNL     1       7.308   4.076  22.904  0.00  0.00    +0.067 A 
ATOM     24  S1  UNL     1       8.665   3.212  23.336  0.00  0.00    +0.004 S 
ATOM     25  N4  UNL     1       9.866   4.258  22.871  0.00  0.00    -0.206 NA
ENDBRANCH   9  21
TORSDOF 3
ENDMDL
MODEL 3
REMARK VINA RESULT:    -5.870      4.623     10.021
REMARK INTER + INTRA:          -7.554
REMARK INTER:                  -6.783
REMARK INTRA:                  -0.771
REMARK UNBOUND:                -0.655
REMARK  Name = /home/qwerty/github/datacon2025hack/step_04_hit_selection/docking/ligands/lig_485.pdb
REMARK  5 active torsions:
REMARK  status: ('A' for Active; 'I' for Inactive)
REMARK    1  A    between atoms: C1_1  and  C2_2
REMARK    2  A    between atoms: C2_2  and  C3_3
REMARK    3  A    between atoms: C2_2  and  N1_4
REMARK    4  A    between atoms: C7_8  and  C8_9
REMARK    5  A    between atoms: C13_17  and  C14_19
REMARK                            x       y       z     vdW  Elec       q    Type
REMARK                         _______ _______ _______ _____ _____    ______ ____
ROOT
ATOM      1  C8  UNL     1      17.248   0.398  25.518  0.00  0.00    +0.233 C 
ATOM      2  O1  UNL     1      17.204  -0.486  26.413  0.00  0.00    -0.274 OA
ATOM      3  N2  UNL     1      18.511   0.941  25.128  0.00  0.00    -0.295 N 
ATOM      4  C9  UNL     1      19.044   1.862  24.103  0.00  0.00    +0.113 C 
ATOM      5  C10 UNL     1      20.475   1.784  24.546  0.00  0.00    +0.030 C 
ATOM      6  C11 UNL     1      21.061   3.086  25.121  0.00  0.00    +0.026 C 
ATOM      7  C12 UNL     1      22.037   2.753  26.255  0.00  0.00    +0.108 C 
ATOM      8  N3  UNL     1      21.414   1.874  27.259  0.00  0.00    -0.294 N 
ATOM      9  C13 UNL     1      22.141   1.584  28.468  0.00  0.00    +0.266 C 
ATOM     10  O2  UNL     1      23.396   1.465  28.419  0.00  0.00    -0.268 OA
ATOM     11  C17 UNL     1      20.065   1.330  27.036  0.00  0.00    +0.131 C 
ATOM     12  C18 UNL     1      19.912   0.846  25.580  0.00  0.00    +0.098 C 
ENDROOT
BRANCH   1  17
ATOM     13  N1  UNL     1      15.572  -0.068  23.813  0.00  0.00    -0.289 NA
ATOM     14  C4  UNL     1      14.108  -0.128  23.834  0.00  0.00    +0.085 C 
ATOM     15  C5  UNL     1      13.709   0.075  25.282  0.00  0.00    +0.017 C 
ATOM     16  C6  UNL     1      14.818   0.930  25.877  0.00  0.00    +0.029 C 
ATOM     17  C7  UNL     1      15.975   0.868  24.871  0.00  0.00    +0.144 C 
BRANCH  13  19
ATOM     18  C1  UNL     1      15.274   0.702  21.403  0.00  0.00    +0.024 C 
ATOM     19  C2  UNL     1      16.219   0.165  22.497  0.00  0.00    +0.051 C 
ATOM     20  C3  UNL     1      16.911  -1.118  22.029  0.00  0.00    +0.024 C 
ENDBRANCH  13  19
ENDBRANCH   1  17
BRANCH   9  21
ATOM     21  C14 UNL     1      21.460   1.456  29.775  0.00  0.00    +0.135 A 
ATOM     22  C15 UNL     1      21.104   2.577  30.561  0.00  0.00    +0.042 A 
ATOM     23  C16 UNL     1      20.451   2.249  31.740  0.00  0.00    +0.067 A 
ATOM     24  S1  UNL     1      20.353   0.587  31.719  0.00  0.00    +0.004 S 
ATOM     25  N4  UNL     1      21.102   0.245  30.279  0.00  0.00    -0.206 NA
ENDBRANCH   9  21
TORSDOF 3
ENDMDL
MODEL 4
REMARK VINA RESULT:    -5.856     11.821     13.968
REMARK INTER + INTRA:          -7.537
REMARK INTER:                  -6.784
REMARK INTRA:                  -0.753
REMARK UNBOUND:                -0.655
REMARK  Name = /home/qwerty/github/datacon2025hack/step_04_hit_selection/docking/ligands/lig_485.pdb
REMARK  5 active torsions:
REMARK  status: ('A' for Active; 'I' for Inactive)
REMARK    1  A    between atoms: C1_1  and  C2_2
REMARK    2  A    between atoms: C2_2  and  C3_3
REMARK    3  A    between atoms: C2_2  and  N1_4
REMARK    4  A    between atoms: C7_8  and  C8_9
REMARK    5  A    between atoms: C13_17  and  C14_19
REMARK                            x       y       z     vdW  Elec       q    Type
REMARK                         _______ _______ _______ _____ _____    ______ ____
ROOT
ATOM      1  C8  UNL     1      12.094  11.979  33.339  0.00  0.00    +0.233 C 
ATOM      2  O1  UNL     1      10.975  11.511  33.676  0.00  0.00    -0.274 OA
ATOM      3  N2  UNL     1      12.156  13.004  32.345  0.00  0.00    -0.295 N 
ATOM      4  C9  UNL     1      13.172  13.892  31.740  0.00  0.00    +0.113 C 
ATOM      5  C10 UNL     1      12.237  14.582  30.793  0.00  0.00    +0.030 C 
ATOM      6  C11 UNL     1      12.492  14.313  29.298  0.00  0.00    +0.026 C 
ATOM      7  C12 UNL     1      11.155  14.263  28.551  0.00  0.00    +0.108 C 
ATOM      8  N3  UNL     1      10.218  13.321  29.185  0.00  0.00    -0.294 N 
ATOM      9  C13 UNL     1       8.969  13.040  28.525  0.00  0.00    +0.266 C 
ATOM     10  O2  UNL     1       8.387  13.961  27.890  0.00  0.00    -0.268 OA
ATOM     11  C17 UNL     1      10.571  12.663  30.453  0.00  0.00    +0.131 C 
ATOM     12  C18 UNL     1      11.218  13.673  31.423  0.00  0.00    +0.098 C 
ENDROOT
BRANCH   1  17
ATOM     13  N1  UNL     1      13.497  12.031  35.329  0.00  0.00    -0.289 NA
ATOM     14  C4  UNL     1      14.078  10.985  36.175  0.00  0.00    +0.085 C 
ATOM     15  C5  UNL     1      13.545   9.674  35.632  0.00  0.00    +0.017 C 
ATOM     16  C6  UNL     1      13.302   9.932  34.153  0.00  0.00    +0.029 C 
ATOM     17  C7  UNL     1      13.347  11.456  33.985  0.00  0.00    +0.144 C 
BRANCH  13  19
ATOM     18  C1  UNL     1      15.512  13.436  34.654  0.00  0.00    +0.024 C 
ATOM     19  C2  UNL     1      14.145  13.366  35.365  0.00  0.00    +0.051 C 
ATOM     20  C3  UNL     1      14.267  13.839  36.816  0.00  0.00    +0.024 C 
ENDBRANCH  13  19
ENDBRANCH   1  17
BRANCH   9  21
ATOM     21  C14 UNL     1       8.366  11.690  28.542  0.00  0.00    +0.135 A 
ATOM     22  C15 UNL     1       8.548  10.761  27.490  0.00  0.00    +0.042 A 
ATOM     23  C16 UNL     1       7.923   9.541  27.705  0.00  0.00    +0.067 A 
ATOM     24  S1  UNL     1       7.195   9.699  29.195  0.00  0.00    +0.004 S 
ATOM     25  N4  UNL     1       7.629  11.249  29.595  0.00  0.00    -0.206 NA
ENDBRANCH   9  21
TORSDOF 3
ENDMDL
MODEL 5
REMARK VINA RESULT:    -5.827     11.358     14.861
REMARK INTER + INTRA:          -7.503
REMARK INTER:                  -6.722
REMARK INTRA:                  -0.781
REMARK UNBOUND:                -0.655
REMARK  Name = /home/qwerty/github/datacon2025hack/step_04_hit_selection/docking/ligands/lig_485.pdb
REMARK  5 active torsions:
REMARK  status: ('A' for Active; 'I' for Inactive)
REMARK    1  A    between atoms: C1_1  and  C2_2
REMARK    2  A    between atoms: C2_2  and  C3_3
REMARK    3  A    between atoms: C2_2  and  N1_4
REMARK    4  A    between atoms: C7_8  and  C8_9
REMARK    5  A    between atoms: C13_17  and  C14_19
REMARK                            x       y       z     vdW  Elec       q    Type
REMARK                         _______ _______ _______ _____ _____    ______ ____
ROOT
ATOM      1  C8  UNL     1      10.503   3.219  21.901  0.00  0.00    +0.233 C 
ATOM      2  O1  UNL     1      10.358   2.009  22.220  0.00  0.00    -0.274 OA
ATOM      3  N2  UNL     1      11.506   3.579  20.949  0.00  0.00    -0.295 N 
ATOM      4  C9  UNL     1      11.947   4.786  20.218  0.00  0.00    +0.113 C 
ATOM      5  C10 UNL     1      13.074   4.124  19.483  0.00  0.00    +0.030 C 
ATOM      6  C11 UNL     1      14.486   4.603  19.866  0.00  0.00    +0.026 C 
ATOM      7  C12 UNL     1      15.462   3.424  19.808  0.00  0.00    +0.108 C 
ATOM      8  N3  UNL     1      14.975   2.283  20.601  0.00  0.00    -0.294 N 
ATOM      9  C13 UNL     1      15.841   1.146  20.777  0.00  0.00    +0.266 C 
ATOM     10  O2  UNL     1      16.605   0.801  19.834  0.00  0.00    -0.268 OA
ATOM     11  C17 UNL     1      13.640   2.324  21.219  0.00  0.00    +0.131 C 
ATOM     12  C18 UNL     1      12.607   2.906  20.234  0.00  0.00    +0.098 C 
ENDROOT
BRANCH   1  17
ATOM     13  N1  UNL     1       8.294   4.245  21.890  0.00  0.00    -0.289 NA
ATOM     14  C4  UNL     1       7.317   4.536  22.943  0.00  0.00    +0.085 C 
ATOM     15  C5  UNL     1       7.897   3.951  24.215  0.00  0.00    +0.017 C 
ATOM     16  C6  UNL     1       9.405   4.006  24.020  0.00  0.00    +0.029 C 
ATOM     17  C7  UNL     1       9.620   4.265  22.523  0.00  0.00    +0.144 C 
BRANCH  13  19
ATOM     18  C1  UNL     1       8.903   6.402  20.679  0.00  0.00    +0.024 C 
ATOM     19  C2  UNL     1       8.191   5.035  20.637  0.00  0.00    +0.051 C 
ATOM     20  C3  UNL     1       6.718   5.205  20.256  0.00  0.00    +0.024 C 
ENDBRANCH  13  19
ENDBRANCH   1  17
BRANCH   9  21
ATOM     21  C14 UNL     1      15.884   0.390  22.048  0.00  0.00    +0.135 A 
ATOM     22  C15 UNL     1      16.618   0.835  23.173  0.00  0.00    +0.042 A 
ATOM     23  C16 UNL     1      16.512  -0.001  24.276  0.00  0.00    +0.067 A 
ATOM     24  S1  UNL     1      15.505  -1.230  23.778  0.00  0.00    +0.004 S 
ATOM     25  N4  UNL     1      15.186  -0.764  22.218  0.00  0.00    -0.206 NA
ENDBRANCH   9  21
TORSDOF 3
ENDMDL
MODEL 6
REMARK VINA RESULT:    -5.818     13.958     16.547
REMARK INTER + INTRA:          -7.493
REMARK INTER:                  -6.802
REMARK INTRA:                  -0.691
REMARK UNBOUND:                -0.655
REMARK  Name = /home/qwerty/github/datacon2025hack/step_04_hit_selection/docking/ligands/lig_485.pdb
REMARK  5 active torsions:
REMARK  status: ('A' for Active; 'I' for Inactive)
REMARK    1  A    between atoms: C1_1  and  C2_2
REMARK    2  A    between atoms: C2_2  and  C3_3
REMARK    3  A    between atoms: C2_2  and  N1_4
REMARK    4  A    between atoms: C7_8  and  C8_9
REMARK    5  A    between atoms: C13_17  and  C14_19
REMARK                            x       y       z     vdW  Elec       q    Type
REMARK                         _______ _______ _______ _____ _____    ______ ____
ROOT
ATOM      1  C8  UNL     1       9.643   9.104  24.465  0.00  0.00    +0.233 C 
ATOM      2  O1  UNL     1       9.965  10.224  23.990  0.00  0.00    -0.274 OA
ATOM      3  N2  UNL     1       8.677   9.038  25.517  0.00  0.00    -0.295 N 
ATOM      4  C9  UNL     1       7.940   8.003  26.271  0.00  0.00    +0.113 C 
ATOM      5  C10 UNL     1       7.190   8.954  27.156  0.00  0.00    +0.030 C 
ATOM      6  C11 UNL     1       7.554   8.893  28.651  0.00  0.00    +0.026 C 
ATOM      7  C12 UNL     1       7.484  10.299  29.254  0.00  0.00    +0.108 C 
ATOM      8  N3  UNL     1       8.285  11.259  28.475  0.00  0.00    -0.294 N 
ATOM      9  C13 UNL     1       8.450  12.595  28.988  0.00  0.00    +0.266 C 
ATOM     10  O2  UNL     1       7.498  13.138  29.611  0.00  0.00    -0.268 OA
ATOM     11  C17 UNL     1       8.921  10.845  27.215  0.00  0.00    +0.131 C 
ATOM     12  C18 UNL     1       7.949   9.992  26.375  0.00  0.00    +0.098 C 
ENDROOT
BRANCH   1  17
ATOM     13  N1  UNL     1       9.675   7.508  22.626  0.00  0.00    -0.289 NA
ATOM     14  C4  UNL     1      10.748   6.956  21.795  0.00  0.00    +0.085 C 
ATOM     15  C5  UNL     1      12.012   7.675  22.223  0.00  0.00    +0.017 C 
ATOM     16  C6  UNL     1      11.780   8.038  23.682  0.00  0.00    +0.029 C 
ATOM     17  C7  UNL     1      10.275   7.853  23.921  0.00  0.00    +0.144 C 
BRANCH  13  19
ATOM     18  C1  UNL     1       8.585   5.302  23.284  0.00  0.00    +0.024 C 
ATOM     19  C2  UNL     1       8.417   6.724  22.712  0.00  0.00    +0.051 C 
ATOM     20  C3  UNL     1       7.745   6.677  21.338  0.00  0.00    +0.024 C 
ENDBRANCH  13  19
ENDBRANCH   1  17
BRANCH   9  21
ATOM     21  C14 UNL     1       9.721  13.335  28.833  0.00  0.00    +0.135 A 
ATOM     22  C15 UNL     1      10.683  13.423  29.867  0.00  0.00    +0.042 A 
ATOM     23  C16 UNL     1      11.818  14.140  29.517  0.00  0.00    +0.067 A 
ATOM     24  S1  UNL     1      11.551  14.608  27.942  0.00  0.00    +0.004 S 
ATOM     25  N4  UNL     1      10.055  13.947  27.665  0.00  0.00    -0.206 NA
ENDBRANCH   9  21
TORSDOF 3
ENDMDL
MODEL 7
REMARK VINA RESULT:    -5.600      1.880      2.953
REMARK INTER + INTRA:          -7.236
REMARK INTER:                  -6.573
REMARK INTRA:                  -0.663
REMARK UNBOUND:                -0.655
REMARK  Name = /home/qwerty/github/datacon2025hack/step_04_hit_selection/docking/ligands/lig_485.pdb
REMARK  5 active torsions:
REMARK  status: ('A' for Active; 'I' for Inactive)
REMARK    1  A    between atoms: C1_1  and  C2_2
REMARK    2  A    between atoms: C2_2  and  C3_3
REMARK    3  A    between atoms: C2_2  and  N1_4
REMARK    4  A    between atoms: C7_8  and  C8_9
REMARK    5  A    between atoms: C13_17  and  C14_19
REMARK                            x       y       z     vdW  Elec       q    Type
REMARK                         _______ _______ _______ _____ _____    ______ ____
ROOT
ATOM      1  C8  UNL     1      23.277   6.101  33.686  0.00  0.00    +0.233 C 
ATOM      2  O1  UNL     1      24.303   5.525  33.238  0.00  0.00    -0.274 OA
ATOM      3  N2  UNL     1      22.100   5.335  33.950  0.00  0.00    -0.295 N 
ATOM      4  C9  UNL     1      20.765   5.538  34.553  0.00  0.00    +0.113 C 
ATOM      5  C10 UNL     1      20.278   4.136  34.339  0.00  0.00    +0.030 C 
ATOM      6  C11 UNL     1      19.114   3.985  33.343  0.00  0.00    +0.026 C 
ATOM      7  C12 UNL     1      19.273   2.677  32.562  0.00  0.00    +0.108 C 
ATOM      8  N3  UNL     1      20.609   2.574  31.951  0.00  0.00    -0.294 N 
ATOM      9  C13 UNL     1      20.876   1.477  31.057  0.00  0.00    +0.266 C 
ATOM     10  O2  UNL     1      20.351   0.353  31.286  0.00  0.00    -0.268 OA
ATOM     11  C17 UNL     1      21.634   3.592  32.232  0.00  0.00    +0.131 C 
ATOM     12  C18 UNL     1      21.642   3.949  33.732  0.00  0.00    +0.098 C 
ENDROOT
BRANCH   1  17
ATOM     13  N1  UNL     1      22.389   8.267  33.015  0.00  0.00    -0.289 NA
ATOM     14  C4  UNL     1      21.791   9.380  33.757  0.00  0.00    +0.085 C 
ATOM     15  C5  UNL     1      21.696   8.912  35.195  0.00  0.00    +0.017 C 
ATOM     16  C6  UNL     1      22.838   7.922  35.362  0.00  0.00    +0.029 C 
ATOM     17  C7  UNL     1      23.303   7.583  33.939  0.00  0.00    +0.144 C 
BRANCH  13  19
ATOM     18  C1  UNL     1      24.334   9.289  31.726  0.00  0.00    +0.024 C 
ATOM     19  C2  UNL     1      22.967   8.577  31.683  0.00  0.00    +0.051 C 
ATOM     20  C3  UNL     1      21.962   9.388  30.862  0.00  0.00    +0.024 C 
ENDBRANCH  13  19
ENDBRANCH   1  17
BRANCH   9  21
ATOM     21  C14 UNL     1      21.723   1.641  29.855  0.00  0.00    +0.135 A 
ATOM     22  C15 UNL     1      23.011   1.066  29.748  0.00  0.00    +0.042 A 
ATOM     23  C16 UNL     1      23.635   1.313  28.533  0.00  0.00    +0.067 A 
ATOM     24  S1  UNL     1      22.536   2.222  27.673  0.00  0.00    +0.004 S 
ATOM     25  N4  UNL     1      21.291   2.327  28.764  0.00  0.00    -0.206 NA
ENDBRANCH   9  21
TORSDOF 3
ENDMDL
MODEL 8
REMARK VINA RESULT:    -5.505      5.266      8.548
REMARK INTER + INTRA:          -7.126
REMARK INTER:                  -6.462
REMARK INTRA:                  -0.664
REMARK UNBOUND:                -0.655
REMARK  Name = /home/qwerty/github/datacon2025hack/step_04_hit_selection/docking/ligands/lig_485.pdb
REMARK  5 active torsions:
REMARK  status: ('A' for Active; 'I' for Inactive)
REMARK    1  A    between atoms: C1_1  and  C2_2
REMARK    2  A    between atoms: C2_2  and  C3_3
REMARK    3  A    between atoms: C2_2  and  N1_4
REMARK    4  A    between atoms: C7_8  and  C8_9
REMARK    5  A    between atoms: C13_17  and  C14_19
REMARK                            x       y       z     vdW  Elec       q    Type
REMARK                         _______ _______ _______ _____ _____    ______ ____
ROOT
ATOM      1  C8  UNL     1      21.264   7.304  32.694  0.00  0.00    +0.233 C 
ATOM      2  O1  UNL     1      20.377   7.775  31.935  0.00  0.00    -0.274 OA
ATOM      3  N2  UNL     1      20.956   7.061  34.068  0.00  0.00    -0.295 N 
ATOM      4  C9  UNL     1      21.599   6.446  35.249  0.00  0.00    +0.113 C 
ATOM      5  C10 UNL     1      20.467   6.703  36.199  0.00  0.00    +0.030 C 
ATOM      6  C11 UNL     1      20.769   7.698  37.334  0.00  0.00    +0.026 C 
ATOM      7  C12 UNL     1      19.515   8.522  37.642  0.00  0.00    +0.108 C 
ATOM      8  N3  UNL     1      18.966   9.142  36.424  0.00  0.00    -0.294 N 
ATOM      9  C13 UNL     1      17.874  10.071  36.555  0.00  0.00    +0.266 C 
ATOM     10  O2  UNL     1      17.001   9.876  37.445  0.00  0.00    -0.268 OA
ATOM     11  C17 UNL     1      19.545   8.832  35.107  0.00  0.00    +0.131 C 
ATOM     12  C18 UNL     1      19.829   7.322  34.984  0.00  0.00    +0.098 C 
ENDROOT
BRANCH   1  17
ATOM     13  N1  UNL     1      23.644   7.790  32.866  0.00  0.00    -0.289 NA
ATOM     14  C4  UNL     1      24.836   6.943  32.979  0.00  0.00    +0.085 C 
ATOM     15  C5  UNL     1      24.322   5.522  33.083  0.00  0.00    +0.017 C 
ATOM     16  C6  UNL     1      23.002   5.526  32.328  0.00  0.00    +0.029 C 
ATOM     17  C7  UNL     1      22.632   7.004  32.147  0.00  0.00    +0.144 C 
BRANCH  13  19
ATOM     18  C1  UNL     1      23.388   9.382  30.895  0.00  0.00    +0.024 C 
ATOM     19  C2  UNL     1      23.842   9.169  32.352  0.00  0.00    +0.051 C 
ATOM     20  C3  UNL     1      25.307   9.576  32.526  0.00  0.00    +0.024 C 
ENDBRANCH  13  19
ENDBRANCH   1  17
BRANCH   9  21
ATOM     21  C14 UNL     1      17.765  11.270  35.696  0.00  0.00    +0.135 A 
ATOM     22  C15 UNL     1      16.771  11.404  34.698  0.00  0.00    +0.042 A 
ATOM     23  C16 UNL     1      16.820  12.612  34.017  0.00  0.00    +0.067 A 
ATOM     24  S1  UNL     1      18.092  13.434  34.710  0.00  0.00    +0.004 S 
ATOM     25  N4  UNL     1      18.598  12.334  35.845  0.00  0.00    -0.206 NA
ENDBRANCH   9  21
TORSDOF 3
ENDMDL
MODEL 9
REMARK VINA RESULT:    -5.493     12.919     14.184
REMARK INTER + INTRA:          -7.111
REMARK INTER:                  -6.304
REMARK INTRA:                  -0.807
REMARK UNBOUND:                -0.655
REMARK  Name = /home/qwerty/github/datacon2025hack/step_04_hit_selection/docking/ligands/lig_485.pdb
REMARK  5 active torsions:
REMARK  status: ('A' for Active; 'I' for Inactive)
REMARK    1  A    between atoms: C1_1  and  C2_2
REMARK    2  A    between atoms: C2_2  and  C3_3
REMARK    3  A    between atoms: C2_2  and  N1_4
REMARK    4  A    between atoms: C7_8  and  C8_9
REMARK    5  A    between atoms: C13_17  and  C14_19
REMARK                            x       y       z     vdW  Elec       q    Type
REMARK                         _______ _______ _______ _____ _____    ______ ____
ROOT
ATOM      1  C8  UNL     1      12.141  12.371  27.991  0.00  0.00    +0.233 C 
ATOM      2  O1  UNL     1      12.683  11.654  27.110  0.00  0.00    -0.274 OA
ATOM      3  N2  UNL     1      11.042  11.851  28.742  0.00  0.00    -0.295 N 
ATOM      4  C9  UNL     1      10.205  12.254  29.892  0.00  0.00    +0.113 C 
ATOM      5  C10 UNL     1       9.331  11.035  29.888  0.00  0.00    +0.030 C 
ATOM      6  C11 UNL     1       7.854  11.282  29.529  0.00  0.00    +0.026 C 
ATOM      7  C12 UNL     1       7.315  10.093  28.727  0.00  0.00    +0.108 C 
ATOM      8  N3  UNL     1       8.176   9.788  27.572  0.00  0.00    -0.294 N 
ATOM      9  C13 UNL     1       7.735   8.795  26.627  0.00  0.00    +0.266 C 
ATOM     10  O2  UNL     1       7.093   7.792  27.041  0.00  0.00    -0.268 OA
ATOM     11  C17 UNL     1       9.445  10.509  27.381  0.00  0.00    +0.131 C 
ATOM     12  C18 UNL     1      10.196  10.642  28.721  0.00  0.00    +0.098 C 
ENDROOT
BRANCH   1  17
ATOM     13  N1  UNL     1      14.087  13.717  28.567  0.00  0.00    -0.289 NA
ATOM     14  C4  UNL     1      14.694  14.911  27.970  0.00  0.00    +0.085 C 
ATOM     15  C5  UNL     1      13.897  15.193  26.713  0.00  0.00    +0.017 C 
ATOM     16  C6  UNL     1      12.505  14.653  27.002  0.00  0.00    +0.029 C 
ATOM     17  C7  UNL     1      12.655  13.762  28.242  0.00  0.00    +0.144 C 
BRANCH  13  19
ATOM     18  C1  UNL     1      13.393  14.059  30.994  0.00  0.00    +0.024 C 
ATOM     19  C2  UNL     1      14.394  13.446  29.994  0.00  0.00    +0.051 C 
ATOM     20  C3  UNL     1      15.820  13.903  30.309  0.00  0.00    +0.024 C 
ENDBRANCH  13  19
ENDBRANCH   1  17
BRANCH   9  21
ATOM     21  C14 UNL     1       7.986   8.937  25.176  0.00  0.00    +0.135 A 
ATOM     22  C15 UNL     1       7.497  10.029  24.422  0.00  0.00    +0.042 A 
ATOM     23  C16 UNL     1       7.861   9.993  23.083  0.00  0.00    +0.067 A 
ATOM     24  S1  UNL     1       8.774   8.608  22.932  0.00  0.00    +0.004 S 
ATOM     25  N4  UNL     1       8.738   8.036  24.489  0.00  0.00    -0.206 NA
ENDBRANCH   9  21
TORSDOF 3
ENDMDL
