REMARK  Name = /home/qwerty/github/datacon2025hack/step_04_hit_selection/docking/ligands/lig_238.pdb
REMARK  4 active torsions:
REMARK  status: ('A' for Active; 'I' for Inactive)
REMARK    1  A    between atoms: C1_2  and  C21_29
REMARK    2  A    between atoms: N1_3  and  C2_4
REMARK    3  A    between atoms: C6_10  and  C7_11
REMARK    4  A    between atoms: C9_14  and  C10_15
REMARK                            x       y       z     vdW  Elec       q    Type
REMARK                         _______ _______ _______ _____ _____    ______ ____
ROOT
ATOM      1  C2  UNL     1       3.465   0.728   1.508  0.00  0.00    +0.034 A 
ATOM      2  C3  UNL     1       3.596   1.432   2.733  0.00  0.00    +0.025 A 
ATOM      3  C4  UNL     1       2.475   2.003   3.360  0.00  0.00    +0.029 A 
ATOM      4  C5  UNL     1       1.245   1.879   2.723  0.00  0.00    +0.067 A 
ATOM      5  N2  UNL     1       0.047   2.308   3.148  0.00  0.00    -0.276 N 
ATOM      6  N3  UNL     1      -0.867   1.964   2.249  0.00  0.00    -0.170 NA
ATOM      7  C6  UNL     1      -0.245   1.319   1.232  0.00  0.00    +0.135 A 
ATOM      8  C19 UNL     1       1.109   1.242   1.521  0.00  0.00    +0.032 A 
ATOM      9  C20 UNL     1       2.195   0.638   0.886  0.00  0.00    +0.035 A 
ATOM     10  H4  UNL     1      -0.158   2.817   4.036  0.00  0.00    +0.189 HD
ENDROOT
BRANCH   7  11
ATOM     11  C7  UNL     1      -0.959   0.802   0.054  0.00  0.00    +0.160 A 
ATOM     12  N4  UNL     1      -2.280   0.484   0.090  0.00  0.00    -0.225 NA
ATOM     13  C8  UNL     1      -2.538   0.104  -1.176  0.00  0.00    +0.100 A 
ATOM     14  C9  UNL     1      -3.759  -0.302  -1.730  0.00  0.00    +0.028 A 
ATOM     15  C16 UNL     1      -3.755  -0.580  -3.118  0.00  0.00    +0.121 A 
ATOM     16  N5  UNL     1      -2.605  -0.451  -3.854  0.00  0.00    -0.260 NA
ATOM     17  C17 UNL     1      -1.426  -0.052  -3.293  0.00  0.00    +0.138 A 
ATOM     18  C18 UNL     1      -1.414   0.220  -1.932  0.00  0.00    +0.085 A 
ATOM     19  N6  UNL     1      -0.403   0.661  -1.176  0.00  0.00    -0.335 N 
ATOM     20  H11 UNL     1       0.560   0.909  -1.492  0.00  0.00    +0.167 HD
BRANCH  14  21
ATOM     21  C10 UNL     1      -4.996  -0.428  -0.921  0.00  0.00    -0.012 A 
ATOM     22  C11 UNL     1      -4.962  -1.022   0.354  0.00  0.00    +0.009 A 
ATOM     23  C12 UNL     1      -6.132  -1.141   1.111  0.00  0.00    +0.003 A 
ATOM     24  C13 UNL     1      -7.346  -0.672   0.603  0.00  0.00    +0.038 A 
ATOM     25  C14 UNL     1      -7.393  -0.085  -0.664  0.00  0.00    +0.124 A 
ATOM     26  F1  UNL     1      -8.572   0.371  -1.155  0.00  0.00    -0.205 F 
ATOM     27  C15 UNL     1      -6.225   0.036  -1.425  0.00  0.00    +0.047 A 
ENDBRANCH  14  21
ENDBRANCH   7  11
BRANCH   1  30
ATOM     28  O1  UNL     1       3.656  -1.852   0.220  0.00  0.00    -0.275 OA
ATOM     29  C1  UNL     1       4.611  -1.038   0.096  0.00  0.00    +0.220 C 
ATOM     30  N1  UNL     1       4.635   0.158   0.897  0.00  0.00    -0.285 N 
ATOM     31  H1  UNL     1       5.555   0.590   1.137  0.00  0.00    +0.155 HD
BRANCH  29  32
ATOM     32  C21 UNL     1       5.710  -1.391  -0.878  0.00  0.00    +0.075 C 
ATOM     33  C22 UNL     1       7.130  -1.276  -0.346  0.00  0.00    +0.013 C 
ATOM     34  C23 UNL     1       6.614  -0.266  -1.362  0.00  0.00    +0.013 C 
ENDBRANCH  29  32
ENDBRANCH   1  30
TORSDOF 4
