MODEL 1
REMARK VINA RESULT:    -6.941      0.000      0.000
REMARK INTER + INTRA:         -10.116
REMARK INTER:                  -9.376
REMARK INTRA:                  -0.740
REMARK UNBOUND:                -0.740
REMARK  Name = /home/qwerty/github/datacon2025hack/step_04_hit_selection/docking/ligands/lig_800.pdb
REMARK  7 active torsions:
REMARK  status: ('A' for Active; 'I' for Inactive)
REMARK    1  A    between atoms: C1_1  and  N1_2
REMARK    2  A    between atoms: C5_7  and  C6_8
REMARK    3  A    between atoms: C10_14  and  N4_15
REMARK    4  A    between atoms: C11_16  and  C12_18
REMARK    5  A    between atoms: C12_18  and  C13_19
REMARK    6  A    between atoms: C13_19  and  C14_20
REMARK    7  A    between atoms: C14_20  and  C15_21
REMARK                            x       y       z     vdW  Elec       q    Type
REMARK                         _______ _______ _______ _____ _____    ______ ____
ROOT
ATOM      1  C6  UNL     1       7.933   6.754  21.750  0.00  0.00    +0.248 C 
ATOM      2  O1  UNL     1       7.032   6.845  20.871  0.00  0.00    -0.270 OA
ATOM      3  N3  UNL     1       8.540   7.952  22.269  0.00  0.00    -0.296 N 
ATOM      4  C7  UNL     1       8.719   9.123  21.402  0.00  0.00    +0.108 C 
ATOM      5  C8  UNL     1       7.873  10.303  21.905  0.00  0.00    +0.021 C 
ATOM      6  C9  UNL     1       7.770  10.371  23.445  0.00  0.00    +0.025 C 
ATOM      7  C10 UNL     1       8.874   9.558  24.147  0.00  0.00    +0.090 C 
ATOM      8  C21 UNL     1       8.782   8.081  23.717  0.00  0.00    +0.130 C 
ENDROOT
BRANCH   1  15
ATOM      9  C1  UNL     1      10.268   0.710  23.231  0.00  0.00    +0.174 C 
ATOM     10  N1  UNL     1       9.392   1.769  23.713  0.00  0.00    -0.250 N 
ATOM     11  N2  UNL     1       8.787   1.766  24.897  0.00  0.00    -0.177 NA
ATOM     12  C2  UNL     1       8.107   2.934  25.029  0.00  0.00    +0.144 A 
ATOM     13  C3  UNL     1       8.311   3.686  23.890  0.00  0.00    +0.039 A 
ATOM     14  C4  UNL     1       7.891   4.949  23.498  0.00  0.00    +0.027 A 
ATOM     15  C5  UNL     1       8.328   5.415  22.236  0.00  0.00    +0.056 A 
ATOM     16  C22 UNL     1       9.189   4.595  21.454  0.00  0.00    +0.126 A 
ATOM     17  N5  UNL     1       9.571   3.358  21.898  0.00  0.00    -0.235 NA
ATOM     18  C23 UNL     1       9.118   2.930  23.102  0.00  0.00    +0.158 A 
ENDBRANCH   1  15
BRANCH   7  19
ATOM     19  N4  UNL     1       8.748   9.670  25.603  0.00  0.00    -0.311 N 
ATOM     20  C11 UNL     1       9.724  10.348  26.407  0.00  0.00    +0.213 C 
ATOM     21  O2  UNL     1      10.779  10.798  25.883  0.00  0.00    -0.276 OA
ATOM     22  H13 UNL     1       7.899   9.279  26.073  0.00  0.00    +0.149 HD
BRANCH  20  23
ATOM     23  C12 UNL     1       9.495  10.534  27.880  0.00  0.00    +0.096 C 
BRANCH  23  24
ATOM     24  C13 UNL     1       8.316  11.478  28.170  0.00  0.00    +0.014 C 
BRANCH  24  25
ATOM     25  C14 UNL     1       8.585  12.947  27.796  0.00  0.00    +0.035 C 
BRANCH  25  26
ATOM     26  C15 UNL     1       9.820  13.498  28.467  0.00  0.00    -0.047 A 
ATOM     27  C16 UNL     1       9.991  13.367  29.856  0.00  0.00    +0.003 A 
ATOM     28  C17 UNL     1      11.126  13.894  30.478  0.00  0.00    +0.000 A 
ATOM     29  C18 UNL     1      12.097  14.554  29.721  0.00  0.00    +0.000 A 
ATOM     30  C19 UNL     1      11.938  14.684  28.339  0.00  0.00    +0.000 A 
ATOM     31  C20 UNL     1      10.807  14.155  27.712  0.00  0.00    +0.003 A 
ENDBRANCH  25  26
ENDBRANCH  24  25
ENDBRANCH  23  24
ENDBRANCH  20  23
ENDBRANCH   7  19
TORSDOF 6
ENDMDL
MODEL 2
REMARK VINA RESULT:    -6.907      5.228     11.034
REMARK INTER + INTRA:         -10.069
REMARK INTER:                  -9.250
REMARK INTRA:                  -0.819
REMARK UNBOUND:                -0.740
REMARK  Name = /home/qwerty/github/datacon2025hack/step_04_hit_selection/docking/ligands/lig_800.pdb
REMARK  7 active torsions:
REMARK  status: ('A' for Active; 'I' for Inactive)
REMARK    1  A    between atoms: C1_1  and  N1_2
REMARK    2  A    between atoms: C5_7  and  C6_8
REMARK    3  A    between atoms: C10_14  and  N4_15
REMARK    4  A    between atoms: C11_16  and  C12_18
REMARK    5  A    between atoms: C12_18  and  C13_19
REMARK    6  A    between atoms: C13_19  and  C14_20
REMARK    7  A    between atoms: C14_20  and  C15_21
REMARK                            x       y       z     vdW  Elec       q    Type
REMARK                         _______ _______ _______ _____ _____    ______ ____
ROOT
ATOM      1  C6  UNL     1      12.955  14.259  30.724  0.00  0.00    +0.248 C 
ATOM      2  O1  UNL     1      14.168  14.569  30.568  0.00  0.00    -0.270 OA
ATOM      3  N3  UNL     1      12.069  14.267  29.589  0.00  0.00    -0.296 N 
ATOM      4  C7  UNL     1      12.265  15.241  28.508  0.00  0.00    +0.108 C 
ATOM      5  C8  UNL     1      12.629  14.528  27.197  0.00  0.00    +0.021 C 
ATOM      6  C9  UNL     1      11.919  13.167  27.021  0.00  0.00    +0.025 C 
ATOM      7  C10 UNL     1      10.683  13.024  27.929  0.00  0.00    +0.090 C 
ATOM      8  C21 UNL     1      11.107  13.166  29.405  0.00  0.00    +0.130 C 
ENDROOT
BRANCH   1  15
ATOM      9  C1  UNL     1      11.531  12.008  36.814  0.00  0.00    +0.174 C 
ATOM     10  N1  UNL     1      11.112  12.968  35.801  0.00  0.00    -0.250 N 
ATOM     11  N2  UNL     1      10.156  13.876  35.972  0.00  0.00    -0.177 NA
ATOM     12  C2  UNL     1      10.082  14.632  34.846  0.00  0.00    +0.144 A 
ATOM     13  C3  UNL     1      11.035  14.178  33.956  0.00  0.00    +0.039 A 
ATOM     14  C4  UNL     1      11.420  14.587  32.687  0.00  0.00    +0.027 A 
ATOM     15  C5  UNL     1      12.479  13.880  32.072  0.00  0.00    +0.056 A 
ATOM     16  C22 UNL     1      13.110  12.821  32.782  0.00  0.00    +0.126 A 
ATOM     17  N5  UNL     1      12.687  12.467  34.034  0.00  0.00    -0.235 NA
ATOM     18  C23 UNL     1      11.655  13.149  34.588  0.00  0.00    +0.158 A 
ENDBRANCH   1  15
BRANCH   7  19
ATOM     19  N4  UNL     1      10.033  11.729  27.712  0.00  0.00    -0.311 N 
ATOM     20  C11 UNL     1       8.639  11.617  27.390  0.00  0.00    +0.213 C 
ATOM     21  O2  UNL     1       7.905  12.641  27.373  0.00  0.00    -0.276 OA
ATOM     22  H13 UNL     1      10.608  10.856  27.752  0.00  0.00    +0.149 HD
BRANCH  20  23
ATOM     23  C12 UNL     1       8.043  10.276  27.067  0.00  0.00    +0.096 C 
BRANCH  23  24
ATOM     24  C13 UNL     1       8.000  10.009  25.553  0.00  0.00    +0.014 C 
BRANCH  24  25
ATOM     25  C14 UNL     1       9.389   9.851  24.907  0.00  0.00    +0.035 C 
BRANCH  25  26
ATOM     26  C15 UNL     1       9.353  10.026  23.409  0.00  0.00    -0.047 A 
ATOM     27  C16 UNL     1      10.522   9.861  22.648  0.00  0.00    +0.003 A 
ATOM     28  C17 UNL     1      10.491  10.041  21.261  0.00  0.00    +0.000 A 
ATOM     29  C18 UNL     1       9.295  10.386  20.626  0.00  0.00    +0.000 A 
ATOM     30  C19 UNL     1       8.127  10.546  21.376  0.00  0.00    +0.000 A 
ATOM     31  C20 UNL     1       8.152  10.363  22.761  0.00  0.00    +0.003 A 
ENDBRANCH  25  26
ENDBRANCH  24  25
ENDBRANCH  23  24
ENDBRANCH  20  23
ENDBRANCH   7  19
TORSDOF 6
ENDMDL
MODEL 3
REMARK VINA RESULT:    -6.903      9.485     12.699
REMARK INTER + INTRA:         -10.065
REMARK INTER:                  -9.038
REMARK INTRA:                  -1.027
REMARK UNBOUND:                -0.740
REMARK  Name = /home/qwerty/github/datacon2025hack/step_04_hit_selection/docking/ligands/lig_800.pdb
REMARK  7 active torsions:
REMARK  status: ('A' for Active; 'I' for Inactive)
REMARK    1  A    between atoms: C1_1  and  N1_2
REMARK    2  A    between atoms: C5_7  and  C6_8
REMARK    3  A    between atoms: C10_14  and  N4_15
REMARK    4  A    between atoms: C11_16  and  C12_18
REMARK    5  A    between atoms: C12_18  and  C13_19
REMARK    6  A    between atoms: C13_19  and  C14_20
REMARK    7  A    between atoms: C14_20  and  C15_21
REMARK                            x       y       z     vdW  Elec       q    Type
REMARK                         _______ _______ _______ _____ _____    ______ ____
ROOT
ATOM      1  C6  UNL     1      15.967  -0.594  22.113  0.00  0.00    +0.248 C 
ATOM      2  O1  UNL     1      16.170  -1.589  21.365  0.00  0.00    -0.270 OA
ATOM      3  N3  UNL     1      16.283  -0.683  23.515  0.00  0.00    -0.296 N 
ATOM      4  C7  UNL     1      16.130  -1.959  24.225  0.00  0.00    +0.108 C 
ATOM      5  C8  UNL     1      17.493  -2.474  24.712  0.00  0.00    +0.021 C 
ATOM      6  C9  UNL     1      18.453  -1.347  25.151  0.00  0.00    +0.025 C 
ATOM      7  C10 UNL     1      17.718  -0.027  25.446  0.00  0.00    +0.090 C 
ATOM      8  C21 UNL     1      16.965   0.439  24.184  0.00  0.00    +0.130 C 
ENDROOT
BRANCH   1  15
ATOM      9  C1  UNL     1      12.752   4.781  19.887  0.00  0.00    +0.174 C 
ATOM     10  N1  UNL     1      14.054   4.128  19.904  0.00  0.00    -0.250 N 
ATOM     11  N2  UNL     1      15.169   4.658  19.410  0.00  0.00    -0.177 NA
ATOM     12  C2  UNL     1      16.192   3.799  19.656  0.00  0.00    +0.144 A 
ATOM     13  C3  UNL     1      15.688   2.707  20.334  0.00  0.00    +0.039 A 
ATOM     14  C4  UNL     1      16.270   1.559  20.854  0.00  0.00    +0.027 A 
ATOM     15  C5  UNL     1      15.422   0.648  21.523  0.00  0.00    +0.056 A 
ATOM     16  C22 UNL     1      14.040   0.959  21.659  0.00  0.00    +0.126 A 
ATOM     17  N5  UNL     1      13.526   2.110  21.128  0.00  0.00    -0.235 NA
ATOM     18  C23 UNL     1      14.360   2.953  20.472  0.00  0.00    +0.158 A 
ENDBRANCH   1  15
BRANCH   7  19
ATOM     19  N4  UNL     1      18.666   1.004  25.878  0.00  0.00    -0.311 N 
ATOM     20  C11 UNL     1      18.766   1.428  27.245  0.00  0.00    +0.213 C 
ATOM     21  O2  UNL     1      17.966   0.981  28.111  0.00  0.00    -0.276 OA
ATOM     22  H13 UNL     1      19.323   1.420  25.178  0.00  0.00    +0.149 HD
BRANCH  20  23
ATOM     23  C12 UNL     1      19.829   2.406  27.659  0.00  0.00    +0.096 C 
BRANCH  23  24
ATOM     24  C13 UNL     1      21.243   1.819  27.524  0.00  0.00    +0.014 C 
BRANCH  24  25
ATOM     25  C14 UNL     1      21.533   0.659  28.494  0.00  0.00    +0.035 C 
BRANCH  25  26
ATOM     26  C15 UNL     1      21.346   1.053  29.939  0.00  0.00    -0.047 A 
ATOM     27  C16 UNL     1      20.477   0.323  30.766  0.00  0.00    +0.003 A 
ATOM     28  C17 UNL     1      20.290   0.700  32.099  0.00  0.00    +0.000 A 
ATOM     29  C18 UNL     1      20.970   1.807  32.616  0.00  0.00    +0.000 A 
ATOM     30  C19 UNL     1      21.841   2.535  31.801  0.00  0.00    +0.000 A 
ATOM     31  C20 UNL     1      22.033   2.159  30.469  0.00  0.00    +0.003 A 
ENDBRANCH  25  26
ENDBRANCH  24  25
ENDBRANCH  23  24
ENDBRANCH  20  23
ENDBRANCH   7  19
TORSDOF 6
ENDMDL
MODEL 4
REMARK VINA RESULT:    -6.875     12.669     13.961
REMARK INTER + INTRA:         -10.026
REMARK INTER:                  -8.605
REMARK INTRA:                  -1.421
REMARK UNBOUND:                -0.740
REMARK  Name = /home/qwerty/github/datacon2025hack/step_04_hit_selection/docking/ligands/lig_800.pdb
REMARK  7 active torsions:
REMARK  status: ('A' for Active; 'I' for Inactive)
REMARK    1  A    between atoms: C1_1  and  N1_2
REMARK    2  A    between atoms: C5_7  and  C6_8
REMARK    3  A    between atoms: C10_14  and  N4_15
REMARK    4  A    between atoms: C11_16  and  C12_18
REMARK    5  A    between atoms: C12_18  and  C13_19
REMARK    6  A    between atoms: C13_19  and  C14_20
REMARK    7  A    between atoms: C14_20  and  C15_21
REMARK                            x       y       z     vdW  Elec       q    Type
REMARK                         _______ _______ _______ _____ _____    ______ ____
ROOT
ATOM      1  C6  UNL     1      23.860   7.207  20.381  0.00  0.00    +0.248 C 
ATOM      2  O1  UNL     1      24.564   6.587  19.537  0.00  0.00    -0.270 OA
ATOM      3  N3  UNL     1      24.085   8.612  20.597  0.00  0.00    -0.296 N 
ATOM      4  C7  UNL     1      25.440   9.168  20.481  0.00  0.00    +0.108 C 
ATOM      5  C8  UNL     1      25.517  10.161  19.311  0.00  0.00    +0.021 C 
ATOM      6  C9  UNL     1      24.223  10.981  19.116  0.00  0.00    +0.025 C 
ATOM      7  C10 UNL     1      23.327  10.977  20.368  0.00  0.00    +0.090 C 
ATOM      8  C21 UNL     1      22.937   9.527  20.719  0.00  0.00    +0.130 C 
ENDROOT
BRANCH   1  15
ATOM      9  C1  UNL     1      18.866   3.598  22.874  0.00  0.00    +0.174 C 
ATOM     10  N1  UNL     1      19.996   4.437  23.250  0.00  0.00    -0.250 N 
ATOM     11  N2  UNL     1      20.403   4.637  24.500  0.00  0.00    -0.177 NA
ATOM     12  C2  UNL     1      21.513   5.419  24.464  0.00  0.00    +0.144 A 
ATOM     13  C3  UNL     1      21.803   5.700  23.145  0.00  0.00    +0.039 A 
ATOM     14  C4  UNL     1      22.819   6.416  22.527  0.00  0.00    +0.027 A 
ATOM     15  C5  UNL     1      22.807   6.472  21.114  0.00  0.00    +0.056 A 
ATOM     16  C22 UNL     1      21.789   5.778  20.402  0.00  0.00    +0.126 A 
ATOM     17  N5  UNL     1      20.816   5.085  21.069  0.00  0.00    -0.235 NA
ATOM     18  C23 UNL     1      20.842   5.069  22.423  0.00  0.00    +0.158 A 
ENDBRANCH   1  15
BRANCH   7  19
ATOM     19  N4  UNL     1      22.124  11.783  20.142  0.00  0.00    -0.311 N 
ATOM     20  C11 UNL     1      21.528  12.576  21.178  0.00  0.00    +0.213 C 
ATOM     21  O2  UNL     1      21.980  12.532  22.354  0.00  0.00    -0.276 OA
ATOM     22  H13 UNL     1      21.704  11.816  19.185  0.00  0.00    +0.149 HD
BRANCH  20  23
ATOM     23  C12 UNL     1      20.363  13.473  20.870  0.00  0.00    +0.096 C 
BRANCH  23  24
ATOM     24  C13 UNL     1      19.032  12.702  20.827  0.00  0.00    +0.014 C 
BRANCH  24  25
ATOM     25  C14 UNL     1      18.621  12.244  19.416  0.00  0.00    +0.035 C 
BRANCH  25  26
ATOM     26  C15 UNL     1      18.539  10.742  19.297  0.00  0.00    -0.047 A 
ATOM     27  C16 UNL     1      17.347  10.069  19.614  0.00  0.00    +0.003 A 
ATOM     28  C17 UNL     1      17.278   8.676  19.520  0.00  0.00    +0.000 A 
ATOM     29  C18 UNL     1      18.397   7.945  19.110  0.00  0.00    +0.000 A 
ATOM     30  C19 UNL     1      19.584   8.607  18.787  0.00  0.00    +0.000 A 
ATOM     31  C20 UNL     1      19.656  10.000  18.876  0.00  0.00    +0.003 A 
ENDBRANCH  25  26
ENDBRANCH  24  25
ENDBRANCH  23  24
ENDBRANCH  20  23
ENDBRANCH   7  19
TORSDOF 6
ENDMDL
MODEL 5
REMARK VINA RESULT:    -6.741     11.786     13.477
REMARK INTER + INTRA:          -9.845
REMARK INTER:                  -8.922
REMARK INTRA:                  -0.923
REMARK UNBOUND:                -0.740
REMARK  Name = /home/qwerty/github/datacon2025hack/step_04_hit_selection/docking/ligands/lig_800.pdb
REMARK  7 active torsions:
REMARK  status: ('A' for Active; 'I' for Inactive)
REMARK    1  A    between atoms: C1_1  and  N1_2
REMARK    2  A    between atoms: C5_7  and  C6_8
REMARK    3  A    between atoms: C10_14  and  N4_15
REMARK    4  A    between atoms: C11_16  and  C12_18
REMARK    5  A    between atoms: C12_18  and  C13_19
REMARK    6  A    between atoms: C13_19  and  C14_20
REMARK    7  A    between atoms: C14_20  and  C15_21
REMARK                            x       y       z     vdW  Elec       q    Type
REMARK                         _______ _______ _______ _____ _____    ______ ____
ROOT
ATOM      1  C6  UNL     1      19.340   2.099  24.982  0.00  0.00    +0.248 C 
ATOM      2  O1  UNL     1      19.171   3.005  24.120  0.00  0.00    -0.270 OA
ATOM      3  N3  UNL     1      20.485   2.153  25.854  0.00  0.00    -0.296 N 
ATOM      4  C7  UNL     1      21.754   2.709  25.368  0.00  0.00    +0.108 C 
ATOM      5  C8  UNL     1      22.117   3.985  26.144  0.00  0.00    +0.021 C 
ATOM      6  C9  UNL     1      21.703   3.937  27.631  0.00  0.00    +0.025 C 
ATOM      7  C10 UNL     1      21.448   2.501  28.127  0.00  0.00    +0.090 C 
ATOM      8  C21 UNL     1      20.327   1.856  27.288  0.00  0.00    +0.130 C 
ENDROOT
BRANCH   1  15
ATOM      9  C1  UNL     1      14.257  -2.139  25.603  0.00  0.00    +0.174 C 
ATOM     10  N1  UNL     1      15.673  -2.061  25.270  0.00  0.00    -0.250 N 
ATOM     11  N2  UNL     1      16.402  -3.084  24.835  0.00  0.00    -0.177 NA
ATOM     12  C2  UNL     1      17.654  -2.630  24.569  0.00  0.00    +0.144 A 
ATOM     13  C3  UNL     1      17.692  -1.278  24.840  0.00  0.00    +0.039 A 
ATOM     14  C4  UNL     1      18.683  -0.313  24.726  0.00  0.00    +0.027 A 
ATOM     15  C5  UNL     1      18.343   1.012  25.085  0.00  0.00    +0.056 A 
ATOM     16  C22 UNL     1      17.015   1.296  25.509  0.00  0.00    +0.126 A 
ATOM     17  N5  UNL     1      16.080   0.301  25.597  0.00  0.00    -0.235 NA
ATOM     18  C23 UNL     1      16.442  -0.963  25.268  0.00  0.00    +0.158 A 
ENDBRANCH   1  15
BRANCH   7  19
ATOM     19  N4  UNL     1      21.078   2.506  29.546  0.00  0.00    -0.311 N 
ATOM     20  C11 UNL     1      21.972   2.049  30.571  0.00  0.00    +0.213 C 
ATOM     21  O2  UNL     1      23.085   1.541  30.266  0.00  0.00    -0.276 OA
ATOM     22  H13 UNL     1      20.148   2.891  29.830  0.00  0.00    +0.149 HD
BRANCH  20  23
ATOM     23  C12 UNL     1      21.592   2.177  32.019  0.00  0.00    +0.096 C 
BRANCH  23  24
ATOM     24  C13 UNL     1      22.293   3.364  32.701  0.00  0.00    +0.014 C 
BRANCH  24  25
ATOM     25  C14 UNL     1      21.805   4.741  32.215  0.00  0.00    +0.035 C 
BRANCH  25  26
ATOM     26  C15 UNL     1      22.864   5.808  32.344  0.00  0.00    -0.047 A 
ATOM     27  C16 UNL     1      23.988   5.597  33.160  0.00  0.00    +0.003 A 
ATOM     28  C17 UNL     1      24.960   6.594  33.293  0.00  0.00    +0.000 A 
ATOM     29  C18 UNL     1      24.816   7.806  32.613  0.00  0.00    +0.000 A 
ATOM     30  C19 UNL     1      23.704   8.022  31.795  0.00  0.00    +0.000 A 
ATOM     31  C20 UNL     1      22.733   7.027  31.656  0.00  0.00    +0.003 A 
ENDBRANCH  25  26
ENDBRANCH  24  25
ENDBRANCH  23  24
ENDBRANCH  20  23
ENDBRANCH   7  19
TORSDOF 6
ENDMDL
MODEL 6
REMARK VINA RESULT:    -6.713     11.073     14.152
REMARK INTER + INTRA:          -9.808
REMARK INTER:                  -7.804
REMARK INTRA:                  -2.003
REMARK UNBOUND:                -0.740
REMARK  Name = /home/qwerty/github/datacon2025hack/step_04_hit_selection/docking/ligands/lig_800.pdb
REMARK  7 active torsions:
REMARK  status: ('A' for Active; 'I' for Inactive)
REMARK    1  A    between atoms: C1_1  and  N1_2
REMARK    2  A    between atoms: C5_7  and  C6_8
REMARK    3  A    between atoms: C10_14  and  N4_15
REMARK    4  A    between atoms: C11_16  and  C12_18
REMARK    5  A    between atoms: C12_18  and  C13_19
REMARK    6  A    between atoms: C13_19  and  C14_20
REMARK    7  A    between atoms: C14_20  and  C15_21
REMARK                            x       y       z     vdW  Elec       q    Type
REMARK                         _______ _______ _______ _____ _____    ______ ____
ROOT
ATOM      1  C6  UNL     1      21.864   4.828  25.530  0.00  0.00    +0.248 C 
ATOM      2  O1  UNL     1      22.944   5.333  25.114  0.00  0.00    -0.270 OA
ATOM      3  N3  UNL     1      20.671   4.951  24.734  0.00  0.00    -0.296 N 
ATOM      4  C7  UNL     1      20.451   6.151  23.917  0.00  0.00    +0.108 C 
ATOM      5  C8  UNL     1      20.437   5.792  22.423  0.00  0.00    +0.021 C 
ATOM      6  C9  UNL     1      19.805   4.413  22.129  0.00  0.00    +0.025 C 
ATOM      7  C10 UNL     1      18.928   3.907  23.288  0.00  0.00    +0.090 C 
ATOM      8  C21 UNL     1      19.779   3.790  24.568  0.00  0.00    +0.130 C 
ENDROOT
BRANCH   1  15
ATOM      9  C1  UNL     1      21.231   2.190  31.598  0.00  0.00    +0.174 C 
ATOM     10  N1  UNL     1      21.878   1.997  30.307  0.00  0.00    -0.250 N 
ATOM     11  N2  UNL     1      22.600   0.930  29.977  0.00  0.00    -0.177 NA
ATOM     12  C2  UNL     1      22.991   1.065  28.684  0.00  0.00    +0.144 A 
ATOM     13  C3  UNL     1      22.482   2.252  28.199  0.00  0.00    +0.039 A 
ATOM     14  C4  UNL     1      22.539   2.875  26.959  0.00  0.00    +0.027 A 
ATOM     15  C5  UNL     1      21.860   4.107  26.821  0.00  0.00    +0.056 A 
ATOM     16  C22 UNL     1      21.137   4.628  27.930  0.00  0.00    +0.126 A 
ATOM     17  N5  UNL     1      21.115   3.965  29.126  0.00  0.00    -0.235 NA
ATOM     18  C23 UNL     1      21.794   2.797  29.234  0.00  0.00    +0.158 A 
ENDBRANCH   1  15
BRANCH   7  19
ATOM     19  N4  UNL     1      18.335   2.608  22.955  0.00  0.00    -0.311 N 
ATOM     20  C11 UNL     1      16.929   2.353  23.086  0.00  0.00    +0.213 C 
ATOM     21  O2  UNL     1      16.166   3.225  23.582  0.00  0.00    -0.276 OA
ATOM     22  H13 UNL     1      18.946   1.852  22.571  0.00  0.00    +0.149 HD
BRANCH  20  23
ATOM     23  C12 UNL     1      16.352   1.044  22.626  0.00  0.00    +0.096 C 
BRANCH  23  24
ATOM     24  C13 UNL     1      17.267  -0.145  22.965  0.00  0.00    +0.014 C 
BRANCH  24  25
ATOM     25  C14 UNL     1      16.955  -0.808  24.319  0.00  0.00    +0.035 C 
BRANCH  25  26
ATOM     26  C15 UNL     1      17.633  -0.113  25.473  0.00  0.00    -0.047 A 
ATOM     27  C16 UNL     1      16.880   0.341  26.569  0.00  0.00    +0.003 A 
ATOM     28  C17 UNL     1      17.507   1.002  27.630  0.00  0.00    +0.000 A 
ATOM     29  C18 UNL     1      18.888   1.213  27.604  0.00  0.00    +0.000 A 
ATOM     30  C19 UNL     1      19.645   0.760  26.520  0.00  0.00    +0.000 A 
ATOM     31  C20 UNL     1      19.023   0.096  25.460  0.00  0.00    +0.003 A 
ENDBRANCH  25  26
ENDBRANCH  24  25
ENDBRANCH  23  24
ENDBRANCH  20  23
ENDBRANCH   7  19
TORSDOF 6
ENDMDL
MODEL 7
REMARK VINA RESULT:    -6.686     13.409     15.061
REMARK INTER + INTRA:          -9.771
REMARK INTER:                  -8.567
REMARK INTRA:                  -1.205
REMARK UNBOUND:                -0.740
REMARK  Name = /home/qwerty/github/datacon2025hack/step_04_hit_selection/docking/ligands/lig_800.pdb
REMARK  7 active torsions:
REMARK  status: ('A' for Active; 'I' for Inactive)
REMARK    1  A    between atoms: C1_1  and  N1_2
REMARK    2  A    between atoms: C5_7  and  C6_8
REMARK    3  A    between atoms: C10_14  and  N4_15
REMARK    4  A    between atoms: C11_16  and  C12_18
REMARK    5  A    between atoms: C12_18  and  C13_19
REMARK    6  A    between atoms: C13_19  and  C14_20
REMARK    7  A    between atoms: C14_20  and  C15_21
REMARK                            x       y       z     vdW  Elec       q    Type
REMARK                         _______ _______ _______ _____ _____    ______ ____
ROOT
ATOM      1  C6  UNL     1      18.181   1.777  33.196  0.00  0.00    +0.248 C 
ATOM      2  O1  UNL     1      17.514   0.860  33.749  0.00  0.00    -0.270 OA
ATOM      3  N3  UNL     1      18.084   3.124  33.694  0.00  0.00    -0.296 N 
ATOM      4  C7  UNL     1      16.819   3.613  34.256  0.00  0.00    +0.108 C 
ATOM      5  C8  UNL     1      16.980   3.933  35.750  0.00  0.00    +0.021 C 
ATOM      6  C9  UNL     1      18.368   4.508  36.109  0.00  0.00    +0.025 C 
ATOM      7  C10 UNL     1      19.112   5.062  34.880  0.00  0.00    +0.090 C 
ATOM      8  C21 UNL     1      19.303   3.939  33.841  0.00  0.00    +0.130 C 
ENDROOT
BRANCH   1  15
ATOM      9  C1  UNL     1      22.591  -0.262  28.660  0.00  0.00    +0.174 C 
ATOM     10  N1  UNL     1      21.370   0.514  28.829  0.00  0.00    -0.250 N 
ATOM     11  N2  UNL     1      20.669   1.043  27.830  0.00  0.00    -0.177 NA
ATOM     12  C2  UNL     1      19.566   1.638  28.354  0.00  0.00    +0.144 A 
ATOM     13  C3  UNL     1      19.586   1.459  29.723  0.00  0.00    +0.039 A 
ATOM     14  C4  UNL     1      18.716   1.822  30.741  0.00  0.00    +0.027 A 
ATOM     15  C5  UNL     1      19.060   1.437  32.057  0.00  0.00    +0.056 A 
ATOM     16  C22 UNL     1      20.247   0.680  32.269  0.00  0.00    +0.126 A 
ATOM     17  N5  UNL     1      21.063   0.350  31.222  0.00  0.00    -0.235 NA
ATOM     18  C23 UNL     1      20.717   0.752  29.976  0.00  0.00    +0.158 A 
ENDBRANCH   1  15
BRANCH   7  19
ATOM     19  N4  UNL     1      20.412   5.614  35.272  0.00  0.00    -0.311 N 
ATOM     20  C11 UNL     1      20.943   6.812  34.688  0.00  0.00    +0.213 C 
ATOM     21  O2  UNL     1      20.335   7.383  33.743  0.00  0.00    -0.276 OA
ATOM     22  H13 UNL     1      20.958   5.145  36.031  0.00  0.00    +0.149 HD
BRANCH  20  23
ATOM     23  C12 UNL     1      22.227   7.400  35.201  0.00  0.00    +0.096 C 
BRANCH  23  24
ATOM     24  C13 UNL     1      23.425   6.461  34.983  0.00  0.00    +0.014 C 
BRANCH  24  25
ATOM     25  C14 UNL     1      23.709   6.145  33.503  0.00  0.00    +0.035 C 
BRANCH  25  26
ATOM     26  C15 UNL     1      23.954   7.388  32.683  0.00  0.00    -0.047 A 
ATOM     27  C16 UNL     1      24.971   8.287  33.044  0.00  0.00    +0.003 A 
ATOM     28  C17 UNL     1      25.184   9.448  32.294  0.00  0.00    +0.000 A 
ATOM     29  C18 UNL     1      24.385   9.718  31.180  0.00  0.00    +0.000 A 
ATOM     30  C19 UNL     1      23.375   8.826  30.811  0.00  0.00    +0.000 A 
ATOM     31  C20 UNL     1      23.161   7.664  31.555  0.00  0.00    +0.003 A 
ENDBRANCH  25  26
ENDBRANCH  24  25
ENDBRANCH  23  24
ENDBRANCH  20  23
ENDBRANCH   7  19
TORSDOF 6
ENDMDL
MODEL 8
REMARK VINA RESULT:    -6.665      6.793     11.261
REMARK INTER + INTRA:          -9.743
REMARK INTER:                  -8.847
REMARK INTRA:                  -0.895
REMARK UNBOUND:                -0.740
REMARK  Name = /home/qwerty/github/datacon2025hack/step_04_hit_selection/docking/ligands/lig_800.pdb
REMARK  7 active torsions:
REMARK  status: ('A' for Active; 'I' for Inactive)
REMARK    1  A    between atoms: C1_1  and  N1_2
REMARK    2  A    between atoms: C5_7  and  C6_8
REMARK    3  A    between atoms: C10_14  and  N4_15
REMARK    4  A    between atoms: C11_16  and  C12_18
REMARK    5  A    between atoms: C12_18  and  C13_19
REMARK    6  A    between atoms: C13_19  and  C14_20
REMARK    7  A    between atoms: C14_20  and  C15_21
REMARK                            x       y       z     vdW  Elec       q    Type
REMARK                         _______ _______ _______ _____ _____    ______ ____
ROOT
ATOM      1  C6  UNL     1      13.678   5.413  21.417  0.00  0.00    +0.248 C 
ATOM      2  O1  UNL     1      14.103   6.569  21.693  0.00  0.00    -0.270 OA
ATOM      3  N3  UNL     1      14.547   4.477  20.753  0.00  0.00    -0.296 N 
ATOM      4  C7  UNL     1      15.544   4.954  19.786  0.00  0.00    +0.108 C 
ATOM      5  C8  UNL     1      16.967   4.677  20.294  0.00  0.00    +0.021 C 
ATOM      6  C9  UNL     1      17.089   3.356  21.085  0.00  0.00    +0.025 C 
ATOM      7  C10 UNL     1      15.918   2.394  20.813  0.00  0.00    +0.090 C 
ATOM      8  C21 UNL     1      14.590   3.074  21.201  0.00  0.00    +0.130 C 
ENDROOT
BRANCH   1  15
ATOM      9  C1  UNL     1       7.777   3.742  23.979  0.00  0.00    +0.174 C 
ATOM     10  N1  UNL     1       8.443   4.116  22.738  0.00  0.00    -0.250 N 
ATOM     11  N2  UNL     1       7.821   4.325  21.582  0.00  0.00    -0.177 NA
ATOM     12  C2  UNL     1       8.745   4.714  20.666  0.00  0.00    +0.144 A 
ATOM     13  C3  UNL     1       9.978   4.755  21.286  0.00  0.00    +0.039 A 
ATOM     14  C4  UNL     1      11.249   5.105  20.851  0.00  0.00    +0.027 A 
ATOM     15  C5  UNL     1      12.297   5.047  21.798  0.00  0.00    +0.056 A 
ATOM     16  C22 UNL     1      12.001   4.669  23.138  0.00  0.00    +0.126 A 
ATOM     17  N5  UNL     1      10.726   4.338  23.506  0.00  0.00    -0.235 NA
ATOM     18  C23 UNL     1       9.746   4.382  22.571  0.00  0.00    +0.158 A 
ENDBRANCH   1  15
BRANCH   7  19
ATOM     19  N4  UNL     1      16.088   1.149  21.568  0.00  0.00    -0.311 N 
ATOM     20  C11 UNL     1      16.292  -0.116  20.922  0.00  0.00    +0.213 C 
ATOM     21  O2  UNL     1      16.240  -0.205  19.666  0.00  0.00    -0.276 OA
ATOM     22  H13 UNL     1      16.103   1.185  22.613  0.00  0.00    +0.149 HD
BRANCH  20  23
ATOM     23  C12 UNL     1      16.573  -1.345  21.738  0.00  0.00    +0.096 C 
BRANCH  23  24
ATOM     24  C13 UNL     1      17.325  -1.019  23.040  0.00  0.00    +0.014 C 
BRANCH  24  25
ATOM     25  C14 UNL     1      17.300  -2.157  24.077  0.00  0.00    +0.035 C 
BRANCH  25  26
ATOM     26  C15 UNL     1      16.156  -2.025  25.052  0.00  0.00    -0.047 A 
ATOM     27  C16 UNL     1      16.149  -0.991  26.003  0.00  0.00    +0.003 A 
ATOM     28  C17 UNL     1      15.097  -0.882  26.918  0.00  0.00    +0.000 A 
ATOM     29  C18 UNL     1      14.047  -1.802  26.890  0.00  0.00    +0.000 A 
ATOM     30  C19 UNL     1      14.043  -2.831  25.944  0.00  0.00    +0.000 A 
ATOM     31  C20 UNL     1      15.090  -2.942  25.026  0.00  0.00    +0.003 A 
ENDBRANCH  25  26
ENDBRANCH  24  25
ENDBRANCH  23  24
ENDBRANCH  20  23
ENDBRANCH   7  19
TORSDOF 6
ENDMDL
MODEL 9
REMARK VINA RESULT:    -6.601     11.070     14.550
REMARK INTER + INTRA:          -9.656
REMARK INTER:                  -8.836
REMARK INTRA:                  -0.821
REMARK UNBOUND:                -0.740
REMARK  Name = /home/qwerty/github/datacon2025hack/step_04_hit_selection/docking/ligands/lig_800.pdb
REMARK  7 active torsions:
REMARK  status: ('A' for Active; 'I' for Inactive)
REMARK    1  A    between atoms: C1_1  and  N1_2
REMARK    2  A    between atoms: C5_7  and  C6_8
REMARK    3  A    between atoms: C10_14  and  N4_15
REMARK    4  A    between atoms: C11_16  and  C12_18
REMARK    5  A    between atoms: C12_18  and  C13_19
REMARK    6  A    between atoms: C13_19  and  C14_20
REMARK    7  A    between atoms: C14_20  and  C15_21
REMARK                            x       y       z     vdW  Elec       q    Type
REMARK                         _______ _______ _______ _____ _____    ______ ____
ROOT
ATOM      1  C6  UNL     1      22.121   4.229  25.829  0.00  0.00    +0.248 C 
ATOM      2  O1  UNL     1      23.290   4.514  25.449  0.00  0.00    -0.270 OA
ATOM      3  N3  UNL     1      21.002   4.541  24.979  0.00  0.00    -0.296 N 
ATOM      4  C7  UNL     1      21.038   5.732  24.121  0.00  0.00    +0.108 C 
ATOM      5  C8  UNL     1      21.017   5.331  22.638  0.00  0.00    +0.021 C 
ATOM      6  C9  UNL     1      20.155   4.081  22.353  0.00  0.00    +0.025 C 
ATOM      7  C10 UNL     1      19.155   3.782  23.485  0.00  0.00    +0.090 C 
ATOM      8  C21 UNL     1      19.920   3.556  24.804  0.00  0.00    +0.130 C 
ENDROOT
BRANCH   1  15
ATOM      9  C1  UNL     1      20.884   2.008  31.971  0.00  0.00    +0.174 C 
ATOM     10  N1  UNL     1      21.410   1.608  30.673  0.00  0.00    -0.250 N 
ATOM     11  N2  UNL     1      21.772   0.368  30.356  0.00  0.00    -0.177 NA
ATOM     12  C2  UNL     1      22.152   0.357  29.052  0.00  0.00    +0.144 A 
ATOM     13  C3  UNL     1      22.009   1.634  28.548  0.00  0.00    +0.039 A 
ATOM     14  C4  UNL     1      22.217   2.189  27.293  0.00  0.00    +0.027 A 
ATOM     15  C5  UNL     1      21.935   3.565  27.138  0.00  0.00    +0.056 A 
ATOM     16  C22 UNL     1      21.429   4.299  28.247  0.00  0.00    +0.126 A 
ATOM     17  N5  UNL     1      21.241   3.693  29.460  0.00  0.00    -0.235 NA
ATOM     18  C23 UNL     1      21.542   2.378  29.583  0.00  0.00    +0.158 A 
ENDBRANCH   1  15
BRANCH   7  19
ATOM     19  N4  UNL     1      18.347   2.603  23.160  0.00  0.00    -0.311 N 
ATOM     20  C11 UNL     1      17.125   2.694  22.415  0.00  0.00    +0.213 C 
ATOM     21  O2  UNL     1      16.658   3.820  22.091  0.00  0.00    -0.276 OA
ATOM     22  H13 UNL     1      18.690   1.656  23.443  0.00  0.00    +0.149 HD
BRANCH  20  23
ATOM     23  C12 UNL     1      16.390   1.448  22.010  0.00  0.00    +0.096 C 
BRANCH  23  24
ATOM     24  C13 UNL     1      16.884   0.208  22.775  0.00  0.00    +0.014 C 
BRANCH  24  25
ATOM     25  C14 UNL     1      16.025  -1.049  22.548  0.00  0.00    +0.035 C 
BRANCH  25  26
ATOM     26  C15 UNL     1      15.279  -1.472  23.790  0.00  0.00    -0.047 A 
ATOM     27  C16 UNL     1      14.293  -0.639  24.344  0.00  0.00    +0.003 A 
ATOM     28  C17 UNL     1      13.616  -1.023  25.505  0.00  0.00    +0.000 A 
ATOM     29  C18 UNL     1      13.917  -2.241  26.121  0.00  0.00    +0.000 A 
ATOM     30  C19 UNL     1      14.894  -3.078  25.573  0.00  0.00    +0.000 A 
ATOM     31  C20 UNL     1      15.570  -2.699  24.411  0.00  0.00    +0.003 A 
ENDBRANCH  25  26
ENDBRANCH  24  25
ENDBRANCH  23  24
ENDBRANCH  20  23
ENDBRANCH   7  19
TORSDOF 6
ENDMDL
