REMARK  Name = /home/qwerty/github/datacon2025hack/step_04_hit_selection/docking/ligands/lig_356.pdb
REMARK  10 active torsions:
REMARK  status: ('A' for Active; 'I' for Inactive)
REMARK    1  A    between atoms: C4_4  and  C5_5
REMARK    2  A    between atoms: C4_4  and  C6_6
REMARK    3  A    between atoms: N1_8  and  C7_9
REMARK    4  A    between atoms: C7_9  and  C8_10
REMARK    5  A    between atoms: C8_10  and  O2_11
REMARK    6  A    between atoms: C8_10  and  C9_12
REMARK    7  A    between atoms: C9_12  and  N2_13
REMARK    8  A    between atoms: N2_13  and  C10_14
REMARK    9  A    between atoms: C11_15  and  C12_17
REMARK   10  A    between atoms: C14_19  and  C15_20
REMARK                            x       y       z     vdW  Elec       q    Type
REMARK                         _______ _______ _______ _____ _____    ______ ____
ROOT
ATOM      1  C8  UNL     1       0.509   1.389   0.515  0.00  0.00    +0.149 C 
ENDROOT
BRANCH   1   2
ATOM      2  O2  UNL     1       1.455   2.018   1.341  0.00  0.00    -0.389 OA
ATOM      3  H12 UNL     1       1.033   2.850   1.682  0.00  0.00    +0.210 HD
ENDBRANCH   1   2
BRANCH   1   4
ATOM      4  C7  UNL     1      -0.532   0.666   1.390  0.00  0.00    +0.137 C 
BRANCH   4   7
ATOM      5  C6  UNL     1      -2.726  -0.573   1.188  0.00  0.00    +0.220 C 
ATOM      6  O1  UNL     1      -2.649  -0.920   2.399  0.00  0.00    -0.275 OA
ATOM      7  N1  UNL     1      -1.667   0.191   0.596  0.00  0.00    -0.312 N 
ATOM      8  H8  UNL     1      -1.722   0.415  -0.423  0.00  0.00    +0.149 HD
BRANCH   5  12
ATOM      9  C1  UNL     1      -7.095   0.454   0.232  0.00  0.00    +0.007 C 
ATOM     10  C2  UNL     1      -5.889  -0.105   0.277  0.00  0.00    -0.075 C 
ATOM     11  C3  UNL     1      -5.195  -1.196   1.076  0.00  0.00    +0.046 C 
ATOM     12  C4  UNL     1      -3.884  -1.048   0.338  0.00  0.00    +0.051 C 
ATOM     13  C5  UNL     1      -3.515  -2.273  -0.513  0.00  0.00    +0.021 C 
ATOM     14  C16 UNL     1      -4.560   0.053  -0.443  0.00  0.00    +0.046 C 
ENDBRANCH   5  12
ENDBRANCH   4   7
ENDBRANCH   1   4
BRANCH   1  15
ATOM     15  C9  UNL     1       1.237   0.402  -0.413  0.00  0.00    +0.140 C 
BRANCH  15  16
ATOM     16  N2  UNL     1       2.181   1.113  -1.287  0.00  0.00    -0.297 N 
ATOM     17  C10 UNL     1       1.675   1.909  -2.407  0.00  0.00    +0.132 C 
ATOM     18  C11 UNL     1       3.574   1.209  -0.944  0.00  0.00    +0.265 C 
ATOM     19  O3  UNL     1       4.142   2.335  -0.967  0.00  0.00    -0.268 OA
BRANCH  18  20
ATOM     20  C12 UNL     1       4.362   0.008  -0.602  0.00  0.00    +0.135 A 
ATOM     21  C13 UNL     1       5.649   0.082  -0.016  0.00  0.00    +0.045 A 
ATOM     22  C14 UNL     1       6.216  -1.165   0.207  0.00  0.00    +0.007 A 
ATOM     23  C15 UNL     1       7.587  -1.455   0.716  0.00  0.00    +0.053 C 
ATOM     24  S1  UNL     1       5.115  -2.268  -0.378  0.00  0.00    +0.007 S 
ATOM     25  N3  UNL     1       3.909  -1.244  -0.881  0.00  0.00    -0.206 NA
ENDBRANCH  18  20
ENDBRANCH  15  16
ENDBRANCH   1  15
TORSDOF 7
