MODEL 1
REMARK VINA RESULT:    -6.221      0.000      0.000
REMARK INTER + INTRA:          -8.509
REMARK INTER:                  -8.039
REMARK INTRA:                  -0.470
REMARK UNBOUND:                -0.470
REMARK  Name = /home/qwerty/github/datacon2025hack/step_04_hit_selection/docking/ligands/lig_239.pdb
REMARK  8 active torsions:
REMARK  status: ('A' for Active; 'I' for Inactive)
REMARK    1  A    between atoms: C1_1  and  C2_2
REMARK    2  A    between atoms: C2_2  and  O1_3
REMARK    3  A    between atoms: C2_2  and  C3_4
REMARK    4  A    between atoms: C3_4  and  N1_5
REMARK    5  A    between atoms: C6_8  and  N2_9
REMARK    6  A    between atoms: N2_9  and  C7_10
REMARK    7  A    between atoms: C8_11  and  C9_13
REMARK    8  A    between atoms: C17_21  and  O3_22
REMARK                            x       y       z     vdW  Elec       q    Type
REMARK                         _______ _______ _______ _____ _____    ______ ____
ROOT
ATOM      1  N2  UNL     1       9.369  11.523  28.111  0.00  0.00    -0.295 N 
ATOM      2  C7  UNL     1       8.329  12.502  27.782  0.00  0.00    +0.132 C 
ATOM      3  C8  UNL     1       9.447  10.279  27.378  0.00  0.00    +0.265 C 
ATOM      4  O2  UNL     1       9.743   9.215  27.987  0.00  0.00    -0.268 OA
ENDROOT
BRANCH   3   5
ATOM      5  C9  UNL     1       9.226  10.234  25.914  0.00  0.00    +0.130 A 
ATOM      6  C10 UNL     1      10.309  10.203  25.022  0.00  0.00    +0.041 A 
ATOM      7  C11 UNL     1      10.070  10.181  23.643  0.00  0.00    -0.011 A 
ATOM      8  C12 UNL     1      11.138  10.145  22.732  0.00  0.00    +0.009 A 
ATOM      9  C13 UNL     1      10.888  10.122  21.357  0.00  0.00    +0.001 A 
ATOM     10  C14 UNL     1       9.575  10.136  20.882  0.00  0.00    +0.001 A 
ATOM     11  C15 UNL     1       8.502  10.173  21.776  0.00  0.00    +0.014 A 
ATOM     12  C16 UNL     1       8.739  10.195  23.162  0.00  0.00    +0.044 A 
ATOM     13  C17 UNL     1       7.685  10.234  24.090  0.00  0.00    +0.221 A 
ATOM     14  N3  UNL     1       7.957  10.255  25.423  0.00  0.00    -0.208 NA
BRANCH  13  15
ATOM     15  O3  UNL     1       6.360  10.252  23.663  0.00  0.00    -0.492 OA
ATOM     16  H21 UNL     1       5.804   9.405  23.651  0.00  0.00    +0.294 HD
ENDBRANCH  13  15
ENDBRANCH   3   5
BRANCH   1  20
ATOM     17  N1  UNL     1      11.066  13.903  30.269  0.00  0.00    -0.298 NA
ATOM     18  C4  UNL     1      11.930  13.680  29.099  0.00  0.00    +0.086 C 
ATOM     19  C5  UNL     1      11.704  12.256  28.615  0.00  0.00    +0.039 C 
ATOM     20  C6  UNL     1      10.339  11.866  29.172  0.00  0.00    +0.091 C 
ATOM     21  C18 UNL     1       9.887  13.053  30.029  0.00  0.00    +0.107 C 
BRANCH  17  22
ATOM     22  C3  UNL     1      11.753  13.549  31.538  0.00  0.00    +0.115 C 
BRANCH  22  24
ATOM     23  C1  UNL     1      11.628  13.802  34.060  0.00  0.00    +0.039 C 
ATOM     24  C2  UNL     1      11.234  14.405  32.710  0.00  0.00    +0.125 C 
BRANCH  24  25
ATOM     25  O1  UNL     1      11.724  15.717  32.631  0.00  0.00    -0.391 OA
ATOM     26  H5  UNL     1      12.714  15.652  32.631  0.00  0.00    +0.210 HD
ENDBRANCH  24  25
ENDBRANCH  22  24
ENDBRANCH  17  22
ENDBRANCH   1  20
TORSDOF 6
ENDMDL
MODEL 2
REMARK VINA RESULT:    -6.116      7.653     10.958
REMARK INTER + INTRA:          -8.373
REMARK INTER:                  -7.768
REMARK INTRA:                  -0.605
REMARK UNBOUND:                -0.470
REMARK  Name = /home/qwerty/github/datacon2025hack/step_04_hit_selection/docking/ligands/lig_239.pdb
REMARK  8 active torsions:
REMARK  status: ('A' for Active; 'I' for Inactive)
REMARK    1  A    between atoms: C1_1  and  C2_2
REMARK    2  A    between atoms: C2_2  and  O1_3
REMARK    3  A    between atoms: C2_2  and  C3_4
REMARK    4  A    between atoms: C3_4  and  N1_5
REMARK    5  A    between atoms: C6_8  and  N2_9
REMARK    6  A    between atoms: N2_9  and  C7_10
REMARK    7  A    between atoms: C8_11  and  C9_13
REMARK    8  A    between atoms: C17_21  and  O3_22
REMARK                            x       y       z     vdW  Elec       q    Type
REMARK                         _______ _______ _______ _____ _____    ______ ____
ROOT
ATOM      1  N2  UNL     1      11.412   4.455  21.751  0.00  0.00    -0.295 N 
ATOM      2  C7  UNL     1      12.112   5.176  22.819  0.00  0.00    +0.132 C 
ATOM      3  C8  UNL     1      10.106   4.897  21.317  0.00  0.00    +0.265 C 
ATOM      4  O2  UNL     1       9.227   4.044  21.017  0.00  0.00    -0.268 OA
ENDROOT
BRANCH   3   5
ATOM      5  C9  UNL     1       9.790   6.338  21.175  0.00  0.00    +0.130 A 
ATOM      6  C10 UNL     1      10.603   7.183  20.405  0.00  0.00    +0.041 A 
ATOM      7  C11 UNL     1      10.291   8.544  20.305  0.00  0.00    -0.011 A 
ATOM      8  C12 UNL     1      11.087   9.406  19.536  0.00  0.00    +0.009 A 
ATOM      9  C13 UNL     1      10.766  10.763  19.443  0.00  0.00    +0.001 A 
ATOM     10  C14 UNL     1       9.652  11.269  20.117  0.00  0.00    +0.001 A 
ATOM     11  C15 UNL     1       8.851  10.422  20.887  0.00  0.00    +0.014 A 
ATOM     12  C16 UNL     1       9.162   9.055  20.989  0.00  0.00    +0.044 A 
ATOM     13  C17 UNL     1       8.379   8.175  21.755  0.00  0.00    +0.221 A 
ATOM     14  N3  UNL     1       8.715   6.859  21.828  0.00  0.00    -0.208 NA
BRANCH  13  15
ATOM     15  O3  UNL     1       7.261   8.635  22.446  0.00  0.00    -0.492 OA
ATOM     16  H21 UNL     1       6.939   8.168  23.286  0.00  0.00    +0.294 HD
ENDBRANCH  13  15
ENDBRANCH   3   5
BRANCH   1  20
ATOM     17  N1  UNL     1      14.298   2.301  21.270  0.00  0.00    -0.298 NA
ATOM     18  C4  UNL     1      14.329   3.319  20.208  0.00  0.00    +0.086 C 
ATOM     19  C5  UNL     1      12.894   3.702  19.886  0.00  0.00    +0.039 C 
ATOM     20  C6  UNL     1      12.096   3.305  21.122  0.00  0.00    +0.091 C 
ATOM     21  C18 UNL     1      13.099   2.625  22.061  0.00  0.00    +0.107 C 
BRANCH  17  22
ATOM     22  C3  UNL     1      14.239   0.924  20.715  0.00  0.00    +0.115 C 
BRANCH  22  24
ATOM     23  C1  UNL     1      16.556  -0.090  20.512  0.00  0.00    +0.039 C 
ATOM     24  C2  UNL     1      15.433   0.647  19.781  0.00  0.00    +0.125 C 
BRANCH  24  25
ATOM     25  O1  UNL     1      15.035  -0.107  18.667  0.00  0.00    -0.391 OA
ATOM     26  H5  UNL     1      15.491  -0.986  18.740  0.00  0.00    +0.210 HD
ENDBRANCH  24  25
ENDBRANCH  22  24
ENDBRANCH  17  22
ENDBRANCH   1  20
TORSDOF 6
ENDMDL
MODEL 3
REMARK VINA RESULT:    -6.115      1.656      8.971
REMARK INTER + INTRA:          -8.372
REMARK INTER:                  -7.710
REMARK INTRA:                  -0.662
REMARK UNBOUND:                -0.470
REMARK  Name = /home/qwerty/github/datacon2025hack/step_04_hit_selection/docking/ligands/lig_239.pdb
REMARK  8 active torsions:
REMARK  status: ('A' for Active; 'I' for Inactive)
REMARK    1  A    between atoms: C1_1  and  C2_2
REMARK    2  A    between atoms: C2_2  and  O1_3
REMARK    3  A    between atoms: C2_2  and  C3_4
REMARK    4  A    between atoms: C3_4  and  N1_5
REMARK    5  A    between atoms: C6_8  and  N2_9
REMARK    6  A    between atoms: N2_9  and  C7_10
REMARK    7  A    between atoms: C8_11  and  C9_13
REMARK    8  A    between atoms: C17_21  and  O3_22
REMARK                            x       y       z     vdW  Elec       q    Type
REMARK                         _______ _______ _______ _____ _____    ______ ____
ROOT
ATOM      1  N2  UNL     1       9.962  12.150  28.694  0.00  0.00    -0.295 N 
ATOM      2  C7  UNL     1       8.916  13.140  28.969  0.00  0.00    +0.132 C 
ATOM      3  C8  UNL     1      11.238  12.242  29.367  0.00  0.00    +0.265 C 
ATOM      4  O2  UNL     1      12.295  11.969  28.737  0.00  0.00    -0.268 OA
ENDROOT
BRANCH   3   5
ATOM      5  C9  UNL     1      11.328  12.612  30.798  0.00  0.00    +0.130 A 
ATOM      6  C10 UNL     1      11.247  11.635  31.802  0.00  0.00    +0.041 A 
ATOM      7  C11 UNL     1      11.315  12.017  33.148  0.00  0.00    -0.011 A 
ATOM      8  C12 UNL     1      11.242  11.056  34.169  0.00  0.00    +0.009 A 
ATOM      9  C13 UNL     1      11.312  11.447  35.508  0.00  0.00    +0.001 A 
ATOM     10  C14 UNL     1      11.452  12.797  35.839  0.00  0.00    +0.001 A 
ATOM     11  C15 UNL     1      11.526  13.764  34.833  0.00  0.00    +0.014 A 
ATOM     12  C16 UNL     1      11.458  13.385  33.481  0.00  0.00    +0.044 A 
ATOM     13  C17 UNL     1      11.527  14.330  32.445  0.00  0.00    +0.221 A 
ATOM     14  N3  UNL     1      11.457  13.921  31.150  0.00  0.00    -0.208 NA
BRANCH  13  15
ATOM     15  O3  UNL     1      11.665  15.687  32.727  0.00  0.00    -0.492 OA
ATOM     16  H21 UNL     1      12.578  16.123  32.756  0.00  0.00    +0.294 HD
ENDBRANCH  13  15
ENDBRANCH   3   5
BRANCH   1  20
ATOM     17  N1  UNL     1       7.640   9.973  26.942  0.00  0.00    -0.298 NA
ATOM     18  C4  UNL     1       8.097   9.252  28.140  0.00  0.00    +0.086 C 
ATOM     19  C5  UNL     1       9.516   9.704  28.445  0.00  0.00    +0.039 C 
ATOM     20  C6  UNL     1       9.654  11.054  27.751  0.00  0.00    +0.091 C 
ATOM     21  C18 UNL     1       8.335  11.270  27.000  0.00  0.00    +0.107 C 
BRANCH  17  22
ATOM     22  C3  UNL     1       7.958   9.231  25.695  0.00  0.00    +0.115 C 
BRANCH  22  24
ATOM     23  C1  UNL     1       8.780   9.676  23.336  0.00  0.00    +0.039 C 
ATOM     24  C2  UNL     1       7.854  10.147  24.460  0.00  0.00    +0.125 C 
BRANCH  24  25
ATOM     25  O1  UNL     1       6.537  10.198  23.980  0.00  0.00    -0.391 OA
ATOM     26  H5  UNL     1       6.336  11.152  23.796  0.00  0.00    +0.210 HD
ENDBRANCH  24  25
ENDBRANCH  22  24
ENDBRANCH  17  22
ENDBRANCH   1  20
TORSDOF 6
ENDMDL
MODEL 4
REMARK VINA RESULT:    -6.105      7.513     11.149
REMARK INTER + INTRA:          -8.359
REMARK INTER:                  -7.779
REMARK INTRA:                  -0.580
REMARK UNBOUND:                -0.470
REMARK  Name = /home/qwerty/github/datacon2025hack/step_04_hit_selection/docking/ligands/lig_239.pdb
REMARK  8 active torsions:
REMARK  status: ('A' for Active; 'I' for Inactive)
REMARK    1  A    between atoms: C1_1  and  C2_2
REMARK    2  A    between atoms: C2_2  and  O1_3
REMARK    3  A    between atoms: C2_2  and  C3_4
REMARK    4  A    between atoms: C3_4  and  N1_5
REMARK    5  A    between atoms: C6_8  and  N2_9
REMARK    6  A    between atoms: N2_9  and  C7_10
REMARK    7  A    between atoms: C8_11  and  C9_13
REMARK    8  A    between atoms: C17_21  and  O3_22
REMARK                            x       y       z     vdW  Elec       q    Type
REMARK                         _______ _______ _______ _____ _____    ______ ____
ROOT
ATOM      1  N2  UNL     1      11.736   4.540  21.607  0.00  0.00    -0.295 N 
ATOM      2  C7  UNL     1      12.505   5.230  22.647  0.00  0.00    +0.132 C 
ATOM      3  C8  UNL     1      10.404   4.993  21.273  0.00  0.00    +0.265 C 
ATOM      4  O2  UNL     1       9.507   4.148  21.007  0.00  0.00    -0.268 OA
ENDROOT
BRANCH   3   5
ATOM      5  C9  UNL     1      10.079   6.437  21.197  0.00  0.00    +0.130 A 
ATOM      6  C10 UNL     1       9.131   7.009  22.058  0.00  0.00    +0.041 A 
ATOM      7  C11 UNL     1       8.829   8.372  21.950  0.00  0.00    -0.011 A 
ATOM      8  C12 UNL     1       7.888   8.967  22.805  0.00  0.00    +0.009 A 
ATOM      9  C13 UNL     1       7.595  10.328  22.689  0.00  0.00    +0.001 A 
ATOM     10  C14 UNL     1       8.236  11.104  21.721  0.00  0.00    +0.001 A 
ATOM     11  C15 UNL     1       9.175  10.526  20.863  0.00  0.00    +0.014 A 
ATOM     12  C16 UNL     1       9.480   9.157  20.969  0.00  0.00    +0.044 A 
ATOM     13  C17 UNL     1      10.417   8.542  20.122  0.00  0.00    +0.221 A 
ATOM     14  N3  UNL     1      10.683   7.215  20.258  0.00  0.00    -0.208 NA
BRANCH  13  15
ATOM     15  O3  UNL     1      11.079   9.275  19.140  0.00  0.00    -0.492 OA
ATOM     16  H21 UNL     1      10.826  10.237  18.949  0.00  0.00    +0.294 HD
ENDBRANCH  13  15
ENDBRANCH   3   5
BRANCH   1  20
ATOM     17  N1  UNL     1      14.558   2.353  20.933  0.00  0.00    -0.298 NA
ATOM     18  C4  UNL     1      14.584   3.425  19.926  0.00  0.00    +0.086 C 
ATOM     19  C5  UNL     1      13.150   3.856  19.664  0.00  0.00    +0.039 C 
ATOM     20  C6  UNL     1      12.376   3.411  20.899  0.00  0.00    +0.091 C 
ATOM     21  C18 UNL     1      13.387   2.660  21.773  0.00  0.00    +0.107 C 
BRANCH  17  22
ATOM     22  C3  UNL     1      14.452   1.009  20.309  0.00  0.00    +0.115 C 
BRANCH  22  24
ATOM     23  C1  UNL     1      16.391  -0.324  21.258  0.00  0.00    +0.039 C 
ATOM     24  C2  UNL     1      15.845   0.412  20.033  0.00  0.00    +0.125 C 
BRANCH  24  25
ATOM     25  O1  UNL     1      15.807  -0.473  18.944  0.00  0.00    -0.391 OA
ATOM     26  H5  UNL     1      15.607   0.073  18.139  0.00  0.00    +0.210 HD
ENDBRANCH  24  25
ENDBRANCH  22  24
ENDBRANCH  17  22
ENDBRANCH   1  20
TORSDOF 6
ENDMDL
MODEL 5
REMARK VINA RESULT:    -6.034      4.256      6.937
REMARK INTER + INTRA:          -8.267
REMARK INTER:                  -7.644
REMARK INTRA:                  -0.624
REMARK UNBOUND:                -0.470
REMARK  Name = /home/qwerty/github/datacon2025hack/step_04_hit_selection/docking/ligands/lig_239.pdb
REMARK  8 active torsions:
REMARK  status: ('A' for Active; 'I' for Inactive)
REMARK    1  A    between atoms: C1_1  and  C2_2
REMARK    2  A    between atoms: C2_2  and  O1_3
REMARK    3  A    between atoms: C2_2  and  C3_4
REMARK    4  A    between atoms: C3_4  and  N1_5
REMARK    5  A    between atoms: C6_8  and  N2_9
REMARK    6  A    between atoms: N2_9  and  C7_10
REMARK    7  A    between atoms: C8_11  and  C9_13
REMARK    8  A    between atoms: C17_21  and  O3_22
REMARK                            x       y       z     vdW  Elec       q    Type
REMARK                         _______ _______ _______ _____ _____    ______ ____
ROOT
ATOM      1  N2  UNL     1      13.428  13.646  32.565  0.00  0.00    -0.295 N 
ATOM      2  C7  UNL     1      14.239  12.748  31.737  0.00  0.00    +0.132 C 
ATOM      3  C8  UNL     1      12.513  14.574  31.940  0.00  0.00    +0.265 C 
ATOM      4  O2  UNL     1      12.373  15.731  32.421  0.00  0.00    -0.268 OA
ENDROOT
BRANCH   3   5
ATOM      5  C9  UNL     1      11.701  14.181  30.764  0.00  0.00    +0.130 A 
ATOM      6  C10 UNL     1      10.676  13.229  30.881  0.00  0.00    +0.041 A 
ATOM      7  C11 UNL     1       9.939  12.862  29.749  0.00  0.00    -0.011 A 
ATOM      8  C12 UNL     1       8.906  11.916  29.844  0.00  0.00    +0.009 A 
ATOM      9  C13 UNL     1       8.175  11.557  28.708  0.00  0.00    +0.001 A 
ATOM     10  C14 UNL     1       8.470  12.137  27.472  0.00  0.00    +0.001 A 
ATOM     11  C15 UNL     1       9.496  13.079  27.363  0.00  0.00    +0.014 A 
ATOM     12  C16 UNL     1      10.238  13.450  28.497  0.00  0.00    +0.044 A 
ATOM     13  C17 UNL     1      11.277  14.393  28.424  0.00  0.00    +0.221 A 
ATOM     14  N3  UNL     1      11.972  14.723  29.545  0.00  0.00    -0.208 NA
BRANCH  13  15
ATOM     15  O3  UNL     1      11.609  14.995  27.212  0.00  0.00    -0.492 OA
ATOM     16  H21 UNL     1      12.552  14.945  26.847  0.00  0.00    +0.294 HD
ENDBRANCH  13  15
ENDBRANCH   3   5
BRANCH   1  20
ATOM     17  N1  UNL     1      14.539  11.961  35.586  0.00  0.00    -0.298 NA
ATOM     18  C4  UNL     1      13.146  11.553  35.344  0.00  0.00    +0.086 C 
ATOM     19  C5  UNL     1      12.434  12.707  34.656  0.00  0.00    +0.039 C 
ATOM     20  C6  UNL     1      13.549  13.540  34.034  0.00  0.00    +0.091 C 
ATOM     21  C18 UNL     1      14.857  12.875  34.476  0.00  0.00    +0.107 C 
BRANCH  17  22
ATOM     22  C3  UNL     1      14.701  12.620  36.907  0.00  0.00    +0.115 C 
BRANCH  22  24
ATOM     23  C1  UNL     1      16.725  11.093  36.819  0.00  0.00    +0.039 C 
ATOM     24  C2  UNL     1      16.055  12.259  37.548  0.00  0.00    +0.125 C 
BRANCH  24  25
ATOM     25  O1  UNL     1      16.923  13.362  37.548  0.00  0.00    -0.391 OA
ATOM     26  H5  UNL     1      17.825  13.016  37.774  0.00  0.00    +0.210 HD
ENDBRANCH  24  25
ENDBRANCH  22  24
ENDBRANCH  17  22
ENDBRANCH   1  20
TORSDOF 6
ENDMDL
MODEL 6
REMARK VINA RESULT:    -5.930     13.786     16.490
REMARK INTER + INTRA:          -8.133
REMARK INTER:                  -7.699
REMARK INTRA:                  -0.434
REMARK UNBOUND:                -0.470
REMARK  Name = /home/qwerty/github/datacon2025hack/step_04_hit_selection/docking/ligands/lig_239.pdb
REMARK  8 active torsions:
REMARK  status: ('A' for Active; 'I' for Inactive)
REMARK    1  A    between atoms: C1_1  and  C2_2
REMARK    2  A    between atoms: C2_2  and  O1_3
REMARK    3  A    between atoms: C2_2  and  C3_4
REMARK    4  A    between atoms: C3_4  and  N1_5
REMARK    5  A    between atoms: C6_8  and  N2_9
REMARK    6  A    between atoms: N2_9  and  C7_10
REMARK    7  A    between atoms: C8_11  and  C9_13
REMARK    8  A    between atoms: C17_21  and  O3_22
REMARK                            x       y       z     vdW  Elec       q    Type
REMARK                         _______ _______ _______ _____ _____    ______ ____
ROOT
ATOM      1  N2  UNL     1      21.257   3.393  30.198  0.00  0.00    -0.295 N 
ATOM      2  C7  UNL     1      22.421   2.586  30.579  0.00  0.00    +0.132 C 
ATOM      3  C8  UNL     1      20.890   4.548  30.987  0.00  0.00    +0.265 C 
ATOM      4  O2  UNL     1      19.672   4.805  31.185  0.00  0.00    -0.268 OA
ENDROOT
BRANCH   3   5
ATOM      5  C9  UNL     1      21.918   5.463  31.535  0.00  0.00    +0.130 A 
ATOM      6  C10 UNL     1      22.217   6.677  30.897  0.00  0.00    +0.041 A 
ATOM      7  C11 UNL     1      23.208   7.513  31.427  0.00  0.00    -0.011 A 
ATOM      8  C12 UNL     1      23.519   8.734  30.809  0.00  0.00    +0.009 A 
ATOM      9  C13 UNL     1      24.509   9.561  31.346  0.00  0.00    +0.001 A 
ATOM     10  C14 UNL     1      25.195   9.176  32.500  0.00  0.00    +0.001 A 
ATOM     11  C15 UNL     1      24.896   7.963  33.126  0.00  0.00    +0.014 A 
ATOM     12  C16 UNL     1      23.902   7.121  32.597  0.00  0.00    +0.044 A 
ATOM     13  C17 UNL     1      23.576   5.894  33.198  0.00  0.00    +0.221 A 
ATOM     14  N3  UNL     1      22.608   5.109  32.654  0.00  0.00    -0.208 NA
BRANCH  13  15
ATOM     15  O3  UNL     1      24.235   5.468  34.349  0.00  0.00    -0.492 OA
ATOM     16  H21 UNL     1      24.675   6.133  34.974  0.00  0.00    +0.294 HD
ENDBRANCH  13  15
ENDBRANCH   3   5
BRANCH   1  20
ATOM     17  N1  UNL     1      20.803   1.385  27.204  0.00  0.00    -0.298 NA
ATOM     18  C4  UNL     1      21.472   2.631  26.799  0.00  0.00    +0.086 C 
ATOM     19  C5  UNL     1      21.011   3.736  27.736  0.00  0.00    +0.039 C 
ATOM     20  C6  UNL     1      20.512   3.011  28.980  0.00  0.00    +0.091 C 
ATOM     21  C18 UNL     1      20.624   1.516  28.660  0.00  0.00    +0.107 C 
BRANCH  17  22
ATOM     22  C3  UNL     1      19.506   1.200  26.503  0.00  0.00    +0.115 C 
BRANCH  22  24
ATOM     23  C1  UNL     1      18.198  -0.459  25.097  0.00  0.00    +0.039 C 
ATOM     24  C2  UNL     1      19.589   0.057  25.472  0.00  0.00    +0.125 C 
BRANCH  24  25
ATOM     25  O1  UNL     1      20.254   0.475  24.309  0.00  0.00    -0.391 OA
ATOM     26  H5  UNL     1      19.552   0.736  23.657  0.00  0.00    +0.210 HD
ENDBRANCH  24  25
ENDBRANCH  22  24
ENDBRANCH  17  22
ENDBRANCH   1  20
TORSDOF 6
ENDMDL
MODEL 7
REMARK VINA RESULT:    -5.917     13.779     16.132
REMARK INTER + INTRA:          -8.116
REMARK INTER:                  -7.463
REMARK INTRA:                  -0.653
REMARK UNBOUND:                -0.470
REMARK  Name = /home/qwerty/github/datacon2025hack/step_04_hit_selection/docking/ligands/lig_239.pdb
REMARK  8 active torsions:
REMARK  status: ('A' for Active; 'I' for Inactive)
REMARK    1  A    between atoms: C1_1  and  C2_2
REMARK    2  A    between atoms: C2_2  and  O1_3
REMARK    3  A    between atoms: C2_2  and  C3_4
REMARK    4  A    between atoms: C3_4  and  N1_5
REMARK    5  A    between atoms: C6_8  and  N2_9
REMARK    6  A    between atoms: N2_9  and  C7_10
REMARK    7  A    between atoms: C8_11  and  C9_13
REMARK    8  A    between atoms: C17_21  and  O3_22
REMARK                            x       y       z     vdW  Elec       q    Type
REMARK                         _______ _______ _______ _____ _____    ______ ____
ROOT
ATOM      1  N2  UNL     1      20.582   3.205  30.521  0.00  0.00    -0.295 N 
ATOM      2  C7  UNL     1      19.311   3.907  30.315  0.00  0.00    +0.132 C 
ATOM      3  C8  UNL     1      20.907   2.668  31.823  0.00  0.00    +0.265 C 
ATOM      4  O2  UNL     1      22.093   2.732  32.245  0.00  0.00    -0.268 OA
ENDROOT
BRANCH   3   5
ATOM      5  C9  UNL     1      19.879   2.005  32.660  0.00  0.00    +0.130 A 
ATOM      6  C10 UNL     1      19.605   2.458  33.959  0.00  0.00    +0.041 A 
ATOM      7  C11 UNL     1      18.643   1.800  34.734  0.00  0.00    -0.011 A 
ATOM      8  C12 UNL     1      18.348   2.239  36.034  0.00  0.00    +0.009 A 
ATOM      9  C13 UNL     1      17.385   1.575  36.799  0.00  0.00    +0.001 A 
ATOM     10  C14 UNL     1      16.713   0.469  36.275  0.00  0.00    +0.001 A 
ATOM     11  C15 UNL     1      16.997   0.019  34.983  0.00  0.00    +0.014 A 
ATOM     12  C16 UNL     1      17.962   0.679  34.202  0.00  0.00    +0.044 A 
ATOM     13  C17 UNL     1      18.274   0.254  32.899  0.00  0.00    +0.221 A 
ATOM     14  N3  UNL     1      19.215   0.919  32.178  0.00  0.00    -0.208 NA
BRANCH  13  15
ATOM     15  O3  UNL     1      17.631  -0.846  32.336  0.00  0.00    -0.492 OA
ATOM     16  H21 UNL     1      17.745  -1.773  32.728  0.00  0.00    +0.294 HD
ENDBRANCH  13  15
ENDBRANCH   3   5
BRANCH   1  20
ATOM     17  N1  UNL     1      21.297   3.335  26.961  0.00  0.00    -0.298 NA
ATOM     18  C4  UNL     1      20.916   1.951  27.281  0.00  0.00    +0.086 C 
ATOM     19  C5  UNL     1      21.349   1.665  28.710  0.00  0.00    +0.039 C 
ATOM     20  C6  UNL     1      21.481   3.037  29.360  0.00  0.00    +0.091 C 
ATOM     21  C18 UNL     1      21.208   4.052  28.245  0.00  0.00    +0.107 C 
BRANCH  17  22
ATOM     22  C3  UNL     1      22.661   3.414  26.378  0.00  0.00    +0.115 C 
BRANCH  22  24
ATOM     23  C1  UNL     1      21.343   4.582  24.552  0.00  0.00    +0.039 C 
ATOM     24  C2  UNL     1      22.713   4.422  25.214  0.00  0.00    +0.125 C 
BRANCH  24  25
ATOM     25  O1  UNL     1      23.161   5.677  25.655  0.00  0.00    -0.391 OA
ATOM     26  H5  UNL     1      22.702   5.857  26.516  0.00  0.00    +0.210 HD
ENDBRANCH  24  25
ENDBRANCH  22  24
ENDBRANCH  17  22
ENDBRANCH   1  20
TORSDOF 6
ENDMDL
MODEL 8
REMARK VINA RESULT:    -5.895     13.387     14.423
REMARK INTER + INTRA:          -8.087
REMARK INTER:                  -7.453
REMARK INTRA:                  -0.634
REMARK UNBOUND:                -0.470
REMARK  Name = /home/qwerty/github/datacon2025hack/step_04_hit_selection/docking/ligands/lig_239.pdb
REMARK  8 active torsions:
REMARK  status: ('A' for Active; 'I' for Inactive)
REMARK    1  A    between atoms: C1_1  and  C2_2
REMARK    2  A    between atoms: C2_2  and  O1_3
REMARK    3  A    between atoms: C2_2  and  C3_4
REMARK    4  A    between atoms: C3_4  and  N1_5
REMARK    5  A    between atoms: C6_8  and  N2_9
REMARK    6  A    between atoms: N2_9  and  C7_10
REMARK    7  A    between atoms: C8_11  and  C9_13
REMARK    8  A    between atoms: C17_21  and  O3_22
REMARK                            x       y       z     vdW  Elec       q    Type
REMARK                         _______ _______ _______ _____ _____    ______ ____
ROOT
ATOM      1  N2  UNL     1      21.857   6.276  32.980  0.00  0.00    -0.295 N 
ATOM      2  C7  UNL     1      23.183   6.591  32.440  0.00  0.00    +0.132 C 
ATOM      3  C8  UNL     1      20.799   5.847  32.093  0.00  0.00    +0.265 C 
ATOM      4  O2  UNL     1      19.619   6.242  32.294  0.00  0.00    -0.268 OA
ENDROOT
BRANCH   3   5
ATOM      5  C9  UNL     1      21.066   4.917  30.971  0.00  0.00    +0.130 A 
ATOM      6  C10 UNL     1      21.270   3.548  31.203  0.00  0.00    +0.041 A 
ATOM      7  C11 UNL     1      21.540   2.695  30.126  0.00  0.00    -0.011 A 
ATOM      8  C12 UNL     1      21.742   1.322  30.334  0.00  0.00    +0.009 A 
ATOM      9  C13 UNL     1      22.011   0.480  29.251  0.00  0.00    +0.001 A 
ATOM     10  C14 UNL     1      22.081   1.000  27.957  0.00  0.00    +0.001 A 
ATOM     11  C15 UNL     1      21.883   2.365  27.735  0.00  0.00    +0.014 A 
ATOM     12  C16 UNL     1      21.611   3.224  28.815  0.00  0.00    +0.044 A 
ATOM     13  C17 UNL     1      21.408   4.602  28.629  0.00  0.00    +0.221 A 
ATOM     14  N3  UNL     1      21.148   5.398  29.701  0.00  0.00    -0.208 NA
BRANCH  13  15
ATOM     15  O3  UNL     1      21.471   5.166  27.357  0.00  0.00    -0.492 OA
ATOM     16  H21 UNL     1      22.361   5.407  26.938  0.00  0.00    +0.294 HD
ENDBRANCH  13  15
ENDBRANCH   3   5
BRANCH   1  20
ATOM     17  N1  UNL     1      22.155   8.015  36.156  0.00  0.00    -0.298 NA
ATOM     18  C4  UNL     1      23.306   7.105  36.046  0.00  0.00    +0.086 C 
ATOM     19  C5  UNL     1      22.870   5.897  35.232  0.00  0.00    +0.039 C 
ATOM     20  C6  UNL     1      21.657   6.374  34.442  0.00  0.00    +0.091 C 
ATOM     21  C18 UNL     1      21.397   7.810  34.910  0.00  0.00    +0.107 C 
BRANCH  17  22
ATOM     22  C3  UNL     1      21.332   7.723  37.358  0.00  0.00    +0.115 C 
BRANCH  22  24
ATOM     23  C1  UNL     1      18.856   7.318  37.736  0.00  0.00    +0.039 C 
ATOM     24  C2  UNL     1      19.909   8.296  37.211  0.00  0.00    +0.125 C 
BRANCH  24  25
ATOM     25  O1  UNL     1      19.785   9.515  37.894  0.00  0.00    -0.391 OA
ATOM     26  H5  UNL     1      20.706   9.821  38.102  0.00  0.00    +0.210 HD
ENDBRANCH  24  25
ENDBRANCH  22  24
ENDBRANCH  17  22
ENDBRANCH   1  20
TORSDOF 6
ENDMDL
MODEL 9
REMARK VINA RESULT:    -5.856      4.080      7.401
REMARK INTER + INTRA:          -8.037
REMARK INTER:                  -7.393
REMARK INTRA:                  -0.644
REMARK UNBOUND:                -0.470
REMARK  Name = /home/qwerty/github/datacon2025hack/step_04_hit_selection/docking/ligands/lig_239.pdb
REMARK  8 active torsions:
REMARK  status: ('A' for Active; 'I' for Inactive)
REMARK    1  A    between atoms: C1_1  and  C2_2
REMARK    2  A    between atoms: C2_2  and  O1_3
REMARK    3  A    between atoms: C2_2  and  C3_4
REMARK    4  A    between atoms: C3_4  and  N1_5
REMARK    5  A    between atoms: C6_8  and  N2_9
REMARK    6  A    between atoms: N2_9  and  C7_10
REMARK    7  A    between atoms: C8_11  and  C9_13
REMARK    8  A    between atoms: C17_21  and  O3_22
REMARK                            x       y       z     vdW  Elec       q    Type
REMARK                         _______ _______ _______ _____ _____    ______ ____
ROOT
ATOM      1  N2  UNL     1      11.259  12.113  29.779  0.00  0.00    -0.295 N 
ATOM      2  C7  UNL     1      12.258  11.081  29.486  0.00  0.00    +0.132 C 
ATOM      3  C8  UNL     1      11.676  13.479  30.004  0.00  0.00    +0.265 C 
ATOM      4  O2  UNL     1      11.097  14.170  30.885  0.00  0.00    -0.268 OA
ENDROOT
BRANCH   3   5
ATOM      5  C9  UNL     1      12.747  14.100  29.190  0.00  0.00    +0.130 A 
ATOM      6  C10 UNL     1      13.912  14.600  29.791  0.00  0.00    +0.041 A 
ATOM      7  C11 UNL     1      14.899  15.200  28.999  0.00  0.00    -0.011 A 
ATOM      8  C12 UNL     1      16.075  15.702  29.579  0.00  0.00    +0.009 A 
ATOM      9  C13 UNL     1      17.053  16.298  28.779  0.00  0.00    +0.001 A 
ATOM     10  C14 UNL     1      16.866  16.399  27.399  0.00  0.00    +0.001 A 
ATOM     11  C15 UNL     1      15.700  15.905  26.808  0.00  0.00    +0.014 A 
ATOM     12  C16 UNL     1      14.707  15.302  27.601  0.00  0.00    +0.044 A 
ATOM     13  C17 UNL     1      13.523  14.795  27.041  0.00  0.00    +0.221 A 
ATOM     14  N3  UNL     1      12.587  14.220  27.843  0.00  0.00    -0.208 NA
BRANCH  13  15
ATOM     15  O3  UNL     1      13.291  14.876  25.670  0.00  0.00    -0.492 OA
ATOM     16  H21 UNL     1      13.158  14.041  25.114  0.00  0.00    +0.294 HD
ENDBRANCH  13  15
ENDBRANCH   3   5
BRANCH   1  20
ATOM     17  N1  UNL     1       8.552   9.804  29.044  0.00  0.00    -0.298 NA
ATOM     18  C4  UNL     1       8.608  10.778  27.943  0.00  0.00    +0.086 C 
ATOM     19  C5  UNL     1       9.106  12.097  28.511  0.00  0.00    +0.039 C 
ATOM     20  C6  UNL     1       9.834  11.720  29.796  0.00  0.00    +0.091 C 
ATOM     21  C18 UNL     1       9.638  10.208  29.954  0.00  0.00    +0.107 C 
BRANCH  17  22
ATOM     22  C3  UNL     1       7.231   9.810  29.723  0.00  0.00    +0.115 C 
BRANCH  22  24
ATOM     23  C1  UNL     1       7.510   7.319  29.329  0.00  0.00    +0.039 C 
ATOM     24  C2  UNL     1       6.833   8.394  30.182  0.00  0.00    +0.125 C 
BRANCH  24  25
ATOM     25  O1  UNL     1       7.167   8.190  31.530  0.00  0.00    -0.391 OA
ATOM     26  H5  UNL     1       8.144   8.344  31.609  0.00  0.00    +0.210 HD
ENDBRANCH  24  25
ENDBRANCH  22  24
ENDBRANCH  17  22
ENDBRANCH   1  20
TORSDOF 6
ENDMDL
