REMARK  Name = /home/qwerty/github/datacon2025hack/step_04_hit_selection/docking/ligands/lig_532.pdb
REMARK  5 active torsions:
REMARK  status: ('A' for Active; 'I' for Inactive)
REMARK    1  A    between atoms: C1_1  and  C2_2
REMARK    2  A    between atoms: C10_10  and  N1_11
REMARK    3  A    between atoms: C11_12  and  C12_14
REMARK    4  A    between atoms: N2_16  and  C13_17
REMARK    5  A    between atoms: C16_20  and  C17_21
REMARK                            x       y       z     vdW  Elec       q    Type
REMARK                         _______ _______ _______ _____ _____    ______ ____
ROOT
ATOM      1  C12 UNL     1      -0.724  -1.297  -0.050  0.00  0.00    +0.303 C 
ATOM      2  O2  UNL     1      -0.434  -0.071  -0.096  0.00  0.00    -0.265 OA
ATOM      3  N2  UNL     1       0.309  -2.289  -0.177  0.00  0.00    -0.278 N 
ATOM      4  H13 UNL     1       0.029  -3.255  -0.463  0.00  0.00    +0.155 HD
ENDROOT
BRANCH   3   5
ATOM      5  C13 UNL     1       1.715  -2.004  -0.072  0.00  0.00    +0.037 A 
ATOM      6  C14 UNL     1       2.627  -2.764  -0.817  0.00  0.00    +0.024 A 
ATOM      7  C15 UNL     1       4.000  -2.521  -0.719  0.00  0.00    +0.018 A 
ATOM      8  C16 UNL     1       4.484  -1.513   0.129  0.00  0.00    +0.072 A 
ATOM      9  C22 UNL     1       3.575  -0.779   0.912  0.00  0.00    +0.137 A 
ATOM     10  F1  UNL     1       4.016   0.135   1.812  0.00  0.00    -0.205 F 
ATOM     11  C23 UNL     1       2.201  -1.025   0.812  0.00  0.00    +0.062 A 
BRANCH   8  12
ATOM     12  C17 UNL     1       5.939  -1.266   0.218  0.00  0.00    +0.250 C 
ATOM     13  O3  UNL     1       6.721  -2.254   0.277  0.00  0.00    -0.270 OA
ATOM     14  N3  UNL     1       6.481   0.069   0.210  0.00  0.00    -0.293 N 
ATOM     15  C18 UNL     1       5.805   1.164  -0.494  0.00  0.00    +0.136 C 
ATOM     16  C19 UNL     1       6.849   2.062  -1.164  0.00  0.00    +0.179 C 
ATOM     17  O4  UNL     1       7.829   2.478  -0.230  0.00  0.00    -0.377 OA
ATOM     18  C20 UNL     1       8.564   1.357   0.225  0.00  0.00    +0.179 C 
ATOM     19  C21 UNL     1       7.666   0.397   1.009  0.00  0.00    +0.136 C 
ENDBRANCH   8  12
ENDBRANCH   3   5
BRANCH   1  21
ATOM     20  N1  UNL     1      -3.180  -0.721   0.139  0.00  0.00    -0.301 N 
ATOM     21  C11 UNL     1      -2.135  -1.705   0.089  0.00  0.00    +0.300 C 
ATOM     22  O1  UNL     1      -2.422  -2.931   0.169  0.00  0.00    -0.265 OA
ATOM     23  H12 UNL     1      -2.927   0.291   0.068  0.00  0.00    +0.150 HD
BRANCH  20  33
ATOM     24  C1  UNL     1      -8.110   3.434   0.795  0.00  0.00    +0.044 C 
ATOM     25  C2  UNL     1      -7.199   2.245   0.721  0.00  0.00    -0.050 A 
ATOM     26  C3  UNL     1      -6.272   1.996   1.756  0.00  0.00    +0.004 A 
ATOM     27  C4  UNL     1      -5.391   0.907   1.672  0.00  0.00    +0.006 A 
ATOM     28  C5  UNL     1      -5.439   0.087   0.542  0.00  0.00    -0.024 A 
ATOM     29  C6  UNL     1      -6.331   0.331  -0.472  0.00  0.00    -0.042 A 
ATOM     30  C7  UNL     1      -7.216   1.410  -0.413  0.00  0.00    +0.007 A 
ATOM     31  C8  UNL     1      -6.210  -0.653  -1.572  0.00  0.00    +0.037 C 
ATOM     32  C9  UNL     1      -5.145  -1.647  -1.071  0.00  0.00    +0.032 C 
ATOM     33  C10 UNL     1      -4.591  -1.102   0.267  0.00  0.00    +0.104 C 
ENDBRANCH  20  33
ENDBRANCH   1  21
TORSDOF 4
