REMARK  Name = /home/qwerty/github/datacon2025hack/step_04_hit_selection/docking/ligands/lig_29.pdb
REMARK  7 active torsions:
REMARK  status: ('A' for Active; 'I' for Inactive)
REMARK    1  A    between atoms: C4_4  and  C5_5
REMARK    2  A    between atoms: C4_4  and  C6_6
REMARK    3  A    between atoms: C9_11  and  N2_12
REMARK    4  A    between atoms: C10_13  and  C11_15
REMARK    5  A    between atoms: C13_17  and  C14_18
REMARK    6  A    between atoms: N3_19  and  C15_20
REMARK    7  A    between atoms: C16_22  and  C17_23
REMARK                            x       y       z     vdW  Elec       q    Type
REMARK                         _______ _______ _______ _____ _____    ______ ____
ROOT
ATOM      1  C6  UNL     1       3.598   1.017   0.630  0.00  0.00    +0.222 C 
ATOM      2  O1  UNL     1       3.972   2.072   1.212  0.00  0.00    -0.275 OA
ATOM      3  N1  UNL     1       2.203   0.859   0.303  0.00  0.00    -0.301 N 
ATOM      4  C7  UNL     1       1.186   1.379   1.223  0.00  0.00    +0.109 C 
ATOM      5  C8  UNL     1       0.060   0.353   1.402  0.00  0.00    +0.041 C 
ATOM      6  C9  UNL     1      -0.426  -0.285   0.072  0.00  0.00    +0.079 C 
ATOM      7  C16 UNL     1       0.263   0.327  -1.176  0.00  0.00    +0.024 C 
ATOM      8  C17 UNL     1      -0.126  -0.424  -2.459  0.00  0.00    +0.011 C 
ATOM      9  C18 UNL     1       1.795   0.312  -1.001  0.00  0.00    +0.112 C 
ENDROOT
BRANCH   1  13
ATOM     10  C1  UNL     1       7.562   0.069  -1.550  0.00  0.00    +0.007 C 
ATOM     11  C2  UNL     1       6.448   0.016  -0.825  0.00  0.00    -0.075 C 
ATOM     12  C3  UNL     1       4.980  -0.295  -1.061  0.00  0.00    +0.046 C 
ATOM     13  C4  UNL     1       4.594  -0.109   0.387  0.00  0.00    +0.052 C 
ATOM     14  C5  UNL     1       4.183  -1.412   1.098  0.00  0.00    +0.021 C 
ATOM     15  C19 UNL     1       6.049   0.242   0.622  0.00  0.00    +0.046 C 
ENDBRANCH   1  13
BRANCH   6  16
ATOM     16  N2  UNL     1      -1.886  -0.163  -0.030  0.00  0.00    -0.307 N 
ATOM     17  C10 UNL     1      -2.773  -1.012   0.716  0.00  0.00    +0.264 C 
ATOM     18  O2  UNL     1      -2.301  -1.900   1.477  0.00  0.00    -0.268 OA
ATOM     19  H13 UNL     1      -2.285   0.601  -0.619  0.00  0.00    +0.149 HD
BRANCH  17  20
ATOM     20  C11 UNL     1      -4.236  -0.866   0.615  0.00  0.00    +0.147 A 
ATOM     21  C12 UNL     1      -4.933   0.022  -0.190  0.00  0.00    +0.057 A 
ATOM     22  C13 UNL     1      -6.260  -0.241   0.086  0.00  0.00    +0.037 A 
ATOM     23  C14 UNL     1      -7.437   0.420  -0.559  0.00  0.00    +0.065 C 
ATOM     24  N3  UNL     1      -6.326  -1.237   0.991  0.00  0.00    -0.271 N 
ATOM     25  C15 UNL     1      -7.538  -1.832   1.545  0.00  0.00    +0.172 C 
ATOM     26  N4  UNL     1      -5.104  -1.621   1.322  0.00  0.00    -0.167 NA
ENDBRANCH  17  20
ENDBRANCH   6  16
TORSDOF 3
