MODEL 1
REMARK VINA RESULT:    -6.141      0.000      0.000
REMARK INTER + INTRA:          -8.944
REMARK INTER:                  -8.296
REMARK INTRA:                  -0.648
REMARK UNBOUND:                -0.648
REMARK  Name = /home/qwerty/github/datacon2025hack/step_04_hit_selection/docking/ligands/lig_278.pdb
REMARK  8 active torsions:
REMARK  status: ('A' for Active; 'I' for Inactive)
REMARK    1  A    between atoms: C1_1  and  C2_2
REMARK    2  A    between atoms: C2_2  and  C3_3
REMARK    3  A    between atoms: C2_2  and  N3_18
REMARK    4  A    between atoms: C3_3  and  N1_4
REMARK    5  A    between atoms: N1_4  and  C4_5
REMARK    6  A    between atoms: C5_6  and  C6_8
REMARK    7  A    between atoms: C14_19  and  C15_21
REMARK    8  A    between atoms: C17_23  and  C18_24
REMARK                            x       y       z     vdW  Elec       q    Type
REMARK                         _______ _______ _______ _____ _____    ______ ____
ROOT
ATOM      1  N1  UNL     1      22.074   2.457  28.773  0.00  0.00    -0.298 N 
ATOM      2  C4  UNL     1      21.388   3.755  28.804  0.00  0.00    +0.132 C 
ATOM      3  C5  UNL     1      22.445   1.791  30.001  0.00  0.00    +0.265 C 
ATOM      4  O1  UNL     1      23.502   1.102  30.028  0.00  0.00    -0.268 OA
ENDROOT
BRANCH   3   5
ATOM      5  C6  UNL     1      21.608   1.872  31.222  0.00  0.00    +0.126 A 
ATOM      6  C7  UNL     1      20.475   1.052  31.371  0.00  0.00    +0.040 A 
ATOM      7  C8  UNL     1      19.683   1.166  32.521  0.00  0.00    -0.002 A 
ATOM      8  C9  UNL     1      20.050   2.079  33.524  0.00  0.00    +0.142 A 
ATOM      9  C10 UNL     1      21.170   2.888  33.333  0.00  0.00    +0.157 A 
ATOM     10  N2  UNL     1      21.912   2.770  32.200  0.00  0.00    -0.247 NA
ATOM     11  O2  UNL     1      19.288   2.196  34.692  0.00  0.00    -0.490 OA
ATOM     12  C11 UNL     1      18.243   1.275  35.008  0.00  0.00    +0.229 C 
ATOM     13  C12 UNL     1      17.499   0.860  33.735  0.00  0.00    +0.046 C 
ATOM     14  C13 UNL     1      18.482   0.273  32.714  0.00  0.00    +0.042 C 
ENDBRANCH   3   5
BRANCH   1  15
ATOM     15  C3  UNL     1      22.487   1.885  27.482  0.00  0.00    +0.129 C 
BRANCH  15  17
ATOM     16  C1  UNL     1      22.507   3.252  25.343  0.00  0.00    +0.029 C 
ATOM     17  C2  UNL     1      21.643   2.452  26.323  0.00  0.00    +0.087 C 
BRANCH  17  18
ATOM     18  N3  UNL     1      20.981   1.356  25.610  0.00  0.00    -0.311 N 
ATOM     19  C14 UNL     1      19.669   0.893  25.958  0.00  0.00    +0.217 C 
ATOM     20  O3  UNL     1      19.014   1.456  26.877  0.00  0.00    -0.275 OA
ATOM     21  H18 UNL     1      21.457   0.924  24.784  0.00  0.00    +0.149 HD
BRANCH  19  22
ATOM     22  C15 UNL     1      19.044  -0.234  25.195  0.00  0.00    +0.079 C 
ATOM     23  C16 UNL     1      18.151   0.199  24.037  0.00  0.00    +0.017 C 
ATOM     24  C17 UNL     1      17.527  -0.319  25.325  0.00  0.00    +0.005 C 
BRANCH  24  25
ATOM     25  C18 UNL     1      16.981  -1.747  25.239  0.00  0.00    -0.007 C 
ATOM     26  C19 UNL     1      16.985  -2.321  23.832  0.00  0.00    +0.004 C 
ATOM     27  C20 UNL     1      18.007  -2.799  24.851  0.00  0.00    +0.004 C 
ENDBRANCH  24  25
ENDBRANCH  19  22
ENDBRANCH  17  18
ENDBRANCH  15  17
ENDBRANCH   1  15
TORSDOF 6
ENDMDL
MODEL 2
REMARK VINA RESULT:    -6.049      2.788      8.899
REMARK INTER + INTRA:          -8.819
REMARK INTER:                  -8.174
REMARK INTRA:                  -0.646
REMARK UNBOUND:                -0.648
REMARK  Name = /home/qwerty/github/datacon2025hack/step_04_hit_selection/docking/ligands/lig_278.pdb
REMARK  8 active torsions:
REMARK  status: ('A' for Active; 'I' for Inactive)
REMARK    1  A    between atoms: C1_1  and  C2_2
REMARK    2  A    between atoms: C2_2  and  C3_3
REMARK    3  A    between atoms: C2_2  and  N3_18
REMARK    4  A    between atoms: C3_3  and  N1_4
REMARK    5  A    between atoms: N1_4  and  C4_5
REMARK    6  A    between atoms: C5_6  and  C6_8
REMARK    7  A    between atoms: C14_19  and  C15_21
REMARK    8  A    between atoms: C17_23  and  C18_24
REMARK                            x       y       z     vdW  Elec       q    Type
REMARK                         _______ _______ _______ _____ _____    ______ ____
ROOT
ATOM      1  N1  UNL     1      20.660   0.904  29.298  0.00  0.00    -0.298 N 
ATOM      2  C4  UNL     1      19.293   1.434  29.219  0.00  0.00    +0.132 C 
ATOM      3  C5  UNL     1      21.427   0.665  28.098  0.00  0.00    +0.265 C 
ATOM      4  O1  UNL     1      22.238  -0.302  28.072  0.00  0.00    -0.268 OA
ENDROOT
BRANCH   3   5
ATOM      5  C6  UNL     1      21.312   1.537  26.904  0.00  0.00    +0.126 A 
ATOM      6  C7  UNL     1      22.104   2.692  26.780  0.00  0.00    +0.040 A 
ATOM      7  C8  UNL     1      21.957   3.517  25.657  0.00  0.00    -0.002 A 
ATOM      8  C9  UNL     1      21.038   3.160  24.655  0.00  0.00    +0.142 A 
ATOM      9  C10 UNL     1      20.256   2.017  24.822  0.00  0.00    +0.157 A 
ATOM     10  N2  UNL     1      20.406   1.244  25.929  0.00  0.00    -0.247 NA
ATOM     11  O2  UNL     1      20.887   3.955  23.513  0.00  0.00    -0.490 OA
ATOM     12  C11 UNL     1      21.781   5.030  23.217  0.00  0.00    +0.229 C 
ATOM     13  C12 UNL     1      22.197   5.743  24.507  0.00  0.00    +0.046 C 
ATOM     14  C13 UNL     1      22.820   4.742  25.489  0.00  0.00    +0.042 C 
ENDBRANCH   3   5
BRANCH   1  15
ATOM     15  C3  UNL     1      21.209   0.507  30.605  0.00  0.00    +0.129 C 
BRANCH  15  17
ATOM     16  C1  UNL     1      19.889   0.352  32.767  0.00  0.00    +0.029 C 
ATOM     17  C2  UNL     1      20.547   1.293  31.753  0.00  0.00    +0.087 C 
BRANCH  17  18
ATOM     18  N3  UNL     1      21.548   2.120  32.431  0.00  0.00    -0.311 N 
ATOM     19  C14 UNL     1      21.914   3.426  31.963  0.00  0.00    +0.217 C 
ATOM     20  O3  UNL     1      21.339   3.930  30.960  0.00  0.00    -0.275 OA
ATOM     21  H18 UNL     1      21.982   1.772  33.317  0.00  0.00    +0.149 HD
BRANCH  19  22
ATOM     22  C15 UNL     1      22.948   4.223  32.696  0.00  0.00    +0.079 C 
ATOM     23  C16 UNL     1      22.392   5.157  33.765  0.00  0.00    +0.017 C 
ATOM     24  C17 UNL     1      22.883   5.725  32.441  0.00  0.00    +0.005 C 
BRANCH  24  25
ATOM     25  C18 UNL     1      24.245   6.421  32.512  0.00  0.00    -0.007 C 
ATOM     26  C19 UNL     1      24.317   7.522  33.558  0.00  0.00    +0.004 C 
ATOM     27  C20 UNL     1      25.010   6.192  33.806  0.00  0.00    +0.004 C 
ENDBRANCH  24  25
ENDBRANCH  19  22
ENDBRANCH  17  18
ENDBRANCH  15  17
ENDBRANCH   1  15
TORSDOF 6
ENDMDL
MODEL 3
REMARK VINA RESULT:    -6.017      3.716      6.185
REMARK INTER + INTRA:          -8.775
REMARK INTER:                  -7.916
REMARK INTRA:                  -0.859
REMARK UNBOUND:                -0.648
REMARK  Name = /home/qwerty/github/datacon2025hack/step_04_hit_selection/docking/ligands/lig_278.pdb
REMARK  8 active torsions:
REMARK  status: ('A' for Active; 'I' for Inactive)
REMARK    1  A    between atoms: C1_1  and  C2_2
REMARK    2  A    between atoms: C2_2  and  C3_3
REMARK    3  A    between atoms: C2_2  and  N3_18
REMARK    4  A    between atoms: C3_3  and  N1_4
REMARK    5  A    between atoms: N1_4  and  C4_5
REMARK    6  A    between atoms: C5_6  and  C6_8
REMARK    7  A    between atoms: C14_19  and  C15_21
REMARK    8  A    between atoms: C17_23  and  C18_24
REMARK                            x       y       z     vdW  Elec       q    Type
REMARK                         _______ _______ _______ _____ _____    ______ ____
ROOT
ATOM      1  N1  UNL     1      19.999   3.877  32.421  0.00  0.00    -0.298 N 
ATOM      2  C4  UNL     1      19.739   4.485  33.731  0.00  0.00    +0.132 C 
ATOM      3  C5  UNL     1      20.749   4.590  31.414  0.00  0.00    +0.265 C 
ATOM      4  O1  UNL     1      20.455   4.423  30.198  0.00  0.00    -0.268 OA
ENDROOT
BRANCH   3   5
ATOM      5  C6  UNL     1      21.873   5.493  31.763  0.00  0.00    +0.126 A 
ATOM      6  C7  UNL     1      21.900   6.819  31.297  0.00  0.00    +0.040 A 
ATOM      7  C8  UNL     1      22.986   7.645  31.616  0.00  0.00    -0.002 A 
ATOM      8  C9  UNL     1      24.021   7.142  32.423  0.00  0.00    +0.142 A 
ATOM      9  C10 UNL     1      23.969   5.816  32.851  0.00  0.00    +0.157 A 
ATOM     10  N2  UNL     1      22.912   5.031  32.513  0.00  0.00    -0.247 NA
ATOM     11  O2  UNL     1      25.106   7.953  32.773  0.00  0.00    -0.490 OA
ATOM     12  C11 UNL     1      25.119   9.356  32.508  0.00  0.00    +0.229 C 
ATOM     13  C12 UNL     1      24.444   9.647  31.164  0.00  0.00    +0.046 C 
ATOM     14  C13 UNL     1      23.017   9.080  31.153  0.00  0.00    +0.042 C 
ENDBRANCH   3   5
BRANCH   1  15
ATOM     15  C3  UNL     1      19.393   2.576  32.093  0.00  0.00    +0.129 C 
BRANCH  15  17
ATOM     16  C1  UNL     1      20.156   0.209  32.598  0.00  0.00    +0.029 C 
ATOM     17  C2  UNL     1      20.470   1.504  31.841  0.00  0.00    +0.087 C 
BRANCH  17  18
ATOM     18  N3  UNL     1      20.564   1.222  30.407  0.00  0.00    -0.311 N 
ATOM     19  C14 UNL     1      21.807   1.272  29.691  0.00  0.00    +0.217 C 
ATOM     20  O3  UNL     1      22.884   1.520  30.297  0.00  0.00    -0.275 OA
ATOM     21  H18 UNL     1      19.705   0.925  29.888  0.00  0.00    +0.149 HD
BRANCH  19  22
ATOM     22  C15 UNL     1      21.840   0.977  28.223  0.00  0.00    +0.079 C 
ATOM     23  C16 UNL     1      22.009   2.203  27.333  0.00  0.00    +0.017 C 
ATOM     24  C17 UNL     1      20.650   1.526  27.444  0.00  0.00    +0.005 C 
BRANCH  24  25
ATOM     25  C18 UNL     1      20.262   0.674  26.232  0.00  0.00    -0.007 C 
ATOM     26  C19 UNL     1      18.905   1.025  25.645  0.00  0.00    +0.004 C 
ATOM     27  C20 UNL     1      20.177   1.435  24.919  0.00  0.00    +0.004 C 
ENDBRANCH  24  25
ENDBRANCH  19  22
ENDBRANCH  17  18
ENDBRANCH  15  17
ENDBRANCH   1  15
TORSDOF 6
ENDMDL
MODEL 4
REMARK VINA RESULT:    -5.931      3.691      9.438
REMARK INTER + INTRA:          -8.659
REMARK INTER:                  -8.118
REMARK INTRA:                  -0.541
REMARK UNBOUND:                -0.648
REMARK  Name = /home/qwerty/github/datacon2025hack/step_04_hit_selection/docking/ligands/lig_278.pdb
REMARK  8 active torsions:
REMARK  status: ('A' for Active; 'I' for Inactive)
REMARK    1  A    between atoms: C1_1  and  C2_2
REMARK    2  A    between atoms: C2_2  and  C3_3
REMARK    3  A    between atoms: C2_2  and  N3_18
REMARK    4  A    between atoms: C3_3  and  N1_4
REMARK    5  A    between atoms: N1_4  and  C4_5
REMARK    6  A    between atoms: C5_6  and  C6_8
REMARK    7  A    between atoms: C14_19  and  C15_21
REMARK    8  A    between atoms: C17_23  and  C18_24
REMARK                            x       y       z     vdW  Elec       q    Type
REMARK                         _______ _______ _______ _____ _____    ______ ____
ROOT
ATOM      1  N1  UNL     1      21.694   2.458  30.097  0.00  0.00    -0.298 N 
ATOM      2  C4  UNL     1      20.298   2.913  30.114  0.00  0.00    +0.132 C 
ATOM      3  C5  UNL     1      22.251   1.835  28.919  0.00  0.00    +0.265 C 
ATOM      4  O1  UNL     1      23.116   0.927  29.057  0.00  0.00    -0.268 OA
ENDROOT
BRANCH   3   5
ATOM      5  C6  UNL     1      21.857   2.248  27.550  0.00  0.00    +0.126 A 
ATOM      6  C7  UNL     1      22.284   3.479  27.021  0.00  0.00    +0.040 A 
ATOM      7  C8  UNL     1      21.875   3.862  25.737  0.00  0.00    -0.002 A 
ATOM      8  C9  UNL     1      21.067   2.994  24.983  0.00  0.00    +0.142 A 
ATOM      9  C10 UNL     1      20.648   1.790  25.548  0.00  0.00    +0.157 A 
ATOM     10  N2  UNL     1      21.044   1.450  26.803  0.00  0.00    -0.247 NA
ATOM     11  O2  UNL     1      20.663   3.344  23.690  0.00  0.00    -0.490 OA
ATOM     12  C11 UNL     1      21.205   4.476  23.008  0.00  0.00    +0.229 C 
ATOM     13  C12 UNL     1      21.439   5.625  23.994  0.00  0.00    +0.046 C 
ATOM     14  C13 UNL     1      22.349   5.164  25.140  0.00  0.00    +0.042 C 
ENDBRANCH   3   5
BRANCH   1  15
ATOM     15  C3  UNL     1      22.496   2.535  31.328  0.00  0.00    +0.129 C 
BRANCH  15  17
ATOM     16  C1  UNL     1      21.530   2.915  33.644  0.00  0.00    +0.029 C 
ATOM     17  C2  UNL     1      21.914   3.568  32.312  0.00  0.00    +0.087 C 
BRANCH  17  18
ATOM     18  N3  UNL     1      22.893   4.632  32.552  0.00  0.00    -0.311 N 
ATOM     19  C14 UNL     1      22.727   5.961  32.038  0.00  0.00    +0.217 C 
ATOM     20  O3  UNL     1      21.692   6.272  31.390  0.00  0.00    -0.275 OA
ATOM     21  H18 UNL     1      23.721   4.435  33.161  0.00  0.00    +0.149 HD
BRANCH  19  22
ATOM     22  C15 UNL     1      23.765   7.006  32.313  0.00  0.00    +0.079 C 
ATOM     23  C16 UNL     1      24.069   7.227  33.791  0.00  0.00    +0.017 C 
ATOM     24  C17 UNL     1      23.236   8.245  33.026  0.00  0.00    +0.005 C 
BRANCH  24  25
ATOM     25  C18 UNL     1      23.982   9.531  32.659  0.00  0.00    -0.007 C 
ATOM     26  C19 UNL     1      25.438   9.310  32.284  0.00  0.00    +0.004 C 
ATOM     27  C20 UNL     1      24.414   9.623  31.205  0.00  0.00    +0.004 C 
ENDBRANCH  24  25
ENDBRANCH  19  22
ENDBRANCH  17  18
ENDBRANCH  15  17
ENDBRANCH   1  15
TORSDOF 6
ENDMDL
MODEL 5
REMARK VINA RESULT:    -5.889     14.306     16.409
REMARK INTER + INTRA:          -8.603
REMARK INTER:                  -8.087
REMARK INTRA:                  -0.515
REMARK UNBOUND:                -0.648
REMARK  Name = /home/qwerty/github/datacon2025hack/step_04_hit_selection/docking/ligands/lig_278.pdb
REMARK  8 active torsions:
REMARK  status: ('A' for Active; 'I' for Inactive)
REMARK    1  A    between atoms: C1_1  and  C2_2
REMARK    2  A    between atoms: C2_2  and  C3_3
REMARK    3  A    between atoms: C2_2  and  N3_18
REMARK    4  A    between atoms: C3_3  and  N1_4
REMARK    5  A    between atoms: N1_4  and  C4_5
REMARK    6  A    between atoms: C5_6  and  C6_8
REMARK    7  A    between atoms: C14_19  and  C15_21
REMARK    8  A    between atoms: C17_23  and  C18_24
REMARK                            x       y       z     vdW  Elec       q    Type
REMARK                         _______ _______ _______ _____ _____    ______ ____
ROOT
ATOM      1  N1  UNL     1      10.050  12.691  27.559  0.00  0.00    -0.298 N 
ATOM      2  C4  UNL     1      11.061  11.687  27.209  0.00  0.00    +0.132 C 
ATOM      3  C5  UNL     1       8.654  12.330  27.650  0.00  0.00    +0.265 C 
ATOM      4  O1  UNL     1       7.779  13.176  27.317  0.00  0.00    -0.268 OA
ENDROOT
BRANCH   3   5
ATOM      5  C6  UNL     1       8.217  11.004  28.151  0.00  0.00    +0.126 A 
ATOM      6  C7  UNL     1       8.130   9.902  27.282  0.00  0.00    +0.040 A 
ATOM      7  C8  UNL     1       7.687   8.666  27.770  0.00  0.00    -0.002 A 
ATOM      8  C9  UNL     1       7.362   8.539  29.132  0.00  0.00    +0.142 A 
ATOM      9  C10 UNL     1       7.443   9.659  29.960  0.00  0.00    +0.157 A 
ATOM     10  N2  UNL     1       7.859  10.851  29.456  0.00  0.00    -0.247 NA
ATOM     11  O2  UNL     1       6.938   7.310  29.650  0.00  0.00    -0.490 OA
ATOM     12  C11 UNL     1       7.007   6.105  28.887  0.00  0.00    +0.229 C 
ATOM     13  C12 UNL     1       6.678   6.387  27.418  0.00  0.00    +0.046 C 
ATOM     14  C13 UNL     1       7.618   7.464  26.861  0.00  0.00    +0.042 C 
ENDBRANCH   3   5
BRANCH   1  15
ATOM     15  C3  UNL     1      10.448  14.101  27.705  0.00  0.00    +0.129 C 
BRANCH  15  17
ATOM     16  C1  UNL     1      12.730  15.149  27.339  0.00  0.00    +0.029 C 
ATOM     17  C2  UNL     1      11.893  14.223  28.227  0.00  0.00    +0.087 C 
BRANCH  17  18
ATOM     18  N3  UNL     1      11.882  14.737  29.599  0.00  0.00    -0.311 N 
ATOM     19  C14 UNL     1      11.722  13.884  30.740  0.00  0.00    +0.217 C 
ATOM     20  O3  UNL     1      11.628  12.634  30.597  0.00  0.00    -0.275 OA
ATOM     21  H18 UNL     1      12.047  15.758  29.762  0.00  0.00    +0.149 HD
BRANCH  19  22
ATOM     22  C15 UNL     1      11.715  14.468  32.119  0.00  0.00    +0.079 C 
ATOM     23  C16 UNL     1      13.008  14.264  32.902  0.00  0.00    +0.017 C 
ATOM     24  C17 UNL     1      11.776  13.436  33.240  0.00  0.00    +0.005 C 
BRANCH  24  25
ATOM     25  C18 UNL     1      11.047  13.870  34.516  0.00  0.00    -0.007 C 
ATOM     26  C19 UNL     1      10.952  12.778  35.569  0.00  0.00    +0.004 C 
ATOM     27  C20 UNL     1      11.922  13.934  35.757  0.00  0.00    +0.004 C 
ENDBRANCH  24  25
ENDBRANCH  19  22
ENDBRANCH  17  18
ENDBRANCH  15  17
ENDBRANCH   1  15
TORSDOF 6
ENDMDL
MODEL 6
REMARK VINA RESULT:    -5.865      2.396      7.264
REMARK INTER + INTRA:          -8.570
REMARK INTER:                  -7.719
REMARK INTRA:                  -0.851
REMARK UNBOUND:                -0.648
REMARK  Name = /home/qwerty/github/datacon2025hack/step_04_hit_selection/docking/ligands/lig_278.pdb
REMARK  8 active torsions:
REMARK  status: ('A' for Active; 'I' for Inactive)
REMARK    1  A    between atoms: C1_1  and  C2_2
REMARK    2  A    between atoms: C2_2  and  C3_3
REMARK    3  A    between atoms: C2_2  and  N3_18
REMARK    4  A    between atoms: C3_3  and  N1_4
REMARK    5  A    between atoms: N1_4  and  C4_5
REMARK    6  A    between atoms: C5_6  and  C6_8
REMARK    7  A    between atoms: C14_19  and  C15_21
REMARK    8  A    between atoms: C17_23  and  C18_24
REMARK                            x       y       z     vdW  Elec       q    Type
REMARK                         _______ _______ _______ _____ _____    ______ ____
ROOT
ATOM      1  N1  UNL     1      19.018   2.883  25.809  0.00  0.00    -0.298 N 
ATOM      2  C4  UNL     1      18.417   3.119  24.491  0.00  0.00    +0.132 C 
ATOM      3  C5  UNL     1      18.405   1.970  26.745  0.00  0.00    +0.265 C 
ATOM      4  O1  UNL     1      18.482   2.215  27.981  0.00  0.00    -0.268 OA
ENDROOT
BRANCH   3   5
ATOM      5  C6  UNL     1      17.710   0.737  26.300  0.00  0.00    +0.126 A 
ATOM      6  C7  UNL     1      16.413   0.440  26.754  0.00  0.00    +0.040 A 
ATOM      7  C8  UNL     1      15.788  -0.744  26.343  0.00  0.00    -0.002 A 
ATOM      8  C9  UNL     1      16.458  -1.606  25.457  0.00  0.00    +0.142 A 
ATOM      9  C10 UNL     1      17.751  -1.288  25.043  0.00  0.00    +0.157 A 
ATOM     10  N2  UNL     1      18.341  -0.140  25.471  0.00  0.00    -0.247 NA
ATOM     11  O2  UNL     1      15.847  -2.785  25.014  0.00  0.00    -0.490 OA
ATOM     12  C11 UNL     1      14.470  -3.064  25.269  0.00  0.00    +0.229 C 
ATOM     13  C12 UNL     1      14.076  -2.562  26.661  0.00  0.00    +0.046 C 
ATOM     14  C13 UNL     1      14.384  -1.065  26.792  0.00  0.00    +0.042 C 
ENDBRANCH   3   5
BRANCH   1  15
ATOM     15  C3  UNL     1      20.189   3.672  26.223  0.00  0.00    +0.129 C 
BRANCH  15  17
ATOM     16  C1  UNL     1      22.680   3.403  25.814  0.00  0.00    +0.029 C 
ATOM     17  C2  UNL     1      21.425   2.773  26.427  0.00  0.00    +0.087 C 
BRANCH  17  18
ATOM     18  N3  UNL     1      21.641   2.545  27.858  0.00  0.00    -0.311 N 
ATOM     19  C14 UNL     1      21.717   1.230  28.425  0.00  0.00    +0.217 C 
ATOM     20  O3  UNL     1      21.643   0.209  27.688  0.00  0.00    -0.275 OA
ATOM     21  H18 UNL     1      21.796   3.366  28.488  0.00  0.00    +0.149 HD
BRANCH  19  22
ATOM     22  C15 UNL     1      21.935   1.058  29.897  0.00  0.00    +0.079 C 
ATOM     23  C16 UNL     1      20.744   0.482  30.655  0.00  0.00    +0.017 C 
ATOM     24  C17 UNL     1      21.074   1.963  30.771  0.00  0.00    +0.005 C 
BRANCH  24  25
ATOM     25  C18 UNL     1      21.744   2.365  32.089  0.00  0.00    -0.007 C 
ATOM     26  C19 UNL     1      21.188   3.643  32.695  0.00  0.00    +0.004 C 
ATOM     27  C20 UNL     1      20.840   2.296  33.309  0.00  0.00    +0.004 C 
ENDBRANCH  24  25
ENDBRANCH  19  22
ENDBRANCH  17  18
ENDBRANCH  15  17
ENDBRANCH   1  15
TORSDOF 6
ENDMDL
MODEL 7
REMARK VINA RESULT:    -5.801     13.739     16.576
REMARK INTER + INTRA:          -8.483
REMARK INTER:                  -7.657
REMARK INTRA:                  -0.827
REMARK UNBOUND:                -0.648
REMARK  Name = /home/qwerty/github/datacon2025hack/step_04_hit_selection/docking/ligands/lig_278.pdb
REMARK  8 active torsions:
REMARK  status: ('A' for Active; 'I' for Inactive)
REMARK    1  A    between atoms: C1_1  and  C2_2
REMARK    2  A    between atoms: C2_2  and  C3_3
REMARK    3  A    between atoms: C2_2  and  N3_18
REMARK    4  A    between atoms: C3_3  and  N1_4
REMARK    5  A    between atoms: N1_4  and  C4_5
REMARK    6  A    between atoms: C5_6  and  C6_8
REMARK    7  A    between atoms: C14_19  and  C15_21
REMARK    8  A    between atoms: C17_23  and  C18_24
REMARK                            x       y       z     vdW  Elec       q    Type
REMARK                         _______ _______ _______ _____ _____    ______ ____
ROOT
ATOM      1  N1  UNL     1       9.428   8.525  26.875  0.00  0.00    -0.298 N 
ATOM      2  C4  UNL     1       9.234   7.222  26.228  0.00  0.00    +0.132 C 
ATOM      3  C5  UNL     1      10.122   9.591  26.190  0.00  0.00    +0.265 C 
ATOM      4  O1  UNL     1      10.827  10.395  26.862  0.00  0.00    -0.268 OA
ENDROOT
BRANCH   3   5
ATOM      5  C6  UNL     1      10.011   9.788  24.724  0.00  0.00    +0.126 A 
ATOM      6  C7  UNL     1      11.158   9.802  23.913  0.00  0.00    +0.040 A 
ATOM      7  C8  UNL     1      11.031  10.018  22.534  0.00  0.00    -0.002 A 
ATOM      8  C9  UNL     1       9.751  10.188  21.978  0.00  0.00    +0.142 A 
ATOM      9  C10 UNL     1       8.637  10.186  22.817  0.00  0.00    +0.157 A 
ATOM     10  N2  UNL     1       8.791   9.992  24.154  0.00  0.00    -0.247 NA
ATOM     11  O2  UNL     1       9.595  10.384  20.601  0.00  0.00    -0.490 OA
ATOM     12  C11 UNL     1      10.680  10.221  19.687  0.00  0.00    +0.229 C 
ATOM     13  C12 UNL     1      11.982  10.727  20.314  0.00  0.00    +0.046 C 
ATOM     14  C13 UNL     1      12.247  10.005  21.642  0.00  0.00    +0.042 C 
ENDBRANCH   3   5
BRANCH   1  15
ATOM     15  C3  UNL     1       9.013   8.709  28.275  0.00  0.00    +0.129 C 
BRANCH  15  17
ATOM     16  C1  UNL     1       6.777   9.468  29.206  0.00  0.00    +0.029 C 
ATOM     17  C2  UNL     1       8.023   9.881  28.416  0.00  0.00    +0.087 C 
BRANCH  17  18
ATOM     18  N3  UNL     1       8.678  11.006  29.089  0.00  0.00    -0.311 N 
ATOM     19  C14 UNL     1       8.642  12.342  28.568  0.00  0.00    +0.217 C 
ATOM     20  O3  UNL     1       7.993  12.602  27.518  0.00  0.00    -0.275 OA
ATOM     21  H18 UNL     1       9.150  10.845  30.009  0.00  0.00    +0.149 HD
BRANCH  19  22
ATOM     22  C15 UNL     1       9.335  13.451  29.299  0.00  0.00    +0.079 C 
ATOM     23  C16 UNL     1      10.701  13.827  28.736  0.00  0.00    +0.017 C 
ATOM     24  C17 UNL     1      10.605  13.028  30.028  0.00  0.00    +0.005 C 
BRANCH  24  25
ATOM     25  C18 UNL     1      10.883  13.836  31.299  0.00  0.00    -0.007 C 
ATOM     26  C19 UNL     1      11.866  13.169  32.246  0.00  0.00    +0.004 C 
ATOM     27  C20 UNL     1      12.302  14.367  31.418  0.00  0.00    +0.004 C 
ENDBRANCH  24  25
ENDBRANCH  19  22
ENDBRANCH  17  18
ENDBRANCH  15  17
ENDBRANCH   1  15
TORSDOF 6
ENDMDL
MODEL 8
REMARK VINA RESULT:    -5.738      4.566      9.287
REMARK INTER + INTRA:          -8.399
REMARK INTER:                  -7.326
REMARK INTRA:                  -1.074
REMARK UNBOUND:                -0.648
REMARK  Name = /home/qwerty/github/datacon2025hack/step_04_hit_selection/docking/ligands/lig_278.pdb
REMARK  8 active torsions:
REMARK  status: ('A' for Active; 'I' for Inactive)
REMARK    1  A    between atoms: C1_1  and  C2_2
REMARK    2  A    between atoms: C2_2  and  C3_3
REMARK    3  A    between atoms: C2_2  and  N3_18
REMARK    4  A    between atoms: C3_3  and  N1_4
REMARK    5  A    between atoms: N1_4  and  C4_5
REMARK    6  A    between atoms: C5_6  and  C6_8
REMARK    7  A    between atoms: C14_19  and  C15_21
REMARK    8  A    between atoms: C17_23  and  C18_24
REMARK                            x       y       z     vdW  Elec       q    Type
REMARK                         _______ _______ _______ _____ _____    ______ ____
ROOT
ATOM      1  N1  UNL     1      17.854   3.829  35.267  0.00  0.00    -0.298 N 
ATOM      2  C4  UNL     1      17.156   4.355  34.087  0.00  0.00    +0.132 C 
ATOM      3  C5  UNL     1      18.438   2.508  35.249  0.00  0.00    +0.265 C 
ATOM      4  O1  UNL     1      18.448   1.828  36.312  0.00  0.00    -0.268 OA
ENDROOT
BRANCH   3   5
ATOM      5  C6  UNL     1      19.052   1.937  34.025  0.00  0.00    +0.126 A 
ATOM      6  C7  UNL     1      20.207   2.511  33.467  0.00  0.00    +0.040 A 
ATOM      7  C8  UNL     1      20.752   1.972  32.294  0.00  0.00    -0.002 A 
ATOM      8  C9  UNL     1      20.151   0.845  31.708  0.00  0.00    +0.142 A 
ATOM      9  C10 UNL     1      18.995   0.314  32.281  0.00  0.00    +0.157 A 
ATOM     10  N2  UNL     1      18.476   0.867  33.409  0.00  0.00    -0.247 NA
ATOM     11  O2  UNL     1      20.688   0.274  30.549  0.00  0.00    -0.490 OA
ATOM     12  C11 UNL     1      21.958   0.671  30.030  0.00  0.00    +0.229 C 
ATOM     13  C12 UNL     1      22.160   2.177  30.217  0.00  0.00    +0.046 C 
ATOM     14  C13 UNL     1      22.010   2.553  31.698  0.00  0.00    +0.042 C 
ENDBRANCH   3   5
BRANCH   1  15
ATOM     15  C3  UNL     1      17.859   4.610  36.514  0.00  0.00    +0.129 C 
BRANCH  15  17
ATOM     16  C1  UNL     1      18.725   6.695  37.673  0.00  0.00    +0.029 C 
ATOM     17  C2  UNL     1      18.683   5.904  36.362  0.00  0.00    +0.087 C 
BRANCH  17  18
ATOM     18  N3  UNL     1      20.048   5.575  35.944  0.00  0.00    -0.311 N 
ATOM     19  C14 UNL     1      20.840   6.460  35.139  0.00  0.00    +0.217 C 
ATOM     20  O3  UNL     1      20.393   7.588  34.798  0.00  0.00    -0.275 OA
ATOM     21  H18 UNL     1      20.485   4.687  36.282  0.00  0.00    +0.149 HD
BRANCH  19  22
ATOM     22  C15 UNL     1      22.229   6.068  34.739  0.00  0.00    +0.079 C 
ATOM     23  C16 UNL     1      23.289   6.297  35.811  0.00  0.00    +0.017 C 
ATOM     24  C17 UNL     1      23.202   7.235  34.616  0.00  0.00    +0.005 C 
BRANCH  24  25
ATOM     25  C18 UNL     1      24.289   7.022  33.558  0.00  0.00    -0.007 C 
ATOM     26  C19 UNL     1      24.343   5.604  33.012  0.00  0.00    +0.004 C 
ATOM     27  C20 UNL     1      23.768   6.726  32.161  0.00  0.00    +0.004 C 
ENDBRANCH  24  25
ENDBRANCH  19  22
ENDBRANCH  17  18
ENDBRANCH  15  17
ENDBRANCH   1  15
TORSDOF 6
ENDMDL
MODEL 9
REMARK VINA RESULT:    -5.722     11.331     13.625
REMARK INTER + INTRA:          -8.378
REMARK INTER:                  -7.296
REMARK INTRA:                  -1.082
REMARK UNBOUND:                -0.648
REMARK  Name = /home/qwerty/github/datacon2025hack/step_04_hit_selection/docking/ligands/lig_278.pdb
REMARK  8 active torsions:
REMARK  status: ('A' for Active; 'I' for Inactive)
REMARK    1  A    between atoms: C1_1  and  C2_2
REMARK    2  A    between atoms: C2_2  and  C3_3
REMARK    3  A    between atoms: C2_2  and  N3_18
REMARK    4  A    between atoms: C3_3  and  N1_4
REMARK    5  A    between atoms: N1_4  and  C4_5
REMARK    6  A    between atoms: C5_6  and  C6_8
REMARK    7  A    between atoms: C14_19  and  C15_21
REMARK    8  A    between atoms: C17_23  and  C18_24
REMARK                            x       y       z     vdW  Elec       q    Type
REMARK                         _______ _______ _______ _____ _____    ______ ____
ROOT
ATOM      1  N1  UNL     1      20.809  13.566  19.770  0.00  0.00    -0.298 N 
ATOM      2  C4  UNL     1      20.356  14.936  20.039  0.00  0.00    +0.132 C 
ATOM      3  C5  UNL     1      22.077  13.096  20.278  0.00  0.00    +0.265 C 
ATOM      4  O1  UNL     1      22.742  12.269  19.596  0.00  0.00    -0.268 OA
ENDROOT
BRANCH   3   5
ATOM      5  C6  UNL     1      22.609  13.536  21.592  0.00  0.00    +0.126 A 
ATOM      6  C7  UNL     1      21.970  13.160  22.786  0.00  0.00    +0.040 A 
ATOM      7  C8  UNL     1      22.473  13.611  24.013  0.00  0.00    -0.002 A 
ATOM      8  C9  UNL     1      23.629  14.410  24.033  0.00  0.00    +0.142 A 
ATOM      9  C10 UNL     1      24.225  14.778  22.827  0.00  0.00    +0.157 A 
ATOM     10  N2  UNL     1      23.706  14.341  21.649  0.00  0.00    -0.247 NA
ATOM     11  O2  UNL     1      24.165  14.856  25.247  0.00  0.00    -0.490 OA
ATOM     12  C11 UNL     1      23.697  14.366  26.505  0.00  0.00    +0.229 C 
ATOM     13  C12 UNL     1      22.183  14.144  26.457  0.00  0.00    +0.046 C 
ATOM     14  C13 UNL     1      21.822  13.192  25.308  0.00  0.00    +0.042 C 
ENDBRANCH   3   5
BRANCH   1  15
ATOM     15  C3  UNL     1      20.017  12.702  18.880  0.00  0.00    +0.129 C 
BRANCH  15  17
ATOM     16  C1  UNL     1      17.851  11.429  19.241  0.00  0.00    +0.029 C 
ATOM     17  C2  UNL     1      19.315  11.579  19.668  0.00  0.00    +0.087 C 
BRANCH  17  18
ATOM     18  N3  UNL     1      20.019  10.311  19.459  0.00  0.00    -0.311 N 
ATOM     19  C14 UNL     1      20.709   9.630  20.515  0.00  0.00    +0.217 C 
ATOM     20  O3  UNL     1      20.694  10.088  21.690  0.00  0.00    -0.275 OA
ATOM     21  H18 UNL     1      19.978   9.855  18.518  0.00  0.00    +0.149 HD
BRANCH  19  22
ATOM     22  C15 UNL     1      21.415   8.338  20.239  0.00  0.00    +0.079 C 
ATOM     23  C16 UNL     1      20.613   7.089  20.587  0.00  0.00    +0.017 C 
ATOM     24  C17 UNL     1      21.759   7.530  21.486  0.00  0.00    +0.005 C 
BRANCH  24  25
ATOM     25  C18 UNL     1      23.036   6.696  21.346  0.00  0.00    -0.007 C 
ATOM     26  C19 UNL     1      23.859   7.039  20.115  0.00  0.00    +0.004 C 
ATOM     27  C20 UNL     1      24.328   7.482  21.492  0.00  0.00    +0.004 C 
ENDBRANCH  24  25
ENDBRANCH  19  22
ENDBRANCH  17  18
ENDBRANCH  15  17
ENDBRANCH   1  15
TORSDOF 6
ENDMDL
