REMARK  Name = /home/qwerty/github/datacon2025hack/step_04_hit_selection/docking/ligands/lig_644.pdb
REMARK  4 active torsions:
REMARK  status: ('A' for Active; 'I' for Inactive)
REMARK    1  A    between atoms: C1_1  and  C2_2
REMARK    2  A    between atoms: C4_4  and  C5_5
REMARK    3  A    between atoms: C8_8  and  N1_9
REMARK    4  A    between atoms: C9_10  and  C10_12
REMARK                            x       y       z     vdW  Elec       q    Type
REMARK                         _______ _______ _______ _____ _____    ______ ____
ROOT
ATOM      1  C1  UNL     1      -6.321   0.617  -0.518  0.00  0.00    +0.065 C 
ATOM      2  C2  UNL     1      -4.843   0.437  -0.372  0.00  0.00    +0.039 A 
ATOM      3  C3  UNL     1      -4.324  -0.759   0.132  0.00  0.00    +0.027 A 
ATOM      4  C4  UNL     1      -2.936  -0.922   0.270  0.00  0.00    -0.040 A 
ATOM      5  C5  UNL     1      -2.403  -2.223   0.813  0.00  0.00    +0.044 C 
ATOM      6  C6  UNL     1      -2.078   0.141  -0.108  0.00  0.00    +0.005 A 
ATOM      7  C7  UNL     1      -0.675   0.057   0.001  0.00  0.00    +0.035 A 
ATOM      8  C8  UNL     1       0.145   1.130  -0.392  0.00  0.00    +0.053 A 
ATOM      9  C16 UNL     1      -0.449   2.311  -0.876  0.00  0.00    +0.064 A 
ATOM     10 CL3  UNL     1       0.524   3.684  -1.390  0.00  0.00    -0.082 Cl
ATOM     11  C17 UNL     1      -1.839   2.403  -0.986  0.00  0.00    +0.050 A 
ATOM     12  C18 UNL     1      -2.653   1.331  -0.610  0.00  0.00    +0.073 A 
ATOM     13  N2  UNL     1      -4.002   1.443  -0.726  0.00  0.00    -0.252 NA
ENDROOT
BRANCH   8  14
ATOM     14  N1  UNL     1       1.575   1.039  -0.253  0.00  0.00    -0.280 N 
ATOM     15  C9  UNL     1       2.316  -0.164  -0.521  0.00  0.00    +0.248 C 
ATOM     16  O1  UNL     1       1.800  -1.068  -1.234  0.00  0.00    -0.270 OA
ATOM     17  H9  UNL     1       2.110   1.909  -0.036  0.00  0.00    +0.155 HD
BRANCH  15  18
ATOM     18  C10 UNL     1       3.696  -0.339  -0.008  0.00  0.00    +0.038 A 
ATOM     19  C11 UNL     1       4.157   0.403   1.095  0.00  0.00    +0.014 A 
ATOM     20  C12 UNL     1       5.457   0.224   1.575  0.00  0.00    +0.022 A 
ATOM     21  C13 UNL     1       6.315  -0.698   0.967  0.00  0.00    +0.059 A 
ATOM     22 CL1  UNL     1       7.943  -0.893   1.601  0.00  0.00    -0.082 Cl
ATOM     23  C14 UNL     1       5.863  -1.452  -0.127  0.00  0.00    +0.060 A 
ATOM     24 CL2  UNL     1       6.908  -2.626  -0.917  0.00  0.00    -0.082 Cl
ATOM     25  C15 UNL     1       4.560  -1.273  -0.607  0.00  0.00    +0.034 A 
ENDBRANCH  15  18
ENDBRANCH   8  14
TORSDOF 2
