REMARK  Name = /home/qwerty/github/datacon2025hack/step_04_hit_selection/docking/ligands/lig_515.pdb
REMARK  7 active torsions:
REMARK  status: ('A' for Active; 'I' for Inactive)
REMARK    1  A    between atoms: C2_2  and  C3_3
REMARK    2  A    between atoms: C3_3  and  C4_4
REMARK    3  A    between atoms: C3_3  and  C5_5
REMARK    4  A    between atoms: C3_3  and  C6_6
REMARK    5  A    between atoms: N1_8  and  C7_9
REMARK    6  A    between atoms: C11_14  and  C12_16
REMARK    7  A    between atoms: C18_24  and  C19_25
REMARK                            x       y       z     vdW  Elec       q    Type
REMARK                         _______ _______ _______ _____ _____    ______ ____
ROOT
ATOM      1  C7  UNL     1       1.035   0.605  -0.930  0.00  0.00    +0.093 C 
ATOM      2  C8  UNL     1       0.638   0.634  -2.420  0.00  0.00    +0.025 C 
ATOM      3  C9  UNL     1      -0.882   0.733  -2.585  0.00  0.00    +0.021 C 
ATOM      4  C10 UNL     1      -1.578  -0.420  -1.863  0.00  0.00    +0.108 C 
ATOM      5  N2  UNL     1      -1.146  -0.465  -0.459  0.00  0.00    -0.292 N 
ATOM      6  C11 UNL     1      -2.105  -0.690   0.590  0.00  0.00    +0.267 C 
ATOM      7  O2  UNL     1      -1.878  -1.569   1.466  0.00  0.00    -0.268 OA
ATOM      8  C18 UNL     1       0.295  -0.524  -0.160  0.00  0.00    +0.093 C 
ATOM      9  C19 UNL     1       0.847  -1.927  -0.462  0.00  0.00    +0.030 C 
ENDROOT
BRANCH   6  10
ATOM     10  C12 UNL     1      -3.333   0.118   0.684  0.00  0.00    +0.150 A 
ATOM     11  N3  UNL     1      -3.585   1.221  -0.060  0.00  0.00    -0.169 NA
ATOM     12  N4  UNL     1      -4.841   1.585   0.167  0.00  0.00    -0.281 N 
ATOM     13  C13 UNL     1      -5.369   0.741   1.069  0.00  0.00    +0.040 A 
ATOM     14  C14 UNL     1      -4.462  -0.180   1.423  0.00  0.00    +0.005 A 
ATOM     15  C15 UNL     1      -5.071  -1.458   1.845  0.00  0.00    +0.039 C 
ATOM     16  C16 UNL     1      -6.584  -1.126   1.841  0.00  0.00    +0.011 C 
ATOM     17  C17 UNL     1      -6.760   0.264   1.182  0.00  0.00    +0.055 C 
ATOM     18  H18 UNL     1      -5.354   2.310  -0.382  0.00  0.00    +0.189 HD
ENDBRANCH   6  10
BRANCH   1  21
ATOM     19  C6  UNL     1       3.178   0.797   0.435  0.00  0.00    +0.223 C 
ATOM     20  O1  UNL     1       2.517   1.197   1.434  0.00  0.00    -0.275 OA
ATOM     21  N1  UNL     1       2.491   0.484  -0.789  0.00  0.00    -0.310 N 
ATOM     22  H10 UNL     1       3.058   0.208  -1.623  0.00  0.00    +0.149 HD
BRANCH  19  23
ATOM     23  C3  UNL     1       4.697   0.699   0.508  0.00  0.00    +0.059 C 
ATOM     24  C4  UNL     1       5.293   1.802  -0.389  0.00  0.00    +0.025 C 
ATOM     25  C5  UNL     1       5.187   0.903   1.961  0.00  0.00    +0.025 C 
BRANCH  23  27
ATOM     26  C1  UNL     1       6.419  -1.038  -0.105  0.00  0.00    +0.005 C 
ATOM     27  C2  UNL     1       5.133  -0.680   0.027  0.00  0.00    -0.019 C 
ENDBRANCH  23  27
ENDBRANCH  19  23
ENDBRANCH   1  21
TORSDOF 4
