REMARK  Name = /home/qwerty/github/datacon2025hack/step_04_hit_selection/docking/ligands/lig_739.pdb
REMARK  7 active torsions:
REMARK  status: ('A' for Active; 'I' for Inactive)
REMARK    1  A    between atoms: C1_1  and  O1_2
REMARK    2  A    between atoms: O1_2  and  C2_3
REMARK    3  A    between atoms: C5_6  and  C6_7
REMARK    4  A    between atoms: C8_9  and  C9_10
REMARK    5  A    between atoms: C9_10  and  C10_11
REMARK    6  A    between atoms: C9_10  and  N1_12
REMARK    7  A    between atoms: C11_13  and  C12_15
REMARK                            x       y       z     vdW  Elec       q    Type
REMARK                         _______ _______ _______ _____ _____    ______ ____
ROOT
ATOM      1  N1  UNL     1       0.969   1.308  -0.503  0.00  0.00    -0.305 N 
ATOM      2  C11 UNL     1       1.063   1.238   0.929  0.00  0.00    +0.245 C 
ATOM      3  O2  UNL     1       0.168   1.776   1.638  0.00  0.00    -0.270 OA
ATOM      4  H14 UNL     1       1.821   1.116  -1.076  0.00  0.00    +0.150 HD
ENDROOT
BRANCH   2   5
ATOM      5  C12 UNL     1       2.197   0.546   1.587  0.00  0.00    +0.038 A 
ATOM      6  C13 UNL     1       2.548   0.870   2.910  0.00  0.00    +0.014 A 
ATOM      7  C14 UNL     1       3.606   0.213   3.543  0.00  0.00    +0.022 A 
ATOM      8  C15 UNL     1       4.323  -0.782   2.872  0.00  0.00    +0.059 A 
ATOM      9 CL1  UNL     1       5.645  -1.588   3.704  0.00  0.00    -0.082 Cl
ATOM     10  C16 UNL     1       3.973  -1.124   1.555  0.00  0.00    +0.060 A 
ATOM     11 CL2  UNL     1       4.836  -2.383   0.681  0.00  0.00    -0.082 Cl
ATOM     12  C17 UNL     1       2.915  -0.463   0.920  0.00  0.00    +0.034 A 
ENDBRANCH   2   5
BRANCH   1  13
ATOM     13  C9  UNL     1      -0.281   1.674  -1.179  0.00  0.00    +0.104 C 
ATOM     14  C10 UNL     1      -0.057   1.848  -2.685  0.00  0.00    +0.033 C 
BRANCH  13  21
ATOM     15  C2  UNL     1      -1.107  -0.749  -1.083  0.00  0.00    +0.125 A 
ATOM     16  C3  UNL     1      -2.140  -1.672  -0.827  0.00  0.00    +0.046 A 
ATOM     17  C4  UNL     1      -3.404  -1.231  -0.432  0.00  0.00    +0.007 A 
ATOM     18  C5  UNL     1      -3.667   0.137  -0.300  0.00  0.00    -0.050 A 
ATOM     19  C6  UNL     1      -5.017   0.606   0.157  0.00  0.00    +0.044 C 
ATOM     20  C7  UNL     1      -2.641   1.062  -0.533  0.00  0.00    +0.012 A 
ATOM     21  C8  UNL     1      -1.358   0.634  -0.921  0.00  0.00    +0.014 A 
BRANCH  15  23
ATOM     22  C1  UNL     1       0.565  -2.530  -1.642  0.00  0.00    +0.277 C 
ATOM     23  O1  UNL     1       0.169  -1.171  -1.492  0.00  0.00    -0.495 OA
ENDBRANCH  15  23
ENDBRANCH  13  21
ENDBRANCH   1  13
TORSDOF 4
