REMARK  Name = /home/qwerty/github/datacon2025hack/step_04_hit_selection/docking/ligands/lig_605.pdb
REMARK  6 active torsions:
REMARK  status: ('A' for Active; 'I' for Inactive)
REMARK    1  A    between atoms: C1_1  and  C2_2
REMARK    2  A    between atoms: C4_4  and  C5_5
REMARK    3  A    between atoms: N1_7  and  C6_8
REMARK    4  A    between atoms: C6_8  and  C7_9
REMARK    5  A    between atoms: C9_12  and  C10_14
REMARK    6  A    between atoms: C15_21  and  C16_22
REMARK                            x       y       z     vdW  Elec       q    Type
REMARK                         _______ _______ _______ _____ _____    ______ ____
ROOT
ATOM      1  C7  UNL     1       0.007   1.468  -1.257  0.00  0.00    +0.028 C 
ATOM      2  C8  UNL     1      -0.343   1.220   0.218  0.00  0.00    +0.113 C 
ATOM      3  N2  UNL     1      -1.765   0.914   0.238  0.00  0.00    -0.297 N 
ATOM      4  C9  UNL     1      -2.484   0.658   1.458  0.00  0.00    +0.250 C 
ATOM      5  O2  UNL     1      -1.960   0.969   2.562  0.00  0.00    -0.270 OA
ATOM      6  C14 UNL     1      -2.406   1.173  -1.043  0.00  0.00    +0.111 C 
ATOM      7  C15 UNL     1      -1.346   1.892  -1.875  0.00  0.00    +0.009 C 
ATOM      8  C16 UNL     1      -1.509   1.656  -3.382  0.00  0.00    +0.009 C 
ENDROOT
BRANCH   4   9
ATOM      9  C10 UNL     1      -3.831   0.051   1.452  0.00  0.00    +0.073 A 
ATOM     10  C11 UNL     1      -4.821   0.502   2.335  0.00  0.00    +0.127 A 
ATOM     11  N3  UNL     1      -6.051  -0.074   2.330  0.00  0.00    -0.243 NA
ATOM     12  C12 UNL     1      -6.339  -1.099   1.487  0.00  0.00    +0.221 A 
ATOM     13  N4  UNL     1      -5.388  -1.569   0.639  0.00  0.00    -0.243 NA
ATOM     14  C13 UNL     1      -4.146  -1.020   0.607  0.00  0.00    +0.127 A 
ENDBRANCH   4   9
BRANCH   1  15
ATOM     15  C6  UNL     1       0.621   0.204  -1.903  0.00  0.00    +0.110 C 
BRANCH  15  18
ATOM     16  C5  UNL     1       2.139  -1.390  -0.615  0.00  0.00    +0.264 C 
ATOM     17  O1  UNL     1       1.252  -2.286  -0.619  0.00  0.00    -0.268 OA
ATOM     18  N1  UNL     1       1.896  -0.132  -1.266  0.00  0.00    -0.310 N 
ATOM     19  H5  UNL     1       2.656   0.582  -1.312  0.00  0.00    +0.149 HD
BRANCH  16  23
ATOM     20  C1  UNL     1       6.722  -1.014   1.443  0.00  0.00    +0.065 C 
ATOM     21  C2  UNL     1       5.410  -1.516   0.935  0.00  0.00    +0.034 A 
ATOM     22  C3  UNL     1       4.479  -0.784   0.229  0.00  0.00    +0.057 A 
ATOM     23  C4  UNL     1       3.417  -1.660   0.069  0.00  0.00    +0.147 A 
ATOM     24  N5  UNL     1       3.703  -2.837   0.663  0.00  0.00    -0.169 NA
ATOM     25  N6  UNL     1       4.913  -2.738   1.189  0.00  0.00    -0.281 N 
ATOM     26  H20 UNL     1       5.384  -3.500   1.726  0.00  0.00    +0.189 HD
ENDBRANCH  16  23
ENDBRANCH  15  18
ENDBRANCH   1  15
TORSDOF 4
