REMARK  Name = /home/qwerty/github/datacon2025hack/step_04_hit_selection/docking/ligands/lig_690.pdb
REMARK  6 active torsions:
REMARK  status: ('A' for Active; 'I' for Inactive)
REMARK    1  A    between atoms: C1_1  and  C2_2
REMARK    2  A    between atoms: C2_2  and  C3_3
REMARK    3  A    between atoms: C2_2  and  C4_4
REMARK    4  A    between atoms: C9_11  and  C10_12
REMARK    5  A    between atoms: N4_15  and  C12_16
REMARK    6  A    between atoms: C12_16  and  C13_17
REMARK                            x       y       z     vdW  Elec       q    Type
REMARK                         _______ _______ _______ _____ _____    ______ ____
ROOT
ATOM      1  C4  UNL     1       3.617  -0.422  -0.066  0.00  0.00    -0.044 A 
ATOM      2  C5  UNL     1       4.409  -0.262   1.084  0.00  0.00    +0.006 A 
ATOM      3  C6  UNL     1       3.850   0.214   2.270  0.00  0.00    +0.029 A 
ATOM      4  C7  UNL     1       2.489   0.523   2.333  0.00  0.00    +0.075 A 
ATOM      5  N1  UNL     1       1.968   1.026   3.481  0.00  0.00    -0.235 NA
ATOM      6  C8  UNL     1       0.656   1.356   3.567  0.00  0.00    +0.222 A 
ATOM      7  N2  UNL     1      -0.165   1.164   2.506  0.00  0.00    -0.235 NA
ATOM      8  C9  UNL     1       0.287   0.647   1.332  0.00  0.00    +0.085 A 
ATOM      9  C19 UNL     1       1.662   0.332   1.202  0.00  0.00    +0.027 A 
ATOM     10  C20 UNL     1       2.246  -0.113  -0.002  0.00  0.00    +0.016 A 
ENDROOT
BRANCH   8  11
ATOM     11  C10 UNL     1      -0.705   0.418   0.261  0.00  0.00    +0.038 A 
ATOM     12  C11 UNL     1      -0.874  -0.716  -0.517  0.00  0.00    +0.144 A 
ATOM     13  N3  UNL     1      -1.985  -0.579  -1.266  0.00  0.00    -0.179 NA
ATOM     14  N4  UNL     1      -2.516   0.600  -0.982  0.00  0.00    -0.266 N 
ATOM     15  C18 UNL     1      -1.784   1.222  -0.039  0.00  0.00    +0.118 A 
BRANCH  14  16
ATOM     16  C12 UNL     1      -3.780   1.075  -1.534  0.00  0.00    +0.180 C 
BRANCH  16  17
ATOM     17  C13 UNL     1      -4.918   0.636  -0.655  0.00  0.00    -0.008 A 
ATOM     18  C14 UNL     1      -5.517  -0.618  -0.839  0.00  0.00    +0.008 A 
ATOM     19  C15 UNL     1      -6.546  -1.031   0.011  0.00  0.00    +0.020 A 
ATOM     20  C16 UNL     1      -6.957  -0.189   1.045  0.00  0.00    +0.111 A 
ATOM     21  N5  UNL     1      -6.356   1.017   1.222  0.00  0.00    -0.263 NA
ATOM     22  C17 UNL     1      -5.353   1.442   0.407  0.00  0.00    +0.116 A 
ENDBRANCH  16  17
ENDBRANCH  14  16
ENDBRANCH   8  11
BRANCH   1  24
ATOM     23  C1  UNL     1       5.285   0.068  -1.886  0.00  0.00    +0.012 C 
ATOM     24  C2  UNL     1       4.224  -0.911  -1.369  0.00  0.00    +0.013 C 
ATOM     25  C3  UNL     1       4.802  -2.323  -1.215  0.00  0.00    +0.012 C 
ENDBRANCH   1  24
TORSDOF 4
