REMARK  Name = /home/qwerty/github/datacon2025hack/step_04_hit_selection/docking/ligands/lig_508.pdb
REMARK  6 active torsions:
REMARK  status: ('A' for Active; 'I' for Inactive)
REMARK    1  A    between atoms: C1_1  and  O1_2
REMARK    2  A    between atoms: O1_2  and  C2_3
REMARK    3  A    between atoms: C4_5  and  C5_6
REMARK    4  A    between atoms: C8_11  and  O3_12
REMARK    5  A    between atoms: C12_16  and  O4_17
REMARK    6  A    between atoms: O4_17  and  C13_18
REMARK                            x       y       z     vdW  Elec       q    Type
REMARK                         _______ _______ _______ _____ _____    ______ ____
ROOT
ATOM      1  C2  UNL     1      -0.641  -1.881  -0.185  0.00  0.00    +0.162 A 
ATOM      2  C3  UNL     1       0.736  -1.951  -0.477  0.00  0.00    +0.062 A 
ATOM      3  C4  UNL     1       1.487  -0.781  -0.661  0.00  0.00    +0.041 A 
ATOM      4  C10 UNL     1       0.849   0.463  -0.584  0.00  0.00    +0.017 A 
ATOM      5  C11 UNL     1      -0.514   0.542  -0.295  0.00  0.00    +0.050 A 
ATOM      6  C12 UNL     1      -1.270  -0.630  -0.093  0.00  0.00    +0.162 A 
ENDROOT
BRANCH   3   7
ATOM      7  C5  UNL     1       2.927  -0.871  -0.979  0.00  0.00    +0.247 C 
ATOM      8  O2  UNL     1       3.313  -1.729  -1.819  0.00  0.00    -0.270 OA
ATOM      9  N1  UNL     1       3.896  -0.018  -0.342  0.00  0.00    -0.295 N 
ATOM     10  C6  UNL     1       5.265   0.097  -0.818  0.00  0.00    +0.111 C 
ATOM     11  C7  UNL     1       5.973   1.014   0.171  0.00  0.00    +0.052 C 
ATOM     12  C8  UNL     1       5.104   0.994   1.432  0.00  0.00    +0.133 C 
ATOM     13  C9  UNL     1       3.704   0.592   0.966  0.00  0.00    +0.139 C 
BRANCH  12  14
ATOM     14  O3  UNL     1       5.111   2.228   2.107  0.00  0.00    -0.390 OA
ATOM     15  H10 UNL     1       4.764   2.919   1.485  0.00  0.00    +0.210 HD
ENDBRANCH  12  14
ENDBRANCH   3   7
BRANCH   1  17
ATOM     16  C1  UNL     1      -0.920  -4.365  -0.043  0.00  0.00    +0.277 C 
ATOM     17  O1  UNL     1      -1.418  -3.033   0.019  0.00  0.00    -0.491 OA
ENDBRANCH   1  17
BRANCH   6  18
ATOM     18  O4  UNL     1      -2.643  -0.601   0.205  0.00  0.00    -0.485 OA
BRANCH  18  19
ATOM     19  C13 UNL     1      -3.475   0.562   0.217  0.00  0.00    +0.178 C 
ATOM     20  C14 UNL     1      -3.778   1.025  -1.216  0.00  0.00    +0.072 C 
ATOM     21  C15 UNL     1      -4.786   2.198  -1.216  0.00  0.00    +0.163 C 
ATOM     22  O5  UNL     1      -5.391   2.416   0.049  0.00  0.00    -0.380 OA
ATOM     23  C16 UNL     1      -5.918   1.204   0.550  0.00  0.00    +0.163 C 
ATOM     24  C17 UNL     1      -4.790   0.231   0.943  0.00  0.00    +0.072 C 
ENDBRANCH  18  19
ENDBRANCH   6  18
TORSDOF 5
