MODEL 1
REMARK VINA RESULT:    -7.139      0.000      0.000
REMARK INTER + INTRA:          -9.049
REMARK INTER:                  -8.391
REMARK INTRA:                  -0.657
REMARK UNBOUND:                -0.657
REMARK  Name = /home/qwerty/github/datacon2025hack/step_04_hit_selection/docking/ligands/lig_264.pdb
REMARK  5 active torsions:
REMARK  status: ('A' for Active; 'I' for Inactive)
REMARK    1  A    between atoms: C1_1  and  C2_2
REMARK    2  A    between atoms: C5_6  and  C6_7
REMARK    3  A    between atoms: C9_12  and  N3_13
REMARK    4  A    between atoms: C10_14  and  C11_16
REMARK    5  A    between atoms: C19_26  and  C20_27
REMARK                            x       y       z     vdW  Elec       q    Type
REMARK                         _______ _______ _______ _____ _____    ______ ____
ROOT
ATOM      1  C6  UNL     1      13.734  12.159  34.059  0.00  0.00    +0.249 C 
ATOM      2  O1  UNL     1      13.561  11.039  33.505  0.00  0.00    -0.270 OA
ATOM      3  N2  UNL     1      14.860  12.357  34.932  0.00  0.00    -0.293 N 
ATOM      4  C7  UNL     1      15.607  13.607  34.969  0.00  0.00    +0.110 C 
ATOM      5  C8  UNL     1      16.988  13.245  35.500  0.00  0.00    +0.043 C 
ATOM      6  C9  UNL     1      16.806  11.908  36.222  0.00  0.00    +0.095 C 
ATOM      7  C19 UNL     1      15.578  11.259  35.565  0.00  0.00    +0.093 C 
ATOM      8  C20 UNL     1      14.692  10.548  36.594  0.00  0.00    +0.030 C 
ENDROOT
BRANCH   1  14
ATOM      9  C1  UNL     1      11.159  13.045  35.752  0.00  0.00    +0.064 C 
ATOM     10  C2  UNL     1      11.689  13.660  34.492  0.00  0.00    +0.025 A 
ATOM     11  N1  UNL     1      11.075  14.678  33.861  0.00  0.00    -0.364 N 
ATOM     12  C3  UNL     1      11.759  14.913  32.727  0.00  0.00    +0.083 A 
ATOM     13  C4  UNL     1      12.824  14.041  32.624  0.00  0.00    +0.032 A 
ATOM     14  C5  UNL     1      12.795  13.253  33.759  0.00  0.00    +0.057 A 
ATOM     15  H4  UNL     1      10.211  15.176  34.174  0.00  0.00    +0.165 HD
ENDBRANCH   1  14
BRANCH   6  16
ATOM     16  N3  UNL     1      17.993  11.059  36.084  0.00  0.00    -0.305 N 
ATOM     17  C10 UNL     1      18.441  10.188  37.136  0.00  0.00    +0.261 C 
ATOM     18  O2  UNL     1      17.797  10.124  38.218  0.00  0.00    -0.269 OA
ATOM     19  H12 UNL     1      18.418  10.967  35.135  0.00  0.00    +0.149 HD
BRANCH  17  20
ATOM     20  C11 UNL     1      19.647   9.352  36.971  0.00  0.00    +0.103 A 
ATOM     21  C12 UNL     1      20.406   9.279  35.803  0.00  0.00    +0.041 A 
ATOM     22  C13 UNL     1      21.413   8.383  36.083  0.00  0.00    +0.003 A 
ATOM     23  C14 UNL     1      22.462   7.921  35.291  0.00  0.00    +0.048 A 
ATOM     24  C15 UNL     1      23.348   6.986  35.858  0.00  0.00    +0.124 A 
ATOM     25  F1  UNL     1      24.384   6.508  35.124  0.00  0.00    -0.205 F 
ATOM     26  C16 UNL     1      23.164   6.540  37.186  0.00  0.00    +0.040 A 
ATOM     27  C17 UNL     1      22.092   7.026  37.959  0.00  0.00    +0.029 A 
ATOM     28  C18 UNL     1      21.234   7.954  37.371  0.00  0.00    +0.047 A 
ATOM     29  N4  UNL     1      20.158   8.535  37.927  0.00  0.00    -0.351 N 
ATOM     30  H17 UNL     1      19.795   8.365  38.890  0.00  0.00    +0.166 HD
ENDBRANCH  17  20
ENDBRANCH   6  16
TORSDOF 3
ENDMDL
MODEL 2
REMARK VINA RESULT:    -6.988      1.308      2.118
REMARK INTER + INTRA:          -8.871
REMARK INTER:                  -8.209
REMARK INTRA:                  -0.663
REMARK UNBOUND:                -0.657
REMARK  Name = /home/qwerty/github/datacon2025hack/step_04_hit_selection/docking/ligands/lig_264.pdb
REMARK  5 active torsions:
REMARK  status: ('A' for Active; 'I' for Inactive)
REMARK    1  A    between atoms: C1_1  and  C2_2
REMARK    2  A    between atoms: C5_6  and  C6_7
REMARK    3  A    between atoms: C9_12  and  N3_13
REMARK    4  A    between atoms: C10_14  and  C11_16
REMARK    5  A    between atoms: C19_26  and  C20_27
REMARK                            x       y       z     vdW  Elec       q    Type
REMARK                         _______ _______ _______ _____ _____    ______ ____
ROOT
ATOM      1  C6  UNL     1      12.326  12.534  34.640  0.00  0.00    +0.249 C 
ATOM      2  O1  UNL     1      12.215  11.478  33.960  0.00  0.00    -0.270 OA
ATOM      3  N2  UNL     1      13.463  12.711  35.503  0.00  0.00    -0.293 N 
ATOM      4  C7  UNL     1      14.121  14.000  35.671  0.00  0.00    +0.110 C 
ATOM      5  C8  UNL     1      15.540  13.681  36.120  0.00  0.00    +0.043 C 
ATOM      6  C9  UNL     1      15.478  12.259  36.681  0.00  0.00    +0.095 C 
ATOM      7  C19 UNL     1      14.279  11.602  35.981  0.00  0.00    +0.093 C 
ATOM      8  C20 UNL     1      13.481  10.711  36.938  0.00  0.00    +0.030 C 
ENDROOT
BRANCH   1  14
ATOM      9  C1  UNL     1      11.972  14.606  32.218  0.00  0.00    +0.064 C 
ATOM     10  C2  UNL     1      11.126  14.473  33.447  0.00  0.00    +0.025 A 
ATOM     11  N1  UNL     1      10.094  15.295  33.717  0.00  0.00    -0.364 N 
ATOM     12  C3  UNL     1       9.623  14.956  34.931  0.00  0.00    +0.083 A 
ATOM     13  C4  UNL     1      10.355  13.908  35.450  0.00  0.00    +0.032 A 
ATOM     14  C5  UNL     1      11.302  13.583  34.498  0.00  0.00    +0.057 A 
ATOM     15  H4  UNL     1       9.740  16.070  33.114  0.00  0.00    +0.165 HD
ENDBRANCH   1  14
BRANCH   6  16
ATOM     16  N3  UNL     1      16.718  11.524  36.412  0.00  0.00    -0.305 N 
ATOM     17  C10 UNL     1      17.254  10.559  37.333  0.00  0.00    +0.261 C 
ATOM     18  O2  UNL     1      16.646  10.309  38.408  0.00  0.00    -0.269 OA
ATOM     19  H12 UNL     1      17.123  11.586  35.452  0.00  0.00    +0.149 HD
BRANCH  17  20
ATOM     20  C11 UNL     1      18.511   9.841  37.039  0.00  0.00    +0.103 A 
ATOM     21  C12 UNL     1      18.966   8.725  37.740  0.00  0.00    +0.041 A 
ATOM     22  C13 UNL     1      20.165   8.394  37.149  0.00  0.00    +0.003 A 
ATOM     23  C14 UNL     1      21.064   7.368  37.434  0.00  0.00    +0.048 A 
ATOM     24  C15 UNL     1      22.229   7.281  36.649  0.00  0.00    +0.124 A 
ATOM     25  F1  UNL     1      23.133   6.299  36.891  0.00  0.00    -0.205 F 
ATOM     26  C16 UNL     1      22.464   8.211  35.612  0.00  0.00    +0.040 A 
ATOM     27  C17 UNL     1      21.536   9.237  35.351  0.00  0.00    +0.029 A 
ATOM     28  C18 UNL     1      20.390   9.295  36.143  0.00  0.00    +0.047 A 
ATOM     29  N4  UNL     1      19.390  10.188  36.064  0.00  0.00    -0.351 N 
ATOM     30  H17 UNL     1      19.328  10.988  35.396  0.00  0.00    +0.166 HD
ENDBRANCH  17  20
ENDBRANCH   6  16
TORSDOF 3
ENDMDL
MODEL 3
REMARK VINA RESULT:    -6.768     15.379     16.539
REMARK INTER + INTRA:          -8.612
REMARK INTER:                  -8.121
REMARK INTRA:                  -0.491
REMARK UNBOUND:                -0.657
REMARK  Name = /home/qwerty/github/datacon2025hack/step_04_hit_selection/docking/ligands/lig_264.pdb
REMARK  5 active torsions:
REMARK  status: ('A' for Active; 'I' for Inactive)
REMARK    1  A    between atoms: C1_1  and  C2_2
REMARK    2  A    between atoms: C5_6  and  C6_7
REMARK    3  A    between atoms: C9_12  and  N3_13
REMARK    4  A    between atoms: C10_14  and  C11_16
REMARK    5  A    between atoms: C19_26  and  C20_27
REMARK                            x       y       z     vdW  Elec       q    Type
REMARK                         _______ _______ _______ _____ _____    ______ ____
ROOT
ATOM      1  C6  UNL     1      10.156   8.636  22.640  0.00  0.00    +0.249 C 
ATOM      2  O1  UNL     1      10.763   8.636  23.745  0.00  0.00    -0.270 OA
ATOM      3  N2  UNL     1      10.545   7.708  21.612  0.00  0.00    -0.293 N 
ATOM      4  C7  UNL     1       9.575   7.055  20.744  0.00  0.00    +0.110 C 
ATOM      5  C8  UNL     1      10.252   5.780  20.257  0.00  0.00    +0.043 C 
ATOM      6  C9  UNL     1      11.750   6.016  20.455  0.00  0.00    +0.095 C 
ATOM      7  C19 UNL     1      11.849   7.059  21.579  0.00  0.00    +0.093 C 
ATOM      8  C20 UNL     1      12.961   8.079  21.312  0.00  0.00    +0.030 C 
ENDROOT
BRANCH   1  14
ATOM      9  C1  UNL     1       9.699  10.678  20.210  0.00  0.00    +0.064 C 
ATOM     10  C2  UNL     1       8.809  10.439  21.392  0.00  0.00    +0.025 A 
ATOM     11  N1  UNL     1       7.678  11.136  21.609  0.00  0.00    -0.364 N 
ATOM     12  C3  UNL     1       7.185  10.736  22.795  0.00  0.00    +0.083 A 
ATOM     13  C4  UNL     1       8.003   9.772  23.349  0.00  0.00    +0.032 A 
ATOM     14  C5  UNL     1       9.029   9.565  22.447  0.00  0.00    +0.057 A 
ATOM     15  H4  UNL     1       7.271  11.873  20.990  0.00  0.00    +0.165 HD
ENDBRANCH   1  14
BRANCH   6  16
ATOM     16  N3  UNL     1      12.444   4.776  20.817  0.00  0.00    -0.305 N 
ATOM     17  C10 UNL     1      13.376   4.131  19.934  0.00  0.00    +0.261 C 
ATOM     18  O2  UNL     1      13.634   4.640  18.810  0.00  0.00    -0.269 OA
ATOM     19  H12 UNL     1      12.380   4.455  21.809  0.00  0.00    +0.149 HD
BRANCH  17  20
ATOM     20  C11 UNL     1      14.052   2.877  20.323  0.00  0.00    +0.103 A 
ATOM     21  C12 UNL     1      13.810   2.183  21.508  0.00  0.00    +0.041 A 
ATOM     22  C13 UNL     1      14.656   1.097  21.468  0.00  0.00    +0.003 A 
ATOM     23  C14 UNL     1      14.848   0.063  22.382  0.00  0.00    +0.048 A 
ATOM     24  C15 UNL     1      15.803  -0.921  22.067  0.00  0.00    +0.124 A 
ATOM     25  F1  UNL     1      16.024  -1.947  22.926  0.00  0.00    -0.205 F 
ATOM     26  C16 UNL     1      16.536  -0.846  20.861  0.00  0.00    +0.040 A 
ATOM     27  C17 UNL     1      16.319   0.213  19.959  0.00  0.00    +0.029 A 
ATOM     28  C18 UNL     1      15.363   1.170  20.298  0.00  0.00    +0.047 A 
ATOM     29  N4  UNL     1      15.008   2.254  19.588  0.00  0.00    -0.351 N 
ATOM     30  H17 UNL     1      15.409   2.549  18.671  0.00  0.00    +0.166 HD
ENDBRANCH  17  20
ENDBRANCH   6  16
TORSDOF 3
ENDMDL
MODEL 4
REMARK VINA RESULT:    -6.718     15.300     17.174
REMARK INTER + INTRA:          -8.553
REMARK INTER:                  -7.993
REMARK INTRA:                  -0.561
REMARK UNBOUND:                -0.657
REMARK  Name = /home/qwerty/github/datacon2025hack/step_04_hit_selection/docking/ligands/lig_264.pdb
REMARK  5 active torsions:
REMARK  status: ('A' for Active; 'I' for Inactive)
REMARK    1  A    between atoms: C1_1  and  C2_2
REMARK    2  A    between atoms: C5_6  and  C6_7
REMARK    3  A    between atoms: C9_12  and  N3_13
REMARK    4  A    between atoms: C10_14  and  C11_16
REMARK    5  A    between atoms: C19_26  and  C20_27
REMARK                            x       y       z     vdW  Elec       q    Type
REMARK                         _______ _______ _______ _____ _____    ______ ____
ROOT
ATOM      1  C6  UNL     1      16.661   5.457  21.012  0.00  0.00    +0.249 C 
ATOM      2  O1  UNL     1      16.906   5.556  22.245  0.00  0.00    -0.270 OA
ATOM      3  N2  UNL     1      16.831   6.601  20.157  0.00  0.00    -0.293 N 
ATOM      4  C7  UNL     1      17.361   6.491  18.805  0.00  0.00    +0.110 C 
ATOM      5  C8  UNL     1      17.938   7.862  18.477  0.00  0.00    +0.043 C 
ATOM      6  C9  UNL     1      17.261   8.830  19.449  0.00  0.00    +0.095 C 
ATOM      7  C19 UNL     1      16.854   7.970  20.655  0.00  0.00    +0.093 C 
ATOM      8  C20 UNL     1      15.481   8.375  21.203  0.00  0.00    +0.030 C 
ENDROOT
BRANCH   1  14
ATOM      9  C1  UNL     1      14.019   4.791  19.321  0.00  0.00    +0.064 C 
ATOM     10  C2  UNL     1      15.116   3.853  19.723  0.00  0.00    +0.025 A 
ATOM     11  N1  UNL     1      15.087   2.535  19.451  0.00  0.00    -0.364 N 
ATOM     12  C3  UNL     1      16.169   1.985  20.033  0.00  0.00    +0.083 A 
ATOM     13  C4  UNL     1      16.903   2.955  20.685  0.00  0.00    +0.032 A 
ATOM     14  C5  UNL     1      16.246   4.151  20.472  0.00  0.00    +0.057 A 
ATOM     15  H4  UNL     1      14.350   2.025  18.916  0.00  0.00    +0.165 HD
ENDBRANCH   1  14
BRANCH   6  16
ATOM     16  N3  UNL     1      18.169   9.910  19.848  0.00  0.00    -0.305 N 
ATOM     17  C10 UNL     1      17.872  11.294  19.600  0.00  0.00    +0.261 C 
ATOM     18  O2  UNL     1      16.792  11.615  19.035  0.00  0.00    -0.269 OA
ATOM     19  H12 UNL     1      18.966   9.668  20.477  0.00  0.00    +0.149 HD
BRANCH  17  20
ATOM     20  C11 UNL     1      18.811  12.359  20.005  0.00  0.00    +0.103 A 
ATOM     21  C12 UNL     1      19.528  13.161  19.118  0.00  0.00    +0.041 A 
ATOM     22  C13 UNL     1      20.279  13.996  19.915  0.00  0.00    +0.003 A 
ATOM     23  C14 UNL     1      21.182  15.002  19.577  0.00  0.00    +0.048 A 
ATOM     24  C15 UNL     1      21.815  15.695  20.625  0.00  0.00    +0.124 A 
ATOM     25  F1  UNL     1      22.702  16.681  20.344  0.00  0.00    -0.205 F 
ATOM     26  C16 UNL     1      21.533  15.367  21.971  0.00  0.00    +0.040 A 
ATOM     27  C17 UNL     1      20.616  14.345  22.279  0.00  0.00    +0.029 A 
ATOM     28  C18 UNL     1      20.003  13.679  21.218  0.00  0.00    +0.047 A 
ATOM     29  N4  UNL     1      19.109  12.679  21.291  0.00  0.00    -0.351 N 
ATOM     30  H17 UNL     1      18.746  12.239  22.165  0.00  0.00    +0.166 HD
ENDBRANCH  17  20
ENDBRANCH   6  16
TORSDOF 3
ENDMDL
MODEL 5
REMARK VINA RESULT:    -6.498     15.927     18.675
REMARK INTER + INTRA:          -8.295
REMARK INTER:                  -7.788
REMARK INTRA:                  -0.507
REMARK UNBOUND:                -0.657
REMARK  Name = /home/qwerty/github/datacon2025hack/step_04_hit_selection/docking/ligands/lig_264.pdb
REMARK  5 active torsions:
REMARK  status: ('A' for Active; 'I' for Inactive)
REMARK    1  A    between atoms: C1_1  and  C2_2
REMARK    2  A    between atoms: C5_6  and  C6_7
REMARK    3  A    between atoms: C9_12  and  N3_13
REMARK    4  A    between atoms: C10_14  and  C11_16
REMARK    5  A    between atoms: C19_26  and  C20_27
REMARK                            x       y       z     vdW  Elec       q    Type
REMARK                         _______ _______ _______ _____ _____    ______ ____
ROOT
ATOM      1  C6  UNL     1      14.845   0.448  24.026  0.00  0.00    +0.249 C 
ATOM      2  O1  UNL     1      14.924   1.186  25.046  0.00  0.00    -0.270 OA
ATOM      3  N2  UNL     1      14.046   0.863  22.905  0.00  0.00    -0.293 N 
ATOM      4  C7  UNL     1      14.452   0.625  21.527  0.00  0.00    +0.110 C 
ATOM      5  C8  UNL     1      13.729   1.677  20.697  0.00  0.00    +0.043 C 
ATOM      6  C9  UNL     1      12.553   2.137  21.562  0.00  0.00    +0.095 C 
ATOM      7  C19 UNL     1      12.985   1.856  23.010  0.00  0.00    +0.093 C 
ATOM      8  C20 UNL     1      11.822   1.326  23.856  0.00  0.00    +0.030 C 
ENDROOT
BRANCH   1  14
ATOM      9  C1  UNL     1      14.159  -2.303  25.525  0.00  0.00    +0.064 C 
ATOM     10  C2  UNL     1      15.319  -2.011  24.623  0.00  0.00    +0.025 A 
ATOM     11  N1  UNL     1      16.293  -2.905  24.370  0.00  0.00    -0.364 N 
ATOM     12  C3  UNL     1      17.214  -2.287  23.608  0.00  0.00    +0.083 A 
ATOM     13  C4  UNL     1      16.833  -0.982  23.367  0.00  0.00    +0.032 A 
ATOM     14  C5  UNL     1      15.614  -0.808  23.995  0.00  0.00    +0.057 A 
ATOM     15  H4  UNL     1      16.343  -3.888  24.721  0.00  0.00    +0.165 HD
ENDBRANCH   1  14
BRANCH   6  16
ATOM     16  N3  UNL     1      12.266   3.560  21.360  0.00  0.00    -0.305 N 
ATOM     17  C10 UNL     1      10.924   4.069  21.277  0.00  0.00    +0.261 C 
ATOM     18  O2  UNL     1       9.945   3.283  21.396  0.00  0.00    -0.269 OA
ATOM     19  H12 UNL     1      13.058   4.235  21.449  0.00  0.00    +0.149 HD
BRANCH  17  20
ATOM     20  C11 UNL     1      10.665   5.507  21.064  0.00  0.00    +0.103 A 
ATOM     21  C12 UNL     1      11.505   6.364  20.352  0.00  0.00    +0.041 A 
ATOM     22  C13 UNL     1      10.895   7.597  20.415  0.00  0.00    +0.003 A 
ATOM     23  C14 UNL     1      11.280   8.827  19.885  0.00  0.00    +0.048 A 
ATOM     24  C15 UNL     1      10.443   9.934  20.121  0.00  0.00    +0.124 A 
ATOM     25  F1  UNL     1      10.778  11.151  19.625  0.00  0.00    -0.205 F 
ATOM     26  C16 UNL     1       9.256   9.785  20.874  0.00  0.00    +0.040 A 
ATOM     27  C17 UNL     1       8.897   8.528  21.396  0.00  0.00    +0.029 A 
ATOM     28  C18 UNL     1       9.744   7.451  21.142  0.00  0.00    +0.047 A 
ATOM     29  N4  UNL     1       9.590   6.180  21.548  0.00  0.00    -0.351 N 
ATOM     30  H17 UNL     1       8.808   5.809  22.132  0.00  0.00    +0.166 HD
ENDBRANCH  17  20
ENDBRANCH   6  16
TORSDOF 3
ENDMDL
MODEL 6
REMARK VINA RESULT:    -6.474     15.570     18.609
REMARK INTER + INTRA:          -8.267
REMARK INTER:                  -7.665
REMARK INTRA:                  -0.602
REMARK UNBOUND:                -0.657
REMARK  Name = /home/qwerty/github/datacon2025hack/step_04_hit_selection/docking/ligands/lig_264.pdb
REMARK  5 active torsions:
REMARK  status: ('A' for Active; 'I' for Inactive)
REMARK    1  A    between atoms: C1_1  and  C2_2
REMARK    2  A    between atoms: C5_6  and  C6_7
REMARK    3  A    between atoms: C9_12  and  N3_13
REMARK    4  A    between atoms: C10_14  and  C11_16
REMARK    5  A    between atoms: C19_26  and  C20_27
REMARK                            x       y       z     vdW  Elec       q    Type
REMARK                         _______ _______ _______ _____ _____    ______ ____
ROOT
ATOM      1  C6  UNL     1      14.921   0.173  23.257  0.00  0.00    +0.249 C 
ATOM      2  O1  UNL     1      13.756  -0.064  23.677  0.00  0.00    -0.270 OA
ATOM      3  N2  UNL     1      15.182   1.380  22.519  0.00  0.00    -0.293 N 
ATOM      4  C7  UNL     1      16.414   2.141  22.679  0.00  0.00    +0.110 C 
ATOM      5  C8  UNL     1      16.078   3.562  22.248  0.00  0.00    +0.043 C 
ATOM      6  C9  UNL     1      14.823   3.436  21.381  0.00  0.00    +0.095 C 
ATOM      7  C19 UNL     1      14.138   2.144  21.850  0.00  0.00    +0.093 C 
ATOM      8  C20 UNL     1      13.550   1.355  20.676  0.00  0.00    +0.030 C 
ENDROOT
BRANCH   1  14
ATOM      9  C1  UNL     1      16.882  -1.317  21.203  0.00  0.00    +0.064 C 
ATOM     10  C2  UNL     1      16.867  -1.415  22.698  0.00  0.00    +0.025 A 
ATOM     11  N1  UNL     1      17.687  -2.233  23.386  0.00  0.00    -0.364 N 
ATOM     12  C3  UNL     1      17.342  -2.144  24.683  0.00  0.00    +0.083 A 
ATOM     13  C4  UNL     1      16.292  -1.261  24.836  0.00  0.00    +0.032 A 
ATOM     14  C5  UNL     1      15.999  -0.779  23.575  0.00  0.00    +0.057 A 
ATOM     15  H4  UNL     1      18.432  -2.847  22.987  0.00  0.00    +0.165 HD
ENDBRANCH   1  14
BRANCH   6  16
ATOM     16  N3  UNL     1      13.942   4.596  21.545  0.00  0.00    -0.305 N 
ATOM     17  C10 UNL     1      13.199   5.158  20.450  0.00  0.00    +0.261 C 
ATOM     18  O2  UNL     1      13.282   4.642  19.303  0.00  0.00    -0.269 OA
ATOM     19  H12 UNL     1      13.724   4.908  22.517  0.00  0.00    +0.149 HD
BRANCH  17  20
ATOM     20  C11 UNL     1      12.326   6.333  20.644  0.00  0.00    +0.103 A 
ATOM     21  C12 UNL     1      10.944   6.330  20.461  0.00  0.00    +0.041 A 
ATOM     22  C13 UNL     1      10.542   7.619  20.733  0.00  0.00    +0.003 A 
ATOM     23  C14 UNL     1       9.275   8.198  20.710  0.00  0.00    +0.048 A 
ATOM     24  C15 UNL     1       9.172   9.564  21.034  0.00  0.00    +0.124 A 
ATOM     25  F1  UNL     1       7.959  10.170  21.024  0.00  0.00    -0.205 F 
ATOM     26  C16 UNL     1      10.326  10.308  21.367  0.00  0.00    +0.040 A 
ATOM     27  C17 UNL     1      11.593   9.693  21.379  0.00  0.00    +0.029 A 
ATOM     28  C18 UNL     1      11.661   8.338  21.057  0.00  0.00    +0.047 A 
ATOM     29  N4  UNL     1      12.760   7.568  21.006  0.00  0.00    -0.351 N 
ATOM     30  H17 UNL     1      13.740   7.877  21.191  0.00  0.00    +0.166 HD
ENDBRANCH  17  20
ENDBRANCH   6  16
TORSDOF 3
ENDMDL
MODEL 7
REMARK VINA RESULT:    -6.464      6.121      8.497
REMARK INTER + INTRA:          -8.255
REMARK INTER:                  -7.696
REMARK INTRA:                  -0.558
REMARK UNBOUND:                -0.657
REMARK  Name = /home/qwerty/github/datacon2025hack/step_04_hit_selection/docking/ligands/lig_264.pdb
REMARK  5 active torsions:
REMARK  status: ('A' for Active; 'I' for Inactive)
REMARK    1  A    between atoms: C1_1  and  C2_2
REMARK    2  A    between atoms: C5_6  and  C6_7
REMARK    3  A    between atoms: C9_12  and  N3_13
REMARK    4  A    between atoms: C10_14  and  C11_16
REMARK    5  A    between atoms: C19_26  and  C20_27
REMARK                            x       y       z     vdW  Elec       q    Type
REMARK                         _______ _______ _______ _____ _____    ______ ____
ROOT
ATOM      1  C6  UNL     1      19.277   9.276  34.830  0.00  0.00    +0.249 C 
ATOM      2  O1  UNL     1      18.146   9.039  34.325  0.00  0.00    -0.270 OA
ATOM      3  N2  UNL     1      20.375   8.384  34.569  0.00  0.00    -0.293 N 
ATOM      4  C7  UNL     1      21.736   8.863  34.364  0.00  0.00    +0.110 C 
ATOM      5  C8  UNL     1      22.436   7.779  33.556  0.00  0.00    +0.043 C 
ATOM      6  C9  UNL     1      21.606   6.511  33.774  0.00  0.00    +0.095 C 
ATOM      7  C19 UNL     1      20.195   7.009  34.122  0.00  0.00    +0.093 C 
ATOM      8  C20 UNL     1      19.547   6.159  35.220  0.00  0.00    +0.030 C 
ENDROOT
BRANCH   1  14
ATOM      9  C1  UNL     1      18.572   9.670  37.933  0.00  0.00    +0.064 C 
ATOM     10  C2  UNL     1      19.170  10.669  36.990  0.00  0.00    +0.025 A 
ATOM     11  N1  UNL     1      19.443  11.939  37.346  0.00  0.00    -0.364 N 
ATOM     12  C3  UNL     1      19.875  12.577  36.243  0.00  0.00    +0.083 A 
ATOM     13  C4  UNL     1      19.882  11.715  35.166  0.00  0.00    +0.032 A 
ATOM     14  C5  UNL     1      19.453  10.491  35.643  0.00  0.00    +0.057 A 
ATOM     15  H4  UNL     1      19.317  12.362  38.293  0.00  0.00    +0.165 HD
ENDBRANCH   1  14
BRANCH   6  16
ATOM     16  N3  UNL     1      21.592   5.668  32.574  0.00  0.00    -0.305 N 
ATOM     17  C10 UNL     1      21.756   4.242  32.636  0.00  0.00    +0.261 C 
ATOM     18  O2  UNL     1      21.903   3.673  33.751  0.00  0.00    -0.269 OA
ATOM     19  H12 UNL     1      21.285   6.105  31.677  0.00  0.00    +0.149 HD
BRANCH  17  20
ATOM     20  C11 UNL     1      21.746   3.420  31.409  0.00  0.00    +0.103 A 
ATOM     21  C12 UNL     1      21.295   3.861  30.165  0.00  0.00    +0.041 A 
ATOM     22  C13 UNL     1      21.451   2.783  29.323  0.00  0.00    +0.003 A 
ATOM     23  C14 UNL     1      21.165   2.642  27.967  0.00  0.00    +0.048 A 
ATOM     24  C15 UNL     1      21.430   1.397  27.366  0.00  0.00    +0.124 A 
ATOM     25  F1  UNL     1      21.167   1.215  26.049  0.00  0.00    -0.205 F 
ATOM     26  C16 UNL     1      21.966   0.335  28.129  0.00  0.00    +0.040 A 
ATOM     27  C17 UNL     1      22.242   0.510  29.499  0.00  0.00    +0.029 A 
ATOM     28  C18 UNL     1      21.972   1.755  30.064  0.00  0.00    +0.047 A 
ATOM     29  N4  UNL     1      22.157   2.128  31.341  0.00  0.00    -0.351 N 
ATOM     30  H17 UNL     1      22.523   1.527  32.112  0.00  0.00    +0.166 HD
ENDBRANCH  17  20
ENDBRANCH   6  16
TORSDOF 3
ENDMDL
MODEL 8
REMARK VINA RESULT:    -6.417      4.856     10.641
REMARK INTER + INTRA:          -8.200
REMARK INTER:                  -7.573
REMARK INTRA:                  -0.627
REMARK UNBOUND:                -0.657
REMARK  Name = /home/qwerty/github/datacon2025hack/step_04_hit_selection/docking/ligands/lig_264.pdb
REMARK  5 active torsions:
REMARK  status: ('A' for Active; 'I' for Inactive)
REMARK    1  A    between atoms: C1_1  and  C2_2
REMARK    2  A    between atoms: C5_6  and  C6_7
REMARK    3  A    between atoms: C9_12  and  N3_13
REMARK    4  A    between atoms: C10_14  and  C11_16
REMARK    5  A    between atoms: C19_26  and  C20_27
REMARK                            x       y       z     vdW  Elec       q    Type
REMARK                         _______ _______ _______ _____ _____    ______ ____
ROOT
ATOM      1  C6  UNL     1      16.971  10.490  34.993  0.00  0.00    +0.249 C 
ATOM      2  O1  UNL     1      17.431  10.076  33.894  0.00  0.00    -0.270 OA
ATOM      3  N2  UNL     1      15.709  11.179  35.023  0.00  0.00    -0.293 N 
ATOM      4  C7  UNL     1      14.745  10.993  36.099  0.00  0.00    +0.110 C 
ATOM      5  C8  UNL     1      13.392  11.364  35.508  0.00  0.00    +0.043 C 
ATOM      6  C9  UNL     1      13.707  12.230  34.286  0.00  0.00    +0.095 C 
ATOM      7  C19 UNL     1      15.120  11.811  33.850  0.00  0.00    +0.093 C 
ATOM      8  C20 UNL     1      15.955  13.015  33.401  0.00  0.00    +0.030 C 
ENDROOT
BRANCH   1  14
ATOM      9  C1  UNL     1      19.207  12.332  36.368  0.00  0.00    +0.064 C 
ATOM     10  C2  UNL     1      18.680  11.013  36.845  0.00  0.00    +0.025 A 
ATOM     11  N1  UNL     1      19.154  10.388  37.939  0.00  0.00    -0.364 N 
ATOM     12  C3  UNL     1      18.532   9.198  38.018  0.00  0.00    +0.083 A 
ATOM     13  C4  UNL     1      17.648   9.052  36.968  0.00  0.00    +0.032 A 
ATOM     14  C5  UNL     1      17.724  10.217  36.229  0.00  0.00    +0.057 A 
ATOM     15  H4  UNL     1      19.889  10.743  38.590  0.00  0.00    +0.165 HD
ENDBRANCH   1  14
BRANCH   6  16
ATOM     16  N3  UNL     1      12.733  12.014  33.211  0.00  0.00    -0.305 N 
ATOM     17  C10 UNL     1      12.224  13.092  32.409  0.00  0.00    +0.261 C 
ATOM     18  O2  UNL     1      12.626  14.270  32.608  0.00  0.00    -0.269 OA
ATOM     19  H12 UNL     1      12.541  11.030  32.919  0.00  0.00    +0.149 HD
BRANCH  17  20
ATOM     20  C11 UNL     1      11.236  12.844  31.339  0.00  0.00    +0.103 A 
ATOM     21  C12 UNL     1      10.791  11.581  30.950  0.00  0.00    +0.041 A 
ATOM     22  C13 UNL     1       9.900  11.814  29.926  0.00  0.00    +0.003 A 
ATOM     23  C14 UNL     1       9.150  10.926  29.158  0.00  0.00    +0.048 A 
ATOM     24  C15 UNL     1       8.314  11.465  28.162  0.00  0.00    +0.124 A 
ATOM     25  F1  UNL     1       7.566  10.639  27.390  0.00  0.00    -0.205 F 
ATOM     26  C16 UNL     1       8.252  12.862  27.960  0.00  0.00    +0.040 A 
ATOM     27  C17 UNL     1       9.025  13.732  28.753  0.00  0.00    +0.029 A 
ATOM     28  C18 UNL     1       9.839  13.168  29.733  0.00  0.00    +0.047 A 
ATOM     29  N4  UNL     1      10.652  13.812  30.587  0.00  0.00    -0.351 N 
ATOM     30  H17 UNL     1      10.803  14.844  30.635  0.00  0.00    +0.166 HD
ENDBRANCH  17  20
ENDBRANCH   6  16
TORSDOF 3
ENDMDL
MODEL 9
REMARK VINA RESULT:    -6.373      3.998      9.742
REMARK INTER + INTRA:          -8.148
REMARK INTER:                  -7.486
REMARK INTRA:                  -0.662
REMARK UNBOUND:                -0.657
REMARK  Name = /home/qwerty/github/datacon2025hack/step_04_hit_selection/docking/ligands/lig_264.pdb
REMARK  5 active torsions:
REMARK  status: ('A' for Active; 'I' for Inactive)
REMARK    1  A    between atoms: C1_1  and  C2_2
REMARK    2  A    between atoms: C5_6  and  C6_7
REMARK    3  A    between atoms: C9_12  and  N3_13
REMARK    4  A    between atoms: C10_14  and  C11_16
REMARK    5  A    between atoms: C19_26  and  C20_27
REMARK                            x       y       z     vdW  Elec       q    Type
REMARK                         _______ _______ _______ _____ _____    ______ ____
ROOT
ATOM      1  C6  UNL     1      20.983   8.019  33.995  0.00  0.00    +0.249 C 
ATOM      2  O1  UNL     1      20.439   8.159  32.866  0.00  0.00    -0.270 OA
ATOM      3  N2  UNL     1      20.359   8.584  35.162  0.00  0.00    -0.293 N 
ATOM      4  C7  UNL     1      20.356   7.905  36.451  0.00  0.00    +0.110 C 
ATOM      5  C8  UNL     1      19.159   8.464  37.208  0.00  0.00    +0.043 C 
ATOM      6  C9  UNL     1      18.837   9.797  36.528  0.00  0.00    +0.095 C 
ATOM      7  C19 UNL     1      19.379   9.661  35.098  0.00  0.00    +0.093 C 
ATOM      8  C20 UNL     1      20.028  10.960  34.610  0.00  0.00    +0.030 C 
ENDROOT
BRANCH   1  14
ATOM      9  C1  UNL     1      21.285   4.831  34.148  0.00  0.00    +0.064 C 
ATOM     10  C2  UNL     1      22.374   5.860  34.142  0.00  0.00    +0.025 A 
ATOM     11  N1  UNL     1      23.678   5.546  34.265  0.00  0.00    -0.364 N 
ATOM     12  C3  UNL     1      24.362   6.703  34.317  0.00  0.00    +0.083 A 
ATOM     13  C4  UNL     1      23.495   7.773  34.227  0.00  0.00    +0.032 A 
ATOM     14  C5  UNL     1      22.228   7.239  34.095  0.00  0.00    +0.057 A 
ATOM     15  H4  UNL     1      24.084   4.586  34.337  0.00  0.00    +0.165 HD
ENDBRANCH   1  14
BRANCH   6  16
ATOM     16  N3  UNL     1      17.395  10.062  36.528  0.00  0.00    -0.305 N 
ATOM     17  C10 UNL     1      16.857  11.388  36.665  0.00  0.00    +0.261 C 
ATOM     18  O2  UNL     1      17.635  12.374  36.777  0.00  0.00    -0.269 OA
ATOM     19  H12 UNL     1      16.757   9.283  36.250  0.00  0.00    +0.149 HD
BRANCH  17  20
ATOM     20  C11 UNL     1      15.399  11.622  36.670  0.00  0.00    +0.103 A 
ATOM     21  C12 UNL     1      14.780  12.763  36.160  0.00  0.00    +0.041 A 
ATOM     22  C13 UNL     1      13.435  12.571  36.382  0.00  0.00    +0.003 A 
ATOM     23  C14 UNL     1      12.342  13.382  36.083  0.00  0.00    +0.048 A 
ATOM     24  C15 UNL     1      11.063  12.917  36.441  0.00  0.00    +0.124 A 
ATOM     25  F1  UNL     1       9.970  13.672  36.170  0.00  0.00    -0.205 F 
ATOM     26  C16 UNL     1      10.911  11.668  37.085  0.00  0.00    +0.040 A 
ATOM     27  C17 UNL     1      12.037  10.873  37.375  0.00  0.00    +0.029 A 
ATOM     28  C18 UNL     1      13.289  11.360  37.004  0.00  0.00    +0.047 A 
ATOM     29  N4  UNL     1      14.481  10.768  37.189  0.00  0.00    -0.351 N 
ATOM     30  H17 UNL     1      14.647   9.849  37.656  0.00  0.00    +0.166 HD
ENDBRANCH  17  20
ENDBRANCH   6  16
TORSDOF 3
ENDMDL
