REMARK  Name = /home/qwerty/github/datacon2025hack/step_04_hit_selection/docking/ligands/lig_548.pdb
REMARK  6 active torsions:
REMARK  status: ('A' for Active; 'I' for Inactive)
REMARK    1  A    between atoms: N1_3  and  C2_4
REMARK    2  A    between atoms: C5_7  and  C6_8
REMARK    3  A    between atoms: C6_8  and  N2_9
REMARK    4  A    between atoms: N3_17  and  C13_18
REMARK    5  A    between atoms: C16_21  and  O3_22
REMARK    6  A    between atoms: O3_22  and  C17_23
REMARK                            x       y       z     vdW  Elec       q    Type
REMARK                         _______ _______ _______ _____ _____    ______ ____
ROOT
ATOM      1  O1  UNL     1       2.121   0.467   0.076  0.00  0.00    -0.252 OA
ATOM      2  C1  UNL     1       1.980  -0.762  -0.171  0.00  0.00    +0.308 C 
ATOM      3  N1  UNL     1       0.769  -1.441   0.197  0.00  0.00    -0.269 N 
ATOM      4  N3  UNL     1       3.028  -1.495  -0.822  0.00  0.00    -0.269 N 
ATOM      5  H1  UNL     1       0.792  -2.485   0.225  0.00  0.00    +0.156 HD
ATOM      6  H16 UNL     1       2.780  -2.418  -1.244  0.00  0.00    +0.156 HD
ENDROOT
BRANCH   3   7
ATOM      7  C2  UNL     1      -0.424  -0.778   0.649  0.00  0.00    +0.035 A 
ATOM      8  C3  UNL     1      -1.244  -1.408   1.596  0.00  0.00    +0.023 A 
ATOM      9  C4  UNL     1      -2.422  -0.796   2.034  0.00  0.00    +0.007 A 
ATOM     10  C5  UNL     1      -2.812   0.447   1.514  0.00  0.00    -0.033 A 
ATOM     11  C11 UNL     1      -1.999   1.074   0.556  0.00  0.00    +0.007 A 
ATOM     12  C12 UNL     1      -0.821   0.463   0.119  0.00  0.00    +0.023 A 
BRANCH  10  13
ATOM     13  C6  UNL     1      -4.088   1.111   1.989  0.00  0.00    +0.119 C 
BRANCH  13  14
ATOM     14  N2  UNL     1      -5.284   0.764   1.190  0.00  0.00    -0.294 NA
ATOM     15  C7  UNL     1      -5.652  -0.661   1.267  0.00  0.00    +0.113 C 
ATOM     16  C8  UNL     1      -6.927  -0.926   0.439  0.00  0.00    +0.175 C 
ATOM     17  O2  UNL     1      -7.473   0.274  -0.076  0.00  0.00    -0.377 OA
ATOM     18  C9  UNL     1      -6.535   0.898  -0.936  0.00  0.00    +0.175 C 
ATOM     19  C10 UNL     1      -5.208   1.208  -0.212  0.00  0.00    +0.113 C 
ENDBRANCH  13  14
ENDBRANCH  10  13
ENDBRANCH   3   7
BRANCH   4  20
ATOM     20  C13 UNL     1       4.356  -0.986  -1.040  0.00  0.00    +0.035 A 
ATOM     21  C14 UNL     1       5.059  -1.371  -2.190  0.00  0.00    +0.027 A 
ATOM     22  C15 UNL     1       6.359  -0.908  -2.415  0.00  0.00    +0.047 A 
ATOM     23  C16 UNL     1       6.984  -0.066  -1.488  0.00  0.00    +0.127 A 
ATOM     24  C18 UNL     1       6.290   0.303  -0.320  0.00  0.00    +0.047 A 
ATOM     25  C19 UNL     1       4.990  -0.160  -0.096  0.00  0.00    +0.027 A 
BRANCH  23  26
ATOM     26  O3  UNL     1       8.289   0.371  -1.762  0.00  0.00    -0.434 OA
BRANCH  26  27
ATOM     27  C17 UNL     1       9.043   1.249  -0.930  0.00  0.00    +0.541 C 
ATOM     28  F1  UNL     1       8.432   2.489  -0.876  0.00  0.00    -0.166 F 
ATOM     29  F2  UNL     1      10.310   1.396  -1.459  0.00  0.00    -0.166 F 
ENDBRANCH  26  27
ENDBRANCH  23  26
ENDBRANCH   4  20
TORSDOF 6
