REMARK  Name = /home/qwerty/github/datacon2025hack/step_04_hit_selection/docking/ligands/lig_400.pdb
REMARK  4 active torsions:
REMARK  status: ('A' for Active; 'I' for Inactive)
REMARK    1  A    between atoms: C1_2  and  C8_11
REMARK    2  A    between atoms: N1_3  and  C2_4
REMARK    3  A    between atoms: C9_14  and  C10_15
REMARK    4  A    between atoms: C11_16  and  C12_17
REMARK                            x       y       z     vdW  Elec       q    Type
REMARK                         _______ _______ _______ _____ _____    ______ ____
ROOT
ATOM      1  C8  UNL     1       1.760  -0.226   0.834  0.00  0.00    +0.187 A 
ATOM      2  N2  UNL     1       1.689  -0.225  -0.516  0.00  0.00    -0.136 NA
ATOM      3  N3  UNL     1       0.449  -0.081  -0.981  0.00  0.00    -0.141 NA
ATOM      4  C9  UNL     1      -0.480   0.034  -0.004  0.00  0.00    +0.125 A 
ATOM      5  S1  UNL     1       0.232  -0.039   1.520  0.00  0.00    -0.042 S 
ENDROOT
BRANCH   1   7
ATOM      6  O1  UNL     1       2.981  -0.348   2.848  0.00  0.00    -0.268 OA
ATOM      7  C1  UNL     1       3.014  -0.364   1.588  0.00  0.00    +0.275 C 
ATOM      8  N1  UNL     1       4.259  -0.555   0.896  0.00  0.00    -0.280 N 
ATOM      9  H1  UNL     1       4.224  -0.868  -0.101  0.00  0.00    +0.155 HD
BRANCH   8  10
ATOM     10  C2  UNL     1       5.550  -0.459   1.522  0.00  0.00    +0.034 A 
ATOM     11  C3  UNL     1       5.799   0.464   2.555  0.00  0.00    +0.026 A 
ATOM     12  C4  UNL     1       7.071   0.553   3.130  0.00  0.00    +0.040 A 
ATOM     13  C5  UNL     1       8.107  -0.265   2.672  0.00  0.00    +0.124 A 
ATOM     14  F1  UNL     1       9.340  -0.176   3.229  0.00  0.00    -0.205 F 
ATOM     15  C6  UNL     1       7.874  -1.169   1.631  0.00  0.00    +0.040 A 
ATOM     16  C7  UNL     1       6.604  -1.260   1.054  0.00  0.00    +0.026 A 
ENDBRANCH   8  10
ENDBRANCH   1   7
BRANCH   4  17
ATOM     17  C10 UNL     1      -1.922   0.206  -0.238  0.00  0.00    +0.037 C 
ATOM     18  C11 UNL     1      -2.440   0.238  -1.474  0.00  0.00    +0.011 C 
BRANCH  18  19
ATOM     19  C12 UNL     1      -3.887   0.399  -1.758  0.00  0.00    -0.021 A 
ATOM     20  C13 UNL     1      -4.369   0.024  -3.040  0.00  0.00    +0.012 A 
ATOM     21  C14 UNL     1      -5.730   0.164  -3.368  0.00  0.00    +0.050 A 
ATOM     22  C15 UNL     1      -6.580   0.688  -2.401  0.00  0.00    +0.166 A 
ATOM     23  C16 UNL     1      -6.131   1.061  -1.177  0.00  0.00    +0.167 A 
ATOM     24  C17 UNL     1      -4.794   0.939  -0.811  0.00  0.00    +0.057 A 
ATOM     25  O2  UNL     1      -7.185   1.553  -0.431  0.00  0.00    -0.453 OA
ATOM     26  C18 UNL     1      -8.370   1.481  -1.237  0.00  0.00    +0.466 C 
ATOM     27  O3  UNL     1      -7.938   0.923  -2.486  0.00  0.00    -0.453 OA
ENDBRANCH  18  19
ENDBRANCH   4  17
TORSDOF 4
