REMARK  Name = /home/qwerty/github/datacon2025hack/step_04_hit_selection/docking/ligands/lig_257.pdb
REMARK  15 active torsions:
REMARK  status: ('A' for Active; 'I' for Inactive)
REMARK    1  A    between atoms: C1_1  and  O1_2
REMARK    2  A    between atoms: O1_2  and  C2_3
REMARK    3  A    between atoms: C5_6  and  C6_7
REMARK    4  A    between atoms: C6_7  and  C7_8
REMARK    5  A    between atoms: C7_8  and  C8_9
REMARK    6  A    between atoms: C7_8  and  C9_11
REMARK    7  A    between atoms: C8_9  and  O2_10
REMARK    8  A    between atoms: C9_11  and  N1_12
REMARK    9  A    between atoms: C10_13  and  C11_15
REMARK   10  A    between atoms: C14_18  and  S1_19
REMARK   11  A    between atoms: S1_19  and  N2_22
REMARK   12  A    between atoms: N2_22  and  C15_23
REMARK   13  A    between atoms: C15_23  and  C16_24
REMARK   14  A    between atoms: C15_23  and  C17_25
REMARK   15  A    between atoms: C21_29  and  O6_30
REMARK                            x       y       z     vdW  Elec       q    Type
REMARK                         _______ _______ _______ _____ _____    ______ ____
ROOT
ATOM      1  N1  UNL     1       0.246  -2.212  -0.406  0.00  0.00    -0.311 N 
ATOM      2  C10 UNL     1      -0.297  -1.912   0.891  0.00  0.00    +0.244 C 
ATOM      3  O3  UNL     1       0.481  -1.754   1.872  0.00  0.00    -0.270 OA
ATOM      4  H14 UNL     1      -0.384  -2.279  -1.235  0.00  0.00    +0.149 HD
ENDROOT
BRANCH   2   5
ATOM      5  C11 UNL     1      -1.758  -1.766   1.096  0.00  0.00    +0.037 A 
ATOM      6  C12 UNL     1      -2.241  -0.965   2.147  0.00  0.00    +0.015 A 
ATOM      7  C13 UNL     1      -3.615  -0.814   2.351  0.00  0.00    +0.029 A 
ATOM      8  C14 UNL     1      -4.528  -1.471   1.518  0.00  0.00    +0.105 A 
ATOM      9  C18 UNL     1      -4.056  -2.279   0.477  0.00  0.00    +0.029 A 
ATOM     10  C19 UNL     1      -2.682  -2.430   0.269  0.00  0.00    +0.015 A 
BRANCH   8  11
ATOM     11  S1  UNL     1      -6.258  -1.243   1.761  0.00  0.00    +0.059 S 
ATOM     12  O4  UNL     1      -6.552  -1.266   3.235  0.00  0.00    -0.153 OA
ATOM     13  O5  UNL     1      -7.021  -2.364   1.110  0.00  0.00    -0.153 OA
BRANCH  11  14
ATOM     14  N2  UNL     1      -6.780   0.279   1.099  0.00  0.00    -0.187 NA
ATOM     15  H17 UNL     1      -6.294   1.044   1.622  0.00  0.00    +0.148 HD
BRANCH  14  16
ATOM     16  C15 UNL     1      -6.513   0.370  -0.349  0.00  0.00    +0.070 C 
ATOM     17  C16 UNL     1      -7.707   1.040  -1.027  0.00  0.00    +0.025 C 
ATOM     18  C17 UNL     1      -5.227   1.160  -0.644  0.00  0.00    +0.025 C 
ENDBRANCH  14  16
ENDBRANCH  11  14
ENDBRANCH   8  11
ENDBRANCH   2   5
BRANCH   1  19
ATOM     19  C9  UNL     1       1.679  -2.403  -0.631  0.00  0.00    +0.110 C 
BRANCH  19  20
ATOM     20  C7  UNL     1       2.436  -1.056  -0.627  0.00  0.00    +0.036 C 
BRANCH  20  21
ATOM     21  C6  UNL     1       3.953  -1.306  -0.785  0.00  0.00    +0.042 C 
BRANCH  21  25
ATOM     22  C2  UNL     1       6.230   2.329  -0.217  0.00  0.00    +0.161 A 
ATOM     23  C3  UNL     1       5.717   1.626   0.890  0.00  0.00    +0.049 A 
ATOM     24  C4  UNL     1       4.988   0.449   0.703  0.00  0.00    +0.007 A 
ATOM     25  C5  UNL     1       4.763  -0.049  -0.588  0.00  0.00    -0.043 A 
ATOM     26  C20 UNL     1       5.270   0.652  -1.693  0.00  0.00    +0.052 A 
ATOM     27  C21 UNL     1       6.001   1.834  -1.509  0.00  0.00    +0.159 A 
BRANCH  22  29
ATOM     28  C1  UNL     1       7.272   4.128   1.174  0.00  0.00    +0.277 C 
ATOM     29  O1  UNL     1       6.967   3.515  -0.074  0.00  0.00    -0.491 OA
ENDBRANCH  22  29
BRANCH  27  30
ATOM     30  O6  UNL     1       6.503   2.527  -2.610  0.00  0.00    -0.503 OA
ATOM     31  H28 UNL     1       6.355   2.198  -3.557  0.00  0.00    +0.292 HD
ENDBRANCH  27  30
ENDBRANCH  21  25
ENDBRANCH  20  21
BRANCH  20  32
ATOM     32  C8  UNL     1       1.891  -0.093  -1.707  0.00  0.00    +0.161 C 
BRANCH  32  33
ATOM     33  O2  UNL     1       2.123  -0.589  -2.999  0.00  0.00    -0.395 OA
ATOM     34  H11 UNL     1       1.338  -1.147  -3.239  0.00  0.00    +0.209 HD
ENDBRANCH  32  33
ENDBRANCH  20  32
ENDBRANCH  19  20
ENDBRANCH   1  19
TORSDOF 12
