MODEL 1
REMARK VINA RESULT:    -5.708      0.000      0.000
REMARK INTER + INTRA:          -9.899
REMARK INTER:                  -7.710
REMARK INTRA:                  -2.189
REMARK UNBOUND:                -2.189
REMARK  Name = /home/qwerty/github/datacon2025hack/step_04_hit_selection/docking/ligands/lig_455.pdb
REMARK  12 active torsions:
REMARK  status: ('A' for Active; 'I' for Inactive)
REMARK    1  A    between atoms: C1_1  and  C2_2
REMARK    2  A    between atoms: C2_2  and  C3_3
REMARK    3  A    between atoms: C2_2  and  N1_4
REMARK    4  A    between atoms: C4_5  and  C5_7
REMARK    5  A    between atoms: C8_13  and  C9_14
REMARK    6  A    between atoms: C11_16  and  C12_17
REMARK    7  A    between atoms: N5_19  and  C14_20
REMARK    8  A    between atoms: C14_20  and  C15_21
REMARK    9  A    between atoms: C15_21  and  C16_22
REMARK   10  A    between atoms: C15_21  and  N6_29
REMARK   11  A    between atoms: N6_29  and  C22_30
REMARK   12  A    between atoms: N6_29  and  C23_31
REMARK                            x       y       z     vdW  Elec       q    Type
REMARK                         _______ _______ _______ _____ _____    ______ ____
ROOT
ATOM      1  C5  UNL     1       8.396   4.546  22.590  0.00  0.00    +0.221 A 
ATOM      2  N2  UNL     1       7.221   4.772  21.972  0.00  0.00    -0.123 NA
ATOM      3  N3  UNL     1       7.247   6.015  21.523  0.00  0.00    -0.113 NA
ATOM      4  C6  UNL     1       8.441   6.532  21.867  0.00  0.00    +0.220 A 
ATOM      5  N4  UNL     1       8.767   7.920  21.679  0.00  0.00    -0.299 N 
ATOM      6  C7  UNL     1      10.092   8.327  21.189  0.00  0.00    +0.111 C 
ATOM      7  C8  UNL     1       9.969   9.568  20.289  0.00  0.00    +0.004 C 
ATOM      8  C9  UNL     1      11.337   9.975  19.730  0.00  0.00    +0.009 C 
ATOM      9  C10 UNL     1       9.296  10.749  21.034  0.00  0.00    +0.009 C 
ATOM     10  C11 UNL     1       8.331  10.301  22.160  0.00  0.00    +0.004 C 
ATOM     11  C12 UNL     1       7.242  11.349  22.405  0.00  0.00    +0.009 C 
ATOM     12  C13 UNL     1       7.711   8.925  21.865  0.00  0.00    +0.111 C 
ATOM     13  N5  UNL     1       9.200   5.638  22.546  0.00  0.00    -0.290 N 
ENDROOT
BRANCH   1  15
ATOM     14  N1  UNL     1       9.505   2.288  22.649  0.00  0.00    -0.306 N 
ATOM     15  C4  UNL     1       8.694   3.284  23.289  0.00  0.00    +0.282 C 
ATOM     16  O1  UNL     1       8.243   3.084  24.449  0.00  0.00    -0.267 OA
ATOM     17  H8  UNL     1       9.866   2.483  21.687  0.00  0.00    +0.149 HD
BRANCH  14  19
ATOM     18  C1  UNL     1       9.680  -0.120  22.171  0.00  0.00    +0.027 C 
ATOM     19  C2  UNL     1       9.734   0.970  23.248  0.00  0.00    +0.067 C 
ATOM     20  C3  UNL     1      11.086   0.950  23.968  0.00  0.00    +0.027 C 
ENDBRANCH  14  19
ENDBRANCH   1  15
BRANCH  13  21
ATOM     21  C14 UNL     1      10.399   5.901  23.354  0.00  0.00    +0.150 C 
BRANCH  21  22
ATOM     22  C15 UNL     1      10.029   6.070  24.845  0.00  0.00    +0.106 C 
BRANCH  22  23
ATOM     23  C16 UNL     1       9.532   7.476  25.181  0.00  0.00    -0.028 A 
ATOM     24  C17 UNL     1      10.353   8.613  25.038  0.00  0.00    +0.008 A 
ATOM     25  C18 UNL     1       9.866   9.884  25.359  0.00  0.00    +0.038 A 
ATOM     26  C19 UNL     1       8.560  10.038  25.828  0.00  0.00    +0.123 A 
ATOM     27  F1  UNL     1       8.093  11.273  26.142  0.00  0.00    -0.205 F 
ATOM     28  C20 UNL     1       7.737   8.920  25.978  0.00  0.00    +0.038 A 
ATOM     29  C21 UNL     1       8.219   7.647  25.660  0.00  0.00    +0.008 A 
ENDBRANCH  22  23
BRANCH  22  30
ATOM     30  N6  UNL     1      11.129   5.593  25.729  0.00  0.00    -0.300 NA
ATOM     31  C22 UNL     1      10.696   5.167  27.073  0.00  0.00    +0.105 C 
ATOM     32  C23 UNL     1      11.921   4.529  25.090  0.00  0.00    +0.105 C 
ENDBRANCH  22  30
ENDBRANCH  21  22
ENDBRANCH  13  21
TORSDOF 6
ENDMDL
MODEL 2
REMARK VINA RESULT:    -5.597     10.755     13.116
REMARK INTER + INTRA:          -9.749
REMARK INTER:                  -7.428
REMARK INTRA:                  -2.321
REMARK UNBOUND:                -2.189
REMARK  Name = /home/qwerty/github/datacon2025hack/step_04_hit_selection/docking/ligands/lig_455.pdb
REMARK  12 active torsions:
REMARK  status: ('A' for Active; 'I' for Inactive)
REMARK    1  A    between atoms: C1_1  and  C2_2
REMARK    2  A    between atoms: C2_2  and  C3_3
REMARK    3  A    between atoms: C2_2  and  N1_4
REMARK    4  A    between atoms: C4_5  and  C5_7
REMARK    5  A    between atoms: C8_13  and  C9_14
REMARK    6  A    between atoms: C11_16  and  C12_17
REMARK    7  A    between atoms: N5_19  and  C14_20
REMARK    8  A    between atoms: C14_20  and  C15_21
REMARK    9  A    between atoms: C15_21  and  C16_22
REMARK   10  A    between atoms: C15_21  and  N6_29
REMARK   11  A    between atoms: N6_29  and  C22_30
REMARK   12  A    between atoms: N6_29  and  C23_31
REMARK                            x       y       z     vdW  Elec       q    Type
REMARK                         _______ _______ _______ _____ _____    ______ ____
ROOT
ATOM      1  C5  UNL     1      17.110   2.770  30.648  0.00  0.00    +0.221 A 
ATOM      2  N2  UNL     1      16.258   3.614  30.034  0.00  0.00    -0.123 NA
ATOM      3  N3  UNL     1      16.423   3.455  28.732  0.00  0.00    -0.113 NA
ATOM      4  C6  UNL     1      17.369   2.512  28.567  0.00  0.00    +0.220 A 
ATOM      5  N4  UNL     1      17.921   2.186  27.279  0.00  0.00    -0.299 N 
ATOM      6  C7  UNL     1      18.180   0.790  26.898  0.00  0.00    +0.111 C 
ATOM      7  C8  UNL     1      17.915   0.591  25.397  0.00  0.00    +0.004 C 
ATOM      8  C9  UNL     1      18.133  -0.872  24.993  0.00  0.00    +0.009 C 
ATOM      9  C10 UNL     1      18.781   1.543  24.533  0.00  0.00    +0.009 C 
ATOM     10  C11 UNL     1      19.165   2.859  25.256  0.00  0.00    +0.004 C 
ATOM     11  C12 UNL     1      19.406   3.991  24.254  0.00  0.00    +0.009 C 
ATOM     12  C13 UNL     1      18.108   3.264  26.298  0.00  0.00    +0.111 C 
ATOM     13  N5  UNL     1      17.834   2.053  29.754  0.00  0.00    -0.290 N 
ENDROOT
BRANCH   1  15
ATOM     14  N1  UNL     1      16.634   1.685  32.868  0.00  0.00    -0.306 N 
ATOM     15  C4  UNL     1      17.264   2.729  32.113  0.00  0.00    +0.282 C 
ATOM     16  O1  UNL     1      17.956   3.607  32.699  0.00  0.00    -0.267 OA
ATOM     17  H8  UNL     1      16.068   0.971  32.355  0.00  0.00    +0.149 HD
BRANCH  14  19
ATOM     18  C1  UNL     1      15.259   1.964  34.890  0.00  0.00    +0.027 C 
ATOM     19  C2  UNL     1      16.656   1.664  34.334  0.00  0.00    +0.067 C 
ATOM     20  C3  UNL     1      17.153   0.303  34.830  0.00  0.00    +0.027 C 
ENDBRANCH  14  19
ENDBRANCH   1  15
BRANCH  13  21
ATOM     21  C14 UNL     1      19.058   1.279  30.005  0.00  0.00    +0.150 C 
BRANCH  21  22
ATOM     22  C15 UNL     1      20.249   2.220  30.299  0.00  0.00    +0.106 C 
BRANCH  22  23
ATOM     23  C16 UNL     1      20.997   2.647  29.036  0.00  0.00    -0.028 A 
ATOM     24  C17 UNL     1      21.071   3.996  28.630  0.00  0.00    +0.008 A 
ATOM     25  C18 UNL     1      21.759   4.349  27.466  0.00  0.00    +0.038 A 
ATOM     26  C19 UNL     1      22.379   3.367  26.691  0.00  0.00    +0.123 A 
ATOM     27  F1  UNL     1      23.042   3.715  25.560  0.00  0.00    -0.205 F 
ATOM     28  C20 UNL     1      22.310   2.028  27.078  0.00  0.00    +0.038 A 
ATOM     29  C21 UNL     1      21.622   1.668  28.241  0.00  0.00    +0.008 A 
ENDBRANCH  22  23
BRANCH  22  30
ATOM     30  N6  UNL     1      21.131   1.656  31.359  0.00  0.00    -0.300 NA
ATOM     31  C22 UNL     1      21.802   2.664  32.200  0.00  0.00    +0.105 C 
ATOM     32  C23 UNL     1      20.416   0.685  32.204  0.00  0.00    +0.105 C 
ENDBRANCH  22  30
ENDBRANCH  21  22
ENDBRANCH  13  21
TORSDOF 6
ENDMDL
MODEL 3
REMARK VINA RESULT:    -5.564     14.583     17.272
REMARK INTER + INTRA:          -9.705
REMARK INTER:                  -8.116
REMARK INTRA:                  -1.589
REMARK UNBOUND:                -2.189
REMARK  Name = /home/qwerty/github/datacon2025hack/step_04_hit_selection/docking/ligands/lig_455.pdb
REMARK  12 active torsions:
REMARK  status: ('A' for Active; 'I' for Inactive)
REMARK    1  A    between atoms: C1_1  and  C2_2
REMARK    2  A    between atoms: C2_2  and  C3_3
REMARK    3  A    between atoms: C2_2  and  N1_4
REMARK    4  A    between atoms: C4_5  and  C5_7
REMARK    5  A    between atoms: C8_13  and  C9_14
REMARK    6  A    between atoms: C11_16  and  C12_17
REMARK    7  A    between atoms: N5_19  and  C14_20
REMARK    8  A    between atoms: C14_20  and  C15_21
REMARK    9  A    between atoms: C15_21  and  C16_22
REMARK   10  A    between atoms: C15_21  and  N6_29
REMARK   11  A    between atoms: N6_29  and  C22_30
REMARK   12  A    between atoms: N6_29  and  C23_31
REMARK                            x       y       z     vdW  Elec       q    Type
REMARK                         _______ _______ _______ _____ _____    ______ ____
ROOT
ATOM      1  C5  UNL     1      20.650   7.717  37.017  0.00  0.00    +0.221 A 
ATOM      2  N2  UNL     1      21.676   7.317  37.792  0.00  0.00    -0.123 NA
ATOM      3  N3  UNL     1      22.745   7.240  37.018  0.00  0.00    -0.113 NA
ATOM      4  C6  UNL     1      22.358   7.600  35.779  0.00  0.00    +0.220 A 
ATOM      5  N4  UNL     1      23.223   7.488  34.635  0.00  0.00    -0.299 N 
ATOM      6  C7  UNL     1      23.272   8.546  33.616  0.00  0.00    +0.111 C 
ATOM      7  C8  UNL     1      24.700   8.686  33.063  0.00  0.00    +0.004 C 
ATOM      8  C9  UNL     1      24.777   9.820  32.034  0.00  0.00    +0.009 C 
ATOM      9  C10 UNL     1      25.214   7.353  32.464  0.00  0.00    +0.009 C 
ATOM     10  C11 UNL     1      24.571   6.097  33.104  0.00  0.00    +0.004 C 
ATOM     11  C12 UNL     1      25.503   4.887  33.007  0.00  0.00    +0.009 C 
ATOM     12  C13 UNL     1      24.154   6.353  34.563  0.00  0.00    +0.111 C 
ATOM     13  N5  UNL     1      21.040   7.908  35.733  0.00  0.00    -0.290 N 
ENDROOT
BRANCH   1  15
ATOM     14  N1  UNL     1      18.380   6.716  37.438  0.00  0.00    -0.306 N 
ATOM     15  C4  UNL     1      19.272   7.836  37.526  0.00  0.00    +0.282 C 
ATOM     16  O1  UNL     1      18.883   8.918  38.045  0.00  0.00    -0.267 OA
ATOM     17  H8  UNL     1      18.732   5.832  37.004  0.00  0.00    +0.149 HD
BRANCH  14  19
ATOM     18  C1  UNL     1      16.117   7.208  36.605  0.00  0.00    +0.027 C 
ATOM     19  C2  UNL     1      16.968   6.816  37.819  0.00  0.00    +0.067 C 
ATOM     20  C3  UNL     1      16.489   5.484  38.405  0.00  0.00    +0.027 C 
ENDBRANCH  14  19
ENDBRANCH   1  15
BRANCH  13  21
ATOM     21  C14 UNL     1      20.183   8.031  34.544  0.00  0.00    +0.150 C 
BRANCH  21  22
ATOM     22  C15 UNL     1      20.172   9.489  34.027  0.00  0.00    +0.106 C 
BRANCH  22  23
ATOM     23  C16 UNL     1      19.318  10.420  34.886  0.00  0.00    -0.028 A 
ATOM     24  C17 UNL     1      19.886  11.445  35.670  0.00  0.00    +0.008 A 
ATOM     25  C18 UNL     1      19.074  12.276  36.448  0.00  0.00    +0.038 A 
ATOM     26  C19 UNL     1      17.690  12.094  36.459  0.00  0.00    +0.123 A 
ATOM     27  F1  UNL     1      16.907  12.900  37.219  0.00  0.00    -0.205 F 
ATOM     28  C20 UNL     1      17.115  11.080  35.691  0.00  0.00    +0.038 A 
ATOM     29  C21 UNL     1      17.921  10.246  34.912  0.00  0.00    +0.008 A 
ENDBRANCH  22  23
BRANCH  22  30
ATOM     30  N6  UNL     1      19.845   9.540  32.575  0.00  0.00    -0.300 NA
ATOM     31  C22 UNL     1      20.624  10.527  31.804  0.00  0.00    +0.105 C 
ATOM     32  C23 UNL     1      19.944   8.212  31.945  0.00  0.00    +0.105 C 
ENDBRANCH  22  30
ENDBRANCH  21  22
ENDBRANCH  13  21
TORSDOF 6
ENDMDL
MODEL 4
REMARK VINA RESULT:    -5.530      5.954      8.867
REMARK INTER + INTRA:          -9.659
REMARK INTER:                  -7.359
REMARK INTRA:                  -2.300
REMARK UNBOUND:                -2.189
REMARK  Name = /home/qwerty/github/datacon2025hack/step_04_hit_selection/docking/ligands/lig_455.pdb
REMARK  12 active torsions:
REMARK  status: ('A' for Active; 'I' for Inactive)
REMARK    1  A    between atoms: C1_1  and  C2_2
REMARK    2  A    between atoms: C2_2  and  C3_3
REMARK    3  A    between atoms: C2_2  and  N1_4
REMARK    4  A    between atoms: C4_5  and  C5_7
REMARK    5  A    between atoms: C8_13  and  C9_14
REMARK    6  A    between atoms: C11_16  and  C12_17
REMARK    7  A    between atoms: N5_19  and  C14_20
REMARK    8  A    between atoms: C14_20  and  C15_21
REMARK    9  A    between atoms: C15_21  and  C16_22
REMARK   10  A    between atoms: C15_21  and  N6_29
REMARK   11  A    between atoms: N6_29  and  C22_30
REMARK   12  A    between atoms: N6_29  and  C23_31
REMARK                            x       y       z     vdW  Elec       q    Type
REMARK                         _______ _______ _______ _____ _____    ______ ____
ROOT
ATOM      1  C5  UNL     1      10.826   8.127  30.130  0.00  0.00    +0.221 A 
ATOM      2  N2  UNL     1      12.115   7.810  30.359  0.00  0.00    -0.123 NA
ATOM      3  N3  UNL     1      12.712   8.903  30.804  0.00  0.00    -0.113 NA
ATOM      4  C6  UNL     1      11.778   9.872  30.846  0.00  0.00    +0.220 A 
ATOM      5  N4  UNL     1      12.099  11.244  31.136  0.00  0.00    -0.299 N 
ATOM      6  C7  UNL     1      11.239  12.054  32.011  0.00  0.00    +0.111 C 
ATOM      7  C8  UNL     1      12.091  13.029  32.839  0.00  0.00    +0.004 C 
ATOM      8  C9  UNL     1      11.213  13.847  33.793  0.00  0.00    +0.009 C 
ATOM      9  C10 UNL     1      12.943  13.955  31.933  0.00  0.00    +0.009 C 
ATOM     10  C11 UNL     1      13.295  13.325  30.562  0.00  0.00    +0.004 C 
ATOM     11  C12 UNL     1      14.596  13.907  30.004  0.00  0.00    +0.009 C 
ATOM     12  C13 UNL     1      13.370  11.791  30.643  0.00  0.00    +0.111 C 
ATOM     13  N5  UNL     1      10.570   9.425  30.426  0.00  0.00    -0.290 N 
ENDROOT
BRANCH   1  15
ATOM     14  N1  UNL     1       8.800   6.650  30.350  0.00  0.00    -0.306 N 
ATOM     15  C4  UNL     1       9.868   7.171  29.547  0.00  0.00    +0.282 C 
ATOM     16  O1  UNL     1       9.985   6.818  28.341  0.00  0.00    -0.267 OA
ATOM     17  H8  UNL     1       8.728   6.962  31.346  0.00  0.00    +0.149 HD
BRANCH  14  19
ATOM     18  C1  UNL     1       8.391   4.224  30.285  0.00  0.00    +0.027 C 
ATOM     19  C2  UNL     1       7.892   5.610  29.857  0.00  0.00    +0.067 C 
ATOM     20  C3  UNL     1       6.475   5.860  30.383  0.00  0.00    +0.027 C 
ENDBRANCH  14  19
ENDBRANCH   1  15
BRANCH  13  21
ATOM     21  C14 UNL     1       9.402  10.223  30.026  0.00  0.00    +0.150 C 
BRANCH  21  22
ATOM     22  C15 UNL     1       9.420  10.494  28.504  0.00  0.00    +0.106 C 
BRANCH  22  23
ATOM     23  C16 UNL     1      10.198  11.755  28.132  0.00  0.00    -0.028 A 
ATOM     24  C17 UNL     1      11.375  11.706  27.356  0.00  0.00    +0.008 A 
ATOM     25  C18 UNL     1      12.065  12.880  27.038  0.00  0.00    +0.038 A 
ATOM     26  C19 UNL     1      11.596  14.114  27.491  0.00  0.00    +0.123 A 
ATOM     27  F1  UNL     1      12.271  15.250  27.184  0.00  0.00    -0.205 F 
ATOM     28  C20 UNL     1      10.434  14.177  28.263  0.00  0.00    +0.038 A 
ATOM     29  C21 UNL     1       9.741  13.007  28.585  0.00  0.00    +0.008 A 
ENDBRANCH  22  23
BRANCH  22  30
ATOM     30  N6  UNL     1       8.044  10.445  27.934  0.00  0.00    -0.300 NA
ATOM     31  C22 UNL     1       7.977  10.014  26.526  0.00  0.00    +0.105 C 
ATOM     32  C23 UNL     1       7.140   9.626  28.759  0.00  0.00    +0.105 C 
ENDBRANCH  22  30
ENDBRANCH  21  22
ENDBRANCH  13  21
TORSDOF 6
ENDMDL
MODEL 5
REMARK VINA RESULT:    -5.507      4.036      6.373
REMARK INTER + INTRA:          -9.627
REMARK INTER:                  -7.401
REMARK INTRA:                  -2.226
REMARK UNBOUND:                -2.189
REMARK  Name = /home/qwerty/github/datacon2025hack/step_04_hit_selection/docking/ligands/lig_455.pdb
REMARK  12 active torsions:
REMARK  status: ('A' for Active; 'I' for Inactive)
REMARK    1  A    between atoms: C1_1  and  C2_2
REMARK    2  A    between atoms: C2_2  and  C3_3
REMARK    3  A    between atoms: C2_2  and  N1_4
REMARK    4  A    between atoms: C4_5  and  C5_7
REMARK    5  A    between atoms: C8_13  and  C9_14
REMARK    6  A    between atoms: C11_16  and  C12_17
REMARK    7  A    between atoms: N5_19  and  C14_20
REMARK    8  A    between atoms: C14_20  and  C15_21
REMARK    9  A    between atoms: C15_21  and  C16_22
REMARK   10  A    between atoms: C15_21  and  N6_29
REMARK   11  A    between atoms: N6_29  and  C22_30
REMARK   12  A    between atoms: N6_29  and  C23_31
REMARK                            x       y       z     vdW  Elec       q    Type
REMARK                         _______ _______ _______ _____ _____    ______ ____
ROOT
ATOM      1  C5  UNL     1       9.230   9.552  23.548  0.00  0.00    +0.221 A 
ATOM      2  N2  UNL     1       7.888   9.445  23.506  0.00  0.00    -0.123 NA
ATOM      3  N3  UNL     1       7.429   9.813  24.690  0.00  0.00    -0.113 NA
ATOM      4  C6  UNL     1       8.497  10.145  25.439  0.00  0.00    +0.220 A 
ATOM      5  N4  UNL     1       8.395  10.449  26.842  0.00  0.00    -0.299 N 
ATOM      6  C7  UNL     1       9.155  11.559  27.434  0.00  0.00    +0.111 C 
ATOM      7  C8  UNL     1       8.336  12.229  28.549  0.00  0.00    +0.004 C 
ATOM      8  C9  UNL     1       9.095  13.421  29.143  0.00  0.00    +0.009 C 
ATOM      9  C10 UNL     1       7.937  11.216  29.652  0.00  0.00    +0.009 C 
ATOM     10  C11 UNL     1       7.817   9.758  29.140  0.00  0.00    +0.004 C 
ATOM     11  C12 UNL     1       6.837   8.950  29.994  0.00  0.00    +0.009 C 
ATOM     12  C13 UNL     1       7.420   9.708  27.654  0.00  0.00    +0.111 C 
ATOM     13  N5  UNL     1       9.658   9.993  24.757  0.00  0.00    -0.290 N 
ENDROOT
BRANCH   1  15
ATOM     14  N1  UNL     1      10.917  10.119  21.769  0.00  0.00    -0.306 N 
ATOM     15  C4  UNL     1      10.093   9.146  22.425  0.00  0.00    +0.282 C 
ATOM     16  O1  UNL     1      10.110   7.942  22.047  0.00  0.00    -0.267 OA
ATOM     17  H8  UNL     1      10.882  11.109  22.105  0.00  0.00    +0.149 HD
BRANCH  14  19
ATOM     18  C1  UNL     1      10.892  10.099  19.308  0.00  0.00    +0.027 C 
ATOM     19  C2  UNL     1      11.702   9.795  20.574  0.00  0.00    +0.067 C 
ATOM     20  C3  UNL     1      13.013  10.588  20.578  0.00  0.00    +0.027 C 
ENDBRANCH  14  19
ENDBRANCH   1  15
BRANCH  13  21
ATOM     21  C14 UNL     1      11.023   9.941  25.299  0.00  0.00    +0.150 C 
BRANCH  21  22
ATOM     22  C15 UNL     1      11.439   8.481  25.596  0.00  0.00    +0.106 C 
BRANCH  22  23
ATOM     23  C16 UNL     1      10.925   7.978  26.944  0.00  0.00    -0.028 A 
ATOM     24  C17 UNL     1      11.413   8.484  28.167  0.00  0.00    +0.008 A 
ATOM     25  C18 UNL     1      10.923   7.997  29.382  0.00  0.00    +0.038 A 
ATOM     26  C19 UNL     1       9.947   6.998  29.397  0.00  0.00    +0.123 A 
ATOM     27  F1  UNL     1       9.478   6.525  30.578  0.00  0.00    -0.205 F 
ATOM     28  C20 UNL     1       9.458   6.485  28.193  0.00  0.00    +0.038 A 
ATOM     29  C21 UNL     1       9.945   6.968  26.975  0.00  0.00    +0.008 A 
ENDBRANCH  22  23
BRANCH  22  30
ATOM     30  N6  UNL     1      12.903   8.290  25.399  0.00  0.00    -0.300 NA
ATOM     31  C22 UNL     1      13.358   6.891  25.500  0.00  0.00    +0.105 C 
ATOM     32  C23 UNL     1      13.367   8.884  24.134  0.00  0.00    +0.105 C 
ENDBRANCH  22  30
ENDBRANCH  21  22
ENDBRANCH  13  21
TORSDOF 6
ENDMDL
MODEL 6
REMARK VINA RESULT:    -5.492      4.253      6.484
REMARK INTER + INTRA:          -9.607
REMARK INTER:                  -7.249
REMARK INTRA:                  -2.357
REMARK UNBOUND:                -2.189
REMARK  Name = /home/qwerty/github/datacon2025hack/step_04_hit_selection/docking/ligands/lig_455.pdb
REMARK  12 active torsions:
REMARK  status: ('A' for Active; 'I' for Inactive)
REMARK    1  A    between atoms: C1_1  and  C2_2
REMARK    2  A    between atoms: C2_2  and  C3_3
REMARK    3  A    between atoms: C2_2  and  N1_4
REMARK    4  A    between atoms: C4_5  and  C5_7
REMARK    5  A    between atoms: C8_13  and  C9_14
REMARK    6  A    between atoms: C11_16  and  C12_17
REMARK    7  A    between atoms: N5_19  and  C14_20
REMARK    8  A    between atoms: C14_20  and  C15_21
REMARK    9  A    between atoms: C15_21  and  C16_22
REMARK   10  A    between atoms: C15_21  and  N6_29
REMARK   11  A    between atoms: N6_29  and  C22_30
REMARK   12  A    between atoms: N6_29  and  C23_31
REMARK                            x       y       z     vdW  Elec       q    Type
REMARK                         _______ _______ _______ _____ _____    ______ ____
ROOT
ATOM      1  C5  UNL     1      14.048   2.870  21.013  0.00  0.00    +0.221 A 
ATOM      2  N2  UNL     1      13.335   3.137  19.903  0.00  0.00    -0.123 NA
ATOM      3  N3  UNL     1      12.265   3.817  20.279  0.00  0.00    -0.113 NA
ATOM      4  C6  UNL     1      12.342   3.961  21.616  0.00  0.00    +0.220 A 
ATOM      5  N4  UNL     1      11.270   4.518  22.397  0.00  0.00    -0.299 N 
ATOM      6  C7  UNL     1      11.542   5.455  23.496  0.00  0.00    +0.111 C 
ATOM      7  C8  UNL     1      10.427   6.510  23.584  0.00  0.00    +0.004 C 
ATOM      8  C9  UNL     1      10.721   7.525  24.694  0.00  0.00    +0.009 C 
ATOM      9  C10 UNL     1       9.036   5.854  23.782  0.00  0.00    +0.009 C 
ATOM     10  C11 UNL     1       8.937   4.423  23.196  0.00  0.00    +0.004 C 
ATOM     11  C12 UNL     1       7.495   4.081  22.811  0.00  0.00    +0.009 C 
ATOM     12  C13 UNL     1       9.885   4.231  22.000  0.00  0.00    +0.111 C 
ATOM     13  N5  UNL     1      13.454   3.374  22.122  0.00  0.00    -0.290 N 
ENDROOT
BRANCH   1  15
ATOM     14  N1  UNL     1      15.198   0.664  20.632  0.00  0.00    -0.306 N 
ATOM     15  C4  UNL     1      15.273   2.051  20.989  0.00  0.00    +0.282 C 
ATOM     16  O1  UNL     1      16.386   2.573  21.275  0.00  0.00    -0.267 OA
ATOM     17  H8  UNL     1      14.262   0.260  20.399  0.00  0.00    +0.149 HD
BRANCH  14  19
ATOM     18  C1  UNL     1      16.196  -1.224  21.856  0.00  0.00    +0.027 C 
ATOM     19  C2  UNL     1      16.363  -0.223  20.707  0.00  0.00    +0.067 C 
ATOM     20  C3  UNL     1      16.549  -0.956  19.375  0.00  0.00    +0.027 C 
ENDBRANCH  14  19
ENDBRANCH   1  15
BRANCH  13  21
ATOM     21  C14 UNL     1      13.736   3.036  23.525  0.00  0.00    +0.150 C 
BRANCH  21  22
ATOM     22  C15 UNL     1      13.235   1.612  23.856  0.00  0.00    +0.106 C 
BRANCH  22  23
ATOM     23  C16 UNL     1      11.773   1.583  24.300  0.00  0.00    -0.028 A 
ATOM     24  C17 UNL     1      10.777   0.921  23.553  0.00  0.00    +0.008 A 
ATOM     25  C18 UNL     1       9.448   0.919  23.987  0.00  0.00    +0.038 A 
ATOM     26  C19 UNL     1       9.094   1.577  25.167  0.00  0.00    +0.123 A 
ATOM     27  F1  UNL     1       7.802   1.576  25.582  0.00  0.00    -0.205 F 
ATOM     28  C20 UNL     1      10.069   2.240  25.915  0.00  0.00    +0.038 A 
ATOM     29  C21 UNL     1      11.399   2.246  25.485  0.00  0.00    +0.008 A 
ENDBRANCH  22  23
BRANCH  22  30
ATOM     30  N6  UNL     1      14.163   0.920  24.793  0.00  0.00    -0.300 NA
ATOM     31  C22 UNL     1      14.044  -0.549  24.803  0.00  0.00    +0.105 C 
ATOM     32  C23 UNL     1      15.564   1.314  24.565  0.00  0.00    +0.105 C 
ENDBRANCH  22  30
ENDBRANCH  21  22
ENDBRANCH  13  21
TORSDOF 6
ENDMDL
MODEL 7
REMARK VINA RESULT:    -5.460      3.976      5.580
REMARK INTER + INTRA:          -9.564
REMARK INTER:                  -7.186
REMARK INTRA:                  -2.379
REMARK UNBOUND:                -2.189
REMARK  Name = /home/qwerty/github/datacon2025hack/step_04_hit_selection/docking/ligands/lig_455.pdb
REMARK  12 active torsions:
REMARK  status: ('A' for Active; 'I' for Inactive)
REMARK    1  A    between atoms: C1_1  and  C2_2
REMARK    2  A    between atoms: C2_2  and  C3_3
REMARK    3  A    between atoms: C2_2  and  N1_4
REMARK    4  A    between atoms: C4_5  and  C5_7
REMARK    5  A    between atoms: C8_13  and  C9_14
REMARK    6  A    between atoms: C11_16  and  C12_17
REMARK    7  A    between atoms: N5_19  and  C14_20
REMARK    8  A    between atoms: C14_20  and  C15_21
REMARK    9  A    between atoms: C15_21  and  C16_22
REMARK   10  A    between atoms: C15_21  and  N6_29
REMARK   11  A    between atoms: N6_29  and  C22_30
REMARK   12  A    between atoms: N6_29  and  C23_31
REMARK                            x       y       z     vdW  Elec       q    Type
REMARK                         _______ _______ _______ _____ _____    ______ ____
ROOT
ATOM      1  C5  UNL     1      14.163   7.794  22.133  0.00  0.00    +0.221 A 
ATOM      2  N2  UNL     1      14.273   9.041  21.635  0.00  0.00    -0.123 NA
ATOM      3  N3  UNL     1      13.188   9.703  21.996  0.00  0.00    -0.113 NA
ATOM      4  C6  UNL     1      12.430   8.853  22.715  0.00  0.00    +0.220 A 
ATOM      5  N4  UNL     1      11.097   9.180  23.146  0.00  0.00    -0.299 N 
ATOM      6  C7  UNL     1      10.629   8.826  24.494  0.00  0.00    +0.111 C 
ATOM      7  C8  UNL     1       9.678   9.909  25.029  0.00  0.00    +0.004 C 
ATOM      8  C9  UNL     1       9.221   9.579  26.454  0.00  0.00    +0.009 C 
ATOM      9  C10 UNL     1       8.465  10.120  24.087  0.00  0.00    +0.009 C 
ATOM     10  C11 UNL     1       8.763   9.774  22.607  0.00  0.00    +0.004 C 
ATOM     11  C12 UNL     1       7.861  10.571  21.660  0.00  0.00    +0.009 C 
ATOM     12  C13 UNL     1      10.246   9.986  22.260  0.00  0.00    +0.111 C 
ATOM     13  N5  UNL     1      13.008   7.633  22.825  0.00  0.00    -0.290 N 
ENDROOT
BRANCH   1  15
ATOM     14  N1  UNL     1      15.235   6.153  20.554  0.00  0.00    -0.306 N 
ATOM     15  C4  UNL     1      15.158   6.742  21.860  0.00  0.00    +0.282 C 
ATOM     16  O1  UNL     1      15.945   6.366  22.772  0.00  0.00    -0.267 OA
ATOM     17  H8  UNL     1      14.570   6.486  19.818  0.00  0.00    +0.149 HD
BRANCH  14  19
ATOM     18  C1  UNL     1      15.324   3.865  19.652  0.00  0.00    +0.027 C 
ATOM     19  C2  UNL     1      16.122   5.024  20.262  0.00  0.00    +0.067 C 
ATOM     20  C3  UNL     1      17.239   5.468  19.311  0.00  0.00    +0.027 C 
ENDBRANCH  14  19
ENDBRANCH   1  15
BRANCH  13  21
ATOM     21  C14 UNL     1      12.380   6.371  23.240  0.00  0.00    +0.150 C 
BRANCH  21  22
ATOM     22  C15 UNL     1      11.783   5.630  22.022  0.00  0.00    +0.106 C 
BRANCH  22  23
ATOM     23  C16 UNL     1      10.338   6.032  21.728  0.00  0.00    -0.028 A 
ATOM     24  C17 UNL     1       9.966   6.655  20.519  0.00  0.00    +0.008 A 
ATOM     25  C18 UNL     1       8.634   7.013  20.287  0.00  0.00    +0.038 A 
ATOM     26  C19 UNL     1       7.660   6.761  21.254  0.00  0.00    +0.123 A 
ATOM     27  F1  UNL     1       6.370   7.115  21.026  0.00  0.00    -0.205 F 
ATOM     28  C20 UNL     1       8.015   6.149  22.458  0.00  0.00    +0.038 A 
ATOM     29  C21 UNL     1       9.345   5.788  22.696  0.00  0.00    +0.008 A 
ENDBRANCH  22  23
BRANCH  22  30
ATOM     30  N6  UNL     1      11.988   4.158  22.135  0.00  0.00    -0.300 NA
ATOM     31  C22 UNL     1      11.854   3.420  20.866  0.00  0.00    +0.105 C 
ATOM     32  C23 UNL     1      13.272   3.833  22.778  0.00  0.00    +0.105 C 
ENDBRANCH  22  30
ENDBRANCH  21  22
ENDBRANCH  13  21
TORSDOF 6
ENDMDL
MODEL 8
REMARK VINA RESULT:    -5.415      3.395      5.226
REMARK INTER + INTRA:          -9.504
REMARK INTER:                  -7.497
REMARK INTRA:                  -2.007
REMARK UNBOUND:                -2.189
REMARK  Name = /home/qwerty/github/datacon2025hack/step_04_hit_selection/docking/ligands/lig_455.pdb
REMARK  12 active torsions:
REMARK  status: ('A' for Active; 'I' for Inactive)
REMARK    1  A    between atoms: C1_1  and  C2_2
REMARK    2  A    between atoms: C2_2  and  C3_3
REMARK    3  A    between atoms: C2_2  and  N1_4
REMARK    4  A    between atoms: C4_5  and  C5_7
REMARK    5  A    between atoms: C8_13  and  C9_14
REMARK    6  A    between atoms: C11_16  and  C12_17
REMARK    7  A    between atoms: N5_19  and  C14_20
REMARK    8  A    between atoms: C14_20  and  C15_21
REMARK    9  A    between atoms: C15_21  and  C16_22
REMARK   10  A    between atoms: C15_21  and  N6_29
REMARK   11  A    between atoms: N6_29  and  C22_30
REMARK   12  A    between atoms: N6_29  and  C23_31
REMARK                            x       y       z     vdW  Elec       q    Type
REMARK                         _______ _______ _______ _____ _____    ______ ____
ROOT
ATOM      1  C5  UNL     1      13.252   4.040  21.465  0.00  0.00    +0.221 A 
ATOM      2  N2  UNL     1      13.501   5.017  20.571  0.00  0.00    -0.123 NA
ATOM      3  N3  UNL     1      12.826   6.085  20.961  0.00  0.00    -0.113 NA
ATOM      4  C6  UNL     1      12.177   5.748  22.092  0.00  0.00    +0.220 A 
ATOM      5  N4  UNL     1      11.216   6.615  22.721  0.00  0.00    -0.299 N 
ATOM      6  C7  UNL     1      11.179   6.770  24.182  0.00  0.00    +0.111 C 
ATOM      7  C8  UNL     1      10.796   8.212  24.555  0.00  0.00    +0.004 C 
ATOM      8  C9  UNL     1      10.801   8.402  26.075  0.00  0.00    +0.009 C 
ATOM      9  C10 UNL     1       9.429   8.615  23.946  0.00  0.00    +0.009 C 
ATOM     10  C11 UNL     1       9.084   7.856  22.640  0.00  0.00    +0.004 C 
ATOM     11  C12 UNL     1       8.148   8.679  21.751  0.00  0.00    +0.009 C 
ATOM     12  C13 UNL     1      10.350   7.444  21.870  0.00  0.00    +0.111 C 
ATOM     13  N5  UNL     1      12.416   4.462  22.445  0.00  0.00    -0.290 N 
ENDROOT
BRANCH   1  15
ATOM     14  N1  UNL     1      15.050   2.326  21.866  0.00  0.00    -0.306 N 
ATOM     15  C4  UNL     1      13.774   2.672  21.308  0.00  0.00    +0.282 C 
ATOM     16  O1  UNL     1      13.097   1.805  20.689  0.00  0.00    -0.267 OA
ATOM     17  H8  UNL     1      15.588   3.065  22.375  0.00  0.00    +0.149 HD
BRANCH  14  19
ATOM     18  C1  UNL     1      16.383   0.996  20.281  0.00  0.00    +0.027 C 
ATOM     19  C2  UNL     1      15.669   1.017  21.638  0.00  0.00    +0.067 C 
ATOM     20  C3  UNL     1      16.652   0.699  22.770  0.00  0.00    +0.027 C 
ENDBRANCH  14  19
ENDBRANCH   1  15
BRANCH  13  21
ATOM     21  C14 UNL     1      11.668   3.636  23.404  0.00  0.00    +0.150 C 
BRANCH  21  22
ATOM     22  C15 UNL     1      10.594   2.793  22.678  0.00  0.00    +0.106 C 
BRANCH  22  23
ATOM     23  C16 UNL     1       9.347   3.600  22.316  0.00  0.00    -0.028 A 
ATOM     24  C17 UNL     1       8.342   3.888  23.261  0.00  0.00    +0.008 A 
ATOM     25  C18 UNL     1       7.212   4.625  22.893  0.00  0.00    +0.038 A 
ATOM     26  C19 UNL     1       7.067   5.080  21.581  0.00  0.00    +0.123 A 
ATOM     27  F1  UNL     1       5.968   5.791  21.227  0.00  0.00    -0.205 F 
ATOM     28  C20 UNL     1       8.054   4.798  20.633  0.00  0.00    +0.038 A 
ATOM     29  C21 UNL     1       9.185   4.061  20.995  0.00  0.00    +0.008 A 
ENDBRANCH  22  23
BRANCH  22  30
ATOM     30  N6  UNL     1      10.303   1.537  23.424  0.00  0.00    -0.300 NA
ATOM     31  C22 UNL     1       9.927   0.392  22.575  0.00  0.00    +0.105 C 
ATOM     32  C23 UNL     1      11.412   1.163  24.319  0.00  0.00    +0.105 C 
ENDBRANCH  22  30
ENDBRANCH  21  22
ENDBRANCH  13  21
TORSDOF 6
ENDMDL
MODEL 9
REMARK VINA RESULT:    -5.385     12.387     15.837
REMARK INTER + INTRA:          -9.463
REMARK INTER:                  -7.129
REMARK INTRA:                  -2.334
REMARK UNBOUND:                -2.189
REMARK  Name = /home/qwerty/github/datacon2025hack/step_04_hit_selection/docking/ligands/lig_455.pdb
REMARK  12 active torsions:
REMARK  status: ('A' for Active; 'I' for Inactive)
REMARK    1  A    between atoms: C1_1  and  C2_2
REMARK    2  A    between atoms: C2_2  and  C3_3
REMARK    3  A    between atoms: C2_2  and  N1_4
REMARK    4  A    between atoms: C4_5  and  C5_7
REMARK    5  A    between atoms: C8_13  and  C9_14
REMARK    6  A    between atoms: C11_16  and  C12_17
REMARK    7  A    between atoms: N5_19  and  C14_20
REMARK    8  A    between atoms: C14_20  and  C15_21
REMARK    9  A    between atoms: C15_21  and  C16_22
REMARK   10  A    between atoms: C15_21  and  N6_29
REMARK   11  A    between atoms: N6_29  and  C22_30
REMARK   12  A    between atoms: N6_29  and  C23_31
REMARK                            x       y       z     vdW  Elec       q    Type
REMARK                         _______ _______ _______ _____ _____    ______ ____
ROOT
ATOM      1  C5  UNL     1      15.079  11.612  36.338  0.00  0.00    +0.221 A 
ATOM      2  N2  UNL     1      15.763  12.209  37.333  0.00  0.00    -0.123 NA
ATOM      3  N3  UNL     1      17.036  11.884  37.182  0.00  0.00    -0.113 NA
ATOM      4  C6  UNL     1      17.114  11.097  36.093  0.00  0.00    +0.220 A 
ATOM      5  N4  UNL     1      18.326  10.425  35.709  0.00  0.00    -0.299 N 
ATOM      6  C7  UNL     1      18.738  10.352  34.299  0.00  0.00    +0.111 C 
ATOM      7  C8  UNL     1      20.270  10.424  34.189  0.00  0.00    +0.004 C 
ATOM      8  C9  UNL     1      20.713  10.400  32.722  0.00  0.00    +0.009 C 
ATOM      9  C10 UNL     1      20.954   9.292  34.997  0.00  0.00    +0.009 C 
ATOM     10  C11 UNL     1      20.118   8.802  36.206  0.00  0.00    +0.004 C 
ATOM     11  C12 UNL     1      21.017   8.228  37.304  0.00  0.00    +0.009 C 
ATOM     12  C13 UNL     1      19.215   9.916  36.762  0.00  0.00    +0.111 C 
ATOM     13  N5  UNL     1      15.898  10.896  35.529  0.00  0.00    -0.290 N 
ENDROOT
BRANCH   1  15
ATOM     14  N1  UNL     1      12.795  10.785  36.998  0.00  0.00    -0.306 N 
ATOM     15  C4  UNL     1      13.611  11.684  36.233  0.00  0.00    +0.282 C 
ATOM     16  O1  UNL     1      13.075  12.539  35.476  0.00  0.00    -0.267 OA
ATOM     17  H8  UNL     1      13.269  10.088  37.618  0.00  0.00    +0.149 HD
BRANCH  14  19
ATOM     18  C1  UNL     1      10.856   9.278  36.838  0.00  0.00    +0.027 C 
ATOM     19  C2  UNL     1      11.339  10.734  36.842  0.00  0.00    +0.067 C 
ATOM     20  C3  UNL     1      10.664  11.523  37.968  0.00  0.00    +0.027 C 
ENDBRANCH  14  19
ENDBRANCH   1  15
BRANCH  13  21
ATOM     21  C14 UNL     1      15.517   9.871  34.547  0.00  0.00    +0.150 C 
BRANCH  21  22
ATOM     22  C15 UNL     1      14.944   8.621  35.255  0.00  0.00    +0.106 C 
BRANCH  22  23
ATOM     23  C16 UNL     1      16.030   7.696  35.802  0.00  0.00    -0.028 A 
ATOM     24  C17 UNL     1      16.261   7.550  37.186  0.00  0.00    +0.008 A 
ATOM     25  C18 UNL     1      17.267   6.697  37.651  0.00  0.00    +0.038 A 
ATOM     26  C19 UNL     1      18.056   5.984  36.747  0.00  0.00    +0.123 A 
ATOM     27  F1  UNL     1      19.034   5.161  37.202  0.00  0.00    -0.205 F 
ATOM     28  C20 UNL     1      17.841   6.122  35.374  0.00  0.00    +0.038 A 
ATOM     29  C21 UNL     1      16.838   6.973  34.903  0.00  0.00    +0.008 A 
ENDBRANCH  22  23
BRANCH  22  30
ATOM     30  N6  UNL     1      13.940   7.932  34.397  0.00  0.00    -0.300 NA
ATOM     31  C22 UNL     1      13.151   6.896  35.088  0.00  0.00    +0.105 C 
ATOM     32  C23 UNL     1      13.045   8.889  33.727  0.00  0.00    +0.105 C 
ENDBRANCH  22  30
ENDBRANCH  21  22
ENDBRANCH  13  21
TORSDOF 6
ENDMDL
