REMARK  Name = /home/qwerty/github/datacon2025hack/step_04_hit_selection/docking/ligands/lig_270.pdb
REMARK  4 active torsions:
REMARK  status: ('A' for Active; 'I' for Inactive)
REMARK    1  A    between atoms: C1_1  and  C2_2
REMARK    2  A    between atoms: C5_5  and  C6_6
REMARK    3  A    between atoms: N1_8  and  C7_9
REMARK    4  A    between atoms: C13_17  and  C14_18
REMARK                            x       y       z     vdW  Elec       q    Type
REMARK                         _______ _______ _______ _____ _____    ______ ____
ROOT
ATOM      1  C6  UNL     1       0.369   0.531  -0.018  0.00  0.00    +0.249 C 
ATOM      2  O1  UNL     1       0.811   1.533   0.606  0.00  0.00    -0.270 OA
ATOM      3  N1  UNL     1       1.278  -0.365  -0.682  0.00  0.00    -0.279 N 
ATOM      4  H6  UNL     1       0.887  -1.077  -1.339  0.00  0.00    +0.155 HD
ENDROOT
BRANCH   1   9
ATOM      5  C1  UNL     1      -5.359  -0.269  -0.481  0.00  0.00    +0.044 C 
ATOM      6  C2  UNL     1      -3.882  -0.041  -0.352  0.00  0.00    -0.050 A 
ATOM      7  C3  UNL     1      -3.045  -0.198  -1.463  0.00  0.00    +0.004 A 
ATOM      8  C4  UNL     1      -1.668  -0.014  -1.340  0.00  0.00    +0.013 A 
ATOM      9  C5  UNL     1      -1.095   0.313  -0.099  0.00  0.00    +0.040 A 
ATOM     10  C13 UNL     1      -1.933   0.439   1.038  0.00  0.00    -0.038 A 
ATOM     11  C14 UNL     1      -1.377   0.759   2.402  0.00  0.00    +0.044 C 
ATOM     12  C15 UNL     1      -3.321   0.265   0.895  0.00  0.00    +0.007 A 
ENDBRANCH   1   9
BRANCH   3  13
ATOM     13  C7  UNL     1       2.707  -0.305  -0.540  0.00  0.00    +0.072 A 
ATOM     14  C8  UNL     1       3.305  -0.014   0.701  0.00  0.00    +0.064 A 
ATOM     15  C9  UNL     1       4.698   0.014   0.825  0.00  0.00    +0.125 A 
ATOM     16  F1  UNL     1       5.265   0.297   2.023  0.00  0.00    -0.205 F 
ATOM     17  C10 UNL     1       5.505  -0.261  -0.282  0.00  0.00    +0.041 A 
ATOM     18  C11 UNL     1       4.921  -0.572  -1.512  0.00  0.00    +0.043 A 
ATOM     19  C12 UNL     1       3.528  -0.603  -1.642  0.00  0.00    +0.145 A 
ATOM     20  F2  UNL     1       2.979  -0.905  -2.845  0.00  0.00    -0.204 F 
ENDBRANCH   3  13
TORSDOF 2
