MODEL 1
REMARK VINA RESULT:    -6.009      0.000      0.000
REMARK INTER + INTRA:          -8.750
REMARK INTER:                  -7.765
REMARK INTRA:                  -0.985
REMARK UNBOUND:                -0.985
REMARK  Name = /home/qwerty/github/datacon2025hack/step_04_hit_selection/docking/ligands/lig_127.pdb
REMARK  6 active torsions:
REMARK  status: ('A' for Active; 'I' for Inactive)
REMARK    1  A    between atoms: N1_3  and  C2_4
REMARK    2  A    between atoms: C2_4  and  C3_5
REMARK    3  A    between atoms: C2_4  and  C9_12
REMARK    4  A    between atoms: C14_18  and  O2_19
REMARK    5  A    between atoms: C16_21  and  C17_22
REMARK    6  A    between atoms: C17_22  and  O3_23
REMARK                            x       y       z     vdW  Elec       q    Type
REMARK                         _______ _______ _______ _____ _____    ______ ____
ROOT
ATOM      1  O1  UNL     1      15.006   2.123  24.133  0.00  0.00    -0.253 OA
ATOM      2  C1  UNL     1      15.427   1.127  23.483  0.00  0.00    +0.303 C 
ATOM      3  N1  UNL     1      15.965  -0.004  24.187  0.00  0.00    -0.292 N 
ATOM      4  N2  UNL     1      15.366   1.140  22.045  0.00  0.00    -0.278 N 
ATOM      5  C13 UNL     1      16.170   0.259  21.209  0.00  0.00    +0.141 C 
ATOM      6  C14 UNL     1      15.972   0.743  19.773  0.00  0.00    +0.134 C 
ATOM      7  C15 UNL     1      15.379   2.150  19.900  0.00  0.00    +0.057 C 
ATOM      8  C16 UNL     1      14.717   2.201  21.280  0.00  0.00    +0.105 C 
ATOM      9  H1  UNL     1      16.271  -0.842  23.644  0.00  0.00    +0.151 HD
ENDROOT
BRANCH   6  10
ATOM     10  O2  UNL     1      15.071  -0.105  19.108  0.00  0.00    -0.390 OA
ATOM     11  H17 UNL     1      15.548  -0.460  18.313  0.00  0.00    +0.210 HD
ENDBRANCH   6  10
BRANCH   3  12
ATOM     12  C2  UNL     1      16.080  -0.025  25.649  0.00  0.00    +0.108 C 
BRANCH  12  13
ATOM     13  C3  UNL     1      17.479   0.383  26.060  0.00  0.00    -0.027 A 
ATOM     14  C4  UNL     1      18.576   0.138  25.213  0.00  0.00    +0.007 A 
ATOM     15  C5  UNL     1      19.868   0.498  25.607  0.00  0.00    +0.020 A 
ATOM     16  C6  UNL     1      20.078   1.109  26.847  0.00  0.00    +0.041 A 
ATOM     17 CL1  UNL     1      21.699   1.564  27.338  0.00  0.00    -0.084 Cl
ATOM     18  C7  UNL     1      18.992   1.361  27.695  0.00  0.00    +0.020 A 
ATOM     19  C8  UNL     1      17.699   0.997  27.306  0.00  0.00    +0.007 A 
ENDBRANCH  12  13
BRANCH  12  20
ATOM     20  C9  UNL     1      15.752  -1.433  26.197  0.00  0.00    +0.014 C 
ATOM     21  C10 UNL     1      15.292  -2.419  25.122  0.00  0.00    +0.006 C 
ATOM     22  C11 UNL     1      13.930  -2.517  25.794  0.00  0.00    +0.001 C 
ATOM     23  C12 UNL     1      14.382  -1.539  26.868  0.00  0.00    +0.006 C 
ENDBRANCH  12  20
ENDBRANCH   3  12
BRANCH   8  24
ATOM     24  C17 UNL     1      13.202   1.950  21.184  0.00  0.00    +0.178 C 
BRANCH  24  25
ATOM     25  O3  UNL     1      12.928   0.575  21.143  0.00  0.00    -0.393 OA
ATOM     26  H23 UNL     1      13.439   0.203  20.379  0.00  0.00    +0.209 HD
ENDBRANCH  24  25
ENDBRANCH   8  24
TORSDOF 6
ENDMDL
MODEL 2
REMARK VINA RESULT:    -5.891     10.338     14.289
REMARK INTER + INTRA:          -8.598
REMARK INTER:                  -7.563
REMARK INTRA:                  -1.035
REMARK UNBOUND:                -0.985
REMARK  Name = /home/qwerty/github/datacon2025hack/step_04_hit_selection/docking/ligands/lig_127.pdb
REMARK  6 active torsions:
REMARK  status: ('A' for Active; 'I' for Inactive)
REMARK    1  A    between atoms: N1_3  and  C2_4
REMARK    2  A    between atoms: C2_4  and  C3_5
REMARK    3  A    between atoms: C2_4  and  C9_12
REMARK    4  A    between atoms: C14_18  and  O2_19
REMARK    5  A    between atoms: C16_21  and  C17_22
REMARK    6  A    between atoms: C17_22  and  O3_23
REMARK                            x       y       z     vdW  Elec       q    Type
REMARK                         _______ _______ _______ _____ _____    ______ ____
ROOT
ATOM      1  O1  UNL     1      19.917   7.914  33.375  0.00  0.00    -0.253 OA
ATOM      2  C1  UNL     1      20.934   7.608  34.055  0.00  0.00    +0.303 C 
ATOM      3  N1  UNL     1      22.149   7.234  33.387  0.00  0.00    -0.292 N 
ATOM      4  N2  UNL     1      20.862   7.635  35.492  0.00  0.00    -0.278 N 
ATOM      5  C13 UNL     1      21.807   6.931  36.348  0.00  0.00    +0.141 C 
ATOM      6  C14 UNL     1      21.250   7.034  37.767  0.00  0.00    +0.134 C 
ATOM      7  C15 UNL     1      19.784   7.446  37.596  0.00  0.00    +0.057 C 
ATOM      8  C16 UNL     1      19.699   8.127  36.227  0.00  0.00    +0.105 C 
ATOM      9  H1  UNL     1      22.999   7.025  33.956  0.00  0.00    +0.151 HD
ENDROOT
BRANCH   6  10
ATOM     10  O2  UNL     1      21.952   8.020  38.480  0.00  0.00    -0.390 OA
ATOM     11  H17 UNL     1      21.754   7.872  39.442  0.00  0.00    +0.210 HD
ENDBRANCH   6  10
BRANCH   3  12
ATOM     12  C2  UNL     1      22.237   7.156  31.924  0.00  0.00    +0.108 C 
BRANCH  12  13
ATOM     13  C3  UNL     1      22.033   5.724  31.474  0.00  0.00    -0.027 A 
ATOM     14  C4  UNL     1      22.431   4.651  32.293  0.00  0.00    +0.007 A 
ATOM     15  C5  UNL     1      22.259   3.332  31.862  0.00  0.00    +0.020 A 
ATOM     16  C6  UNL     1      21.685   3.071  30.614  0.00  0.00    +0.041 A 
ATOM     17 CL1  UNL     1      21.467   1.416  30.077  0.00  0.00    -0.084 Cl
ATOM     18  C7  UNL     1      21.282   4.132  29.794  0.00  0.00    +0.020 A 
ATOM     19  C8  UNL     1      21.458   5.453  30.220  0.00  0.00    +0.007 A 
ENDBRANCH  12  13
BRANCH  12  20
ATOM     20  C9  UNL     1      23.608   7.679  31.436  0.00  0.00    +0.014 C 
ATOM     21  C10 UNL     1      24.542   8.103  32.570  0.00  0.00    +0.006 C 
ATOM     22  C11 UNL     1      24.509   9.537  32.061  0.00  0.00    +0.001 C 
ATOM     23  C12 UNL     1      23.582   9.121  30.929  0.00  0.00    +0.006 C 
ENDBRANCH  12  20
ENDBRANCH   3  12
BRANCH   8  24
ATOM     24  C17 UNL     1      19.751   9.659  36.360  0.00  0.00    +0.178 C 
BRANCH  24  25
ATOM     25  O3  UNL     1      19.698  10.043  37.708  0.00  0.00    -0.393 OA
ATOM     26  H23 UNL     1      19.303   9.283  38.208  0.00  0.00    +0.209 HD
ENDBRANCH  24  25
ENDBRANCH   8  24
TORSDOF 6
ENDMDL
MODEL 3
REMARK VINA RESULT:    -5.760      8.543     11.167
REMARK INTER + INTRA:          -8.430
REMARK INTER:                  -7.461
REMARK INTRA:                  -0.969
REMARK UNBOUND:                -0.985
REMARK  Name = /home/qwerty/github/datacon2025hack/step_04_hit_selection/docking/ligands/lig_127.pdb
REMARK  6 active torsions:
REMARK  status: ('A' for Active; 'I' for Inactive)
REMARK    1  A    between atoms: N1_3  and  C2_4
REMARK    2  A    between atoms: C2_4  and  C3_5
REMARK    3  A    between atoms: C2_4  and  C9_12
REMARK    4  A    between atoms: C14_18  and  O2_19
REMARK    5  A    between atoms: C16_21  and  C17_22
REMARK    6  A    between atoms: C17_22  and  O3_23
REMARK                            x       y       z     vdW  Elec       q    Type
REMARK                         _______ _______ _______ _____ _____    ______ ____
ROOT
ATOM      1  O1  UNL     1      11.825   6.742  22.939  0.00  0.00    -0.253 OA
ATOM      2  C1  UNL     1      10.575   6.842  22.801  0.00  0.00    +0.303 C 
ATOM      3  N1  UNL     1       9.945   8.125  22.949  0.00  0.00    -0.292 N 
ATOM      4  N2  UNL     1       9.797   5.670  22.499  0.00  0.00    -0.278 N 
ATOM      5  C13 UNL     1       8.359   5.594  22.718  0.00  0.00    +0.141 C 
ATOM      6  C14 UNL     1       7.973   4.134  22.485  0.00  0.00    +0.134 C 
ATOM      7  C15 UNL     1       9.291   3.354  22.544  0.00  0.00    +0.057 C 
ATOM      8  C16 UNL     1      10.390   4.366  22.212  0.00  0.00    +0.105 C 
ATOM      9  H1  UNL     1       8.917   8.208  22.790  0.00  0.00    +0.151 HD
ENDROOT
BRANCH   6  10
ATOM     10  O2  UNL     1       7.384   3.997  21.216  0.00  0.00    -0.390 OA
ATOM     11  H17 UNL     1       7.948   4.514  20.583  0.00  0.00    +0.210 HD
ENDBRANCH   6  10
BRANCH   3  12
ATOM     12  C2  UNL     1      10.709   9.328  23.300  0.00  0.00    +0.108 C 
BRANCH  12  13
ATOM     13  C3  UNL     1      10.148   9.940  24.566  0.00  0.00    -0.027 A 
ATOM     14  C4  UNL     1      10.995  10.582  25.489  0.00  0.00    +0.007 A 
ATOM     15  C5  UNL     1      10.475  11.127  26.666  0.00  0.00    +0.020 A 
ATOM     16  C6  UNL     1       9.105  11.042  26.931  0.00  0.00    +0.041 A 
ATOM     17 CL1  UNL     1       8.452  11.731  28.407  0.00  0.00    -0.084 Cl
ATOM     18  C7  UNL     1       8.253  10.411  26.017  0.00  0.00    +0.020 A 
ATOM     19  C8  UNL     1       8.772   9.859  24.842  0.00  0.00    +0.007 A 
ENDBRANCH  12  13
BRANCH  12  20
ATOM     20  C9  UNL     1      10.661  10.354  22.144  0.00  0.00    +0.014 C 
ATOM     21  C10 UNL     1       9.721   9.954  21.006  0.00  0.00    +0.006 C 
ATOM     22  C11 UNL     1      10.907   9.868  20.056  0.00  0.00    +0.001 C 
ATOM     23  C12 UNL     1      11.848  10.268  21.183  0.00  0.00    +0.006 C 
ENDBRANCH  12  20
ENDBRANCH   3  12
BRANCH   8  24
ATOM     24  C17 UNL     1      10.807   4.275  20.733  0.00  0.00    +0.178 C 
BRANCH  24  25
ATOM     25  O3  UNL     1       9.856   4.895  19.910  0.00  0.00    -0.393 OA
ATOM     26  H23 UNL     1       8.981   4.475  20.115  0.00  0.00    +0.209 HD
ENDBRANCH  24  25
ENDBRANCH   8  24
TORSDOF 6
ENDMDL
MODEL 4
REMARK VINA RESULT:    -5.708     13.379     15.361
REMARK INTER + INTRA:          -8.362
REMARK INTER:                  -7.384
REMARK INTRA:                  -0.978
REMARK UNBOUND:                -0.985
REMARK  Name = /home/qwerty/github/datacon2025hack/step_04_hit_selection/docking/ligands/lig_127.pdb
REMARK  6 active torsions:
REMARK  status: ('A' for Active; 'I' for Inactive)
REMARK    1  A    between atoms: N1_3  and  C2_4
REMARK    2  A    between atoms: C2_4  and  C3_5
REMARK    3  A    between atoms: C2_4  and  C9_12
REMARK    4  A    between atoms: C14_18  and  O2_19
REMARK    5  A    between atoms: C16_21  and  C17_22
REMARK    6  A    between atoms: C17_22  and  O3_23
REMARK                            x       y       z     vdW  Elec       q    Type
REMARK                         _______ _______ _______ _____ _____    ______ ____
ROOT
ATOM      1  O1  UNL     1      20.911  13.549  22.155  0.00  0.00    -0.253 OA
ATOM      2  C1  UNL     1      22.164  13.638  22.036  0.00  0.00    +0.303 C 
ATOM      3  N1  UNL     1      22.851  12.785  21.107  0.00  0.00    -0.292 N 
ATOM      4  N2  UNL     1      22.888  14.592  22.834  0.00  0.00    -0.278 N 
ATOM      5  C13 UNL     1      24.321  14.501  23.073  0.00  0.00    +0.141 C 
ATOM      6  C14 UNL     1      24.641  15.557  24.131  0.00  0.00    +0.134 C 
ATOM      7  C15 UNL     1      23.290  15.929  24.751  0.00  0.00    +0.057 C 
ATOM      8  C16 UNL     1      22.236  15.572  23.699  0.00  0.00    +0.105 C 
ATOM      9  H1  UNL     1      23.881  12.894  20.982  0.00  0.00    +0.151 HD
ENDROOT
BRANCH   6  10
ATOM     10  O2  UNL     1      25.219  16.681  23.517  0.00  0.00    -0.390 OA
ATOM     11  H17 UNL     1      24.805  17.480  23.937  0.00  0.00    +0.210 HD
ENDBRANCH   6  10
BRANCH   3  12
ATOM     12  C2  UNL     1      22.143  11.774  20.313  0.00  0.00    +0.108 C 
BRANCH  12  13
ATOM     13  C3  UNL     1      22.978  10.513  20.226  0.00  0.00    -0.027 A 
ATOM     14  C4  UNL     1      22.372   9.266  19.983  0.00  0.00    +0.007 A 
ATOM     15  C5  UNL     1      23.146   8.103  19.923  0.00  0.00    +0.020 A 
ATOM     16  C6  UNL     1      24.530   8.174  20.101  0.00  0.00    +0.041 A 
ATOM     17 CL1  UNL     1      25.501   6.714  20.022  0.00  0.00    -0.084 Cl
ATOM     18  C7  UNL     1      25.143   9.410  20.338  0.00  0.00    +0.020 A 
ATOM     19  C8  UNL     1      24.371  10.574  20.404  0.00  0.00    +0.007 A 
ENDBRANCH  12  13
BRANCH  12  20
ATOM     20  C9  UNL     1      21.841  12.313  18.896  0.00  0.00    +0.014 C 
ATOM     21  C10 UNL     1      22.388  13.718  18.644  0.00  0.00    +0.006 C 
ATOM     22  C11 UNL     1      20.970  14.241  18.474  0.00  0.00    +0.001 C 
ATOM     23  C12 UNL     1      20.418  12.845  18.721  0.00  0.00    +0.006 C 
ENDBRANCH  12  20
ENDBRANCH   3  12
BRANCH   8  24
ATOM     24  C17 UNL     1      21.811  16.811  22.890  0.00  0.00    +0.178 C 
BRANCH  24  25
ATOM     25  O3  UNL     1      20.573  16.595  22.266  0.00  0.00    -0.393 OA
ATOM     26  H23 UNL     1      20.016  16.079  22.904  0.00  0.00    +0.209 HD
ENDBRANCH  24  25
ENDBRANCH   8  24
TORSDOF 6
ENDMDL
MODEL 5
REMARK VINA RESULT:    -5.544     14.849     16.968
REMARK INTER + INTRA:          -8.150
REMARK INTER:                  -7.125
REMARK INTRA:                  -1.025
REMARK UNBOUND:                -0.985
REMARK  Name = /home/qwerty/github/datacon2025hack/step_04_hit_selection/docking/ligands/lig_127.pdb
REMARK  6 active torsions:
REMARK  status: ('A' for Active; 'I' for Inactive)
REMARK    1  A    between atoms: N1_3  and  C2_4
REMARK    2  A    between atoms: C2_4  and  C3_5
REMARK    3  A    between atoms: C2_4  and  C9_12
REMARK    4  A    between atoms: C14_18  and  O2_19
REMARK    5  A    between atoms: C16_21  and  C17_22
REMARK    6  A    between atoms: C17_22  and  O3_23
REMARK                            x       y       z     vdW  Elec       q    Type
REMARK                         _______ _______ _______ _____ _____    ______ ____
ROOT
ATOM      1  O1  UNL     1      14.269   9.230  35.185  0.00  0.00    -0.253 OA
ATOM      2  C1  UNL     1      14.408  10.479  35.287  0.00  0.00    +0.303 C 
ATOM      3  N1  UNL     1      13.310  11.345  34.959  0.00  0.00    -0.292 N 
ATOM      4  N2  UNL     1      15.667  11.020  35.729  0.00  0.00    -0.278 N 
ATOM      5  C13 UNL     1      16.061  12.403  35.498  0.00  0.00    +0.141 C 
ATOM      6  C14 UNL     1      17.527  12.500  35.916  0.00  0.00    +0.134 C 
ATOM      7  C15 UNL     1      18.024  11.051  35.984  0.00  0.00    +0.057 C 
ATOM      8  C16 UNL     1      16.774  10.192  36.197  0.00  0.00    +0.105 C 
ATOM      9  H1  UNL     1      13.419  12.375  35.087  0.00  0.00    +0.151 HD
ENDROOT
BRANCH   6  10
ATOM     10  O2  UNL     1      17.619  13.104  37.181  0.00  0.00    -0.390 OA
ATOM     11  H17 UNL     1      16.770  12.902  37.656  0.00  0.00    +0.210 HD
ENDBRANCH   6  10
BRANCH   3  12
ATOM     12  C2  UNL     1      12.032  10.823  34.464  0.00  0.00    +0.108 C 
BRANCH  12  13
ATOM     13  C3  UNL     1      11.638  11.547  33.194  0.00  0.00    -0.027 A 
ATOM     14  C4  UNL     1      11.697  12.951  33.121  0.00  0.00    +0.007 A 
ATOM     15  C5  UNL     1      11.313  13.616  31.952  0.00  0.00    +0.020 A 
ATOM     16  C6  UNL     1      10.869  12.886  30.845  0.00  0.00    +0.041 A 
ATOM     17 CL1  UNL     1      10.391  13.721  29.378  0.00  0.00    -0.084 Cl
ATOM     18  C7  UNL     1      10.811  11.489  30.906  0.00  0.00    +0.020 A 
ATOM     19  C8  UNL     1      11.189  10.822  32.076  0.00  0.00    +0.007 A 
ENDBRANCH  12  13
BRANCH  12  20
ATOM     20  C9  UNL     1      10.929  10.987  35.536  0.00  0.00    +0.014 C 
ATOM     21  C10 UNL     1      11.298  11.968  36.650  0.00  0.00    +0.006 C 
ATOM     22  C11 UNL     1      11.250  10.834  37.664  0.00  0.00    +0.001 C 
ATOM     23  C12 UNL     1      10.880   9.853  36.560  0.00  0.00    +0.006 C 
ENDBRANCH  12  20
ENDBRANCH   3  12
BRANCH   8  24
ATOM     24  C17 UNL     1      16.590   9.830  37.682  0.00  0.00    +0.178 C 
BRANCH  24  25
ATOM     25  O3  UNL     1      17.628  10.370  38.457  0.00  0.00    -0.393 OA
ATOM     26  H23 UNL     1      18.204   9.611  38.732  0.00  0.00    +0.209 HD
ENDBRANCH  24  25
ENDBRANCH   8  24
TORSDOF 6
ENDMDL
MODEL 6
REMARK VINA RESULT:    -5.457     13.117     14.443
REMARK INTER + INTRA:          -8.038
REMARK INTER:                  -7.119
REMARK INTRA:                  -0.918
REMARK UNBOUND:                -0.985
REMARK  Name = /home/qwerty/github/datacon2025hack/step_04_hit_selection/docking/ligands/lig_127.pdb
REMARK  6 active torsions:
REMARK  status: ('A' for Active; 'I' for Inactive)
REMARK    1  A    between atoms: N1_3  and  C2_4
REMARK    2  A    between atoms: C2_4  and  C3_5
REMARK    3  A    between atoms: C2_4  and  C9_12
REMARK    4  A    between atoms: C14_18  and  O2_19
REMARK    5  A    between atoms: C16_21  and  C17_22
REMARK    6  A    between atoms: C17_22  and  O3_23
REMARK                            x       y       z     vdW  Elec       q    Type
REMARK                         _______ _______ _______ _____ _____    ______ ____
ROOT
ATOM      1  O1  UNL     1      10.374  10.274  27.826  0.00  0.00    -0.253 OA
ATOM      2  C1  UNL     1       9.630  10.062  28.822  0.00  0.00    +0.303 C 
ATOM      3  N1  UNL     1       9.551  11.043  29.869  0.00  0.00    -0.292 N 
ATOM      4  N2  UNL     1       8.872   8.841  28.897  0.00  0.00    -0.278 N 
ATOM      5  C13 UNL     1       8.323   8.324  30.142  0.00  0.00    +0.141 C 
ATOM      6  C14 UNL     1       7.797   6.925  29.823  0.00  0.00    +0.134 C 
ATOM      7  C15 UNL     1       8.448   6.544  28.488  0.00  0.00    +0.057 C 
ATOM      8  C16 UNL     1       8.812   7.868  27.810  0.00  0.00    +0.105 C 
ATOM      9  H1  UNL     1       8.900  10.881  30.669  0.00  0.00    +0.151 HD
ENDROOT
BRANCH   6  10
ATOM     10  O2  UNL     1       6.400   6.964  29.688  0.00  0.00    -0.390 OA
ATOM     11  H17 UNL     1       6.195   7.699  29.053  0.00  0.00    +0.210 HD
ENDBRANCH   6  10
BRANCH   3  12
ATOM     12  C2  UNL     1      10.346  12.275  29.839  0.00  0.00    +0.108 C 
BRANCH  12  13
ATOM     13  C3  UNL     1      10.889  12.570  31.222  0.00  0.00    -0.027 A 
ATOM     14  C4  UNL     1      11.174  11.523  32.119  0.00  0.00    +0.007 A 
ATOM     15  C5  UNL     1      11.656  11.803  33.402  0.00  0.00    +0.020 A 
ATOM     16  C6  UNL     1      11.861  13.127  33.799  0.00  0.00    +0.041 A 
ATOM     17 CL1  UNL     1      12.469  13.476  35.408  0.00  0.00    -0.084 Cl
ATOM     18  C7  UNL     1      11.585  14.175  32.913  0.00  0.00    +0.020 A 
ATOM     19  C8  UNL     1      11.098  13.899  31.631  0.00  0.00    +0.007 A 
ENDBRANCH  12  13
BRANCH  12  20
ATOM     20  C9  UNL     1       9.488  13.460  29.340  0.00  0.00    +0.014 C 
ATOM     21  C10 UNL     1       8.005  13.120  29.182  0.00  0.00    +0.006 C 
ATOM     22  C11 UNL     1       8.108  13.367  27.684  0.00  0.00    +0.001 C 
ATOM     23  C12 UNL     1       9.583  13.709  27.834  0.00  0.00    +0.006 C 
ENDBRANCH  12  20
ENDBRANCH   3  12
BRANCH   8  24
ATOM     24  C17 UNL     1       7.748   8.277  26.775  0.00  0.00    +0.178 C 
BRANCH  24  25
ATOM     25  O3  UNL     1       6.547   8.628  27.410  0.00  0.00    -0.393 OA
ATOM     26  H23 UNL     1       5.903   8.866  26.694  0.00  0.00    +0.209 HD
ENDBRANCH  24  25
ENDBRANCH   8  24
TORSDOF 6
ENDMDL
MODEL 7
REMARK VINA RESULT:    -5.442     13.516     15.895
REMARK INTER + INTRA:          -8.019
REMARK INTER:                  -7.327
REMARK INTRA:                  -0.692
REMARK UNBOUND:                -0.985
REMARK  Name = /home/qwerty/github/datacon2025hack/step_04_hit_selection/docking/ligands/lig_127.pdb
REMARK  6 active torsions:
REMARK  status: ('A' for Active; 'I' for Inactive)
REMARK    1  A    between atoms: N1_3  and  C2_4
REMARK    2  A    between atoms: C2_4  and  C3_5
REMARK    3  A    between atoms: C2_4  and  C9_12
REMARK    4  A    between atoms: C14_18  and  O2_19
REMARK    5  A    between atoms: C16_21  and  C17_22
REMARK    6  A    between atoms: C17_22  and  O3_23
REMARK                            x       y       z     vdW  Elec       q    Type
REMARK                         _______ _______ _______ _____ _____    ______ ____
ROOT
ATOM      1  O1  UNL     1      18.770  10.179  34.038  0.00  0.00    -0.253 OA
ATOM      2  C1  UNL     1      18.542  10.345  35.267  0.00  0.00    +0.303 C 
ATOM      3  N1  UNL     1      19.143   9.459  36.226  0.00  0.00    -0.292 N 
ATOM      4  N2  UNL     1      17.682  11.417  35.693  0.00  0.00    -0.278 N 
ATOM      5  C13 UNL     1      17.042  11.449  37.001  0.00  0.00    +0.141 C 
ATOM      6  C14 UNL     1      16.059  12.618  36.961  0.00  0.00    +0.134 C 
ATOM      7  C15 UNL     1      15.886  12.950  35.475  0.00  0.00    +0.057 C 
ATOM      8  C16 UNL     1      17.146  12.424  34.782  0.00  0.00    +0.105 C 
ATOM      9  H1  UNL     1      18.985   9.628  37.243  0.00  0.00    +0.151 HD
ENDROOT
BRANCH   6  10
ATOM     10  O2  UNL     1      16.604  13.718  37.644  0.00  0.00    -0.390 OA
ATOM     11  H17 UNL     1      16.943  14.344  36.952  0.00  0.00    +0.210 HD
ENDBRANCH   6  10
BRANCH   3  12
ATOM     12  C2  UNL     1      19.988   8.331  35.816  0.00  0.00    +0.108 C 
BRANCH  12  13
ATOM     13  C3  UNL     1      19.290   7.025  36.133  0.00  0.00    -0.027 A 
ATOM     14  C4  UNL     1      19.367   5.936  35.245  0.00  0.00    +0.007 A 
ATOM     15  C5  UNL     1      18.704   4.740  35.534  0.00  0.00    +0.020 A 
ATOM     16  C6  UNL     1      17.962   4.617  36.712  0.00  0.00    +0.041 A 
ATOM     17 CL1  UNL     1      17.133   3.114  37.074  0.00  0.00    -0.084 Cl
ATOM     18  C7  UNL     1      17.883   5.693  37.604  0.00  0.00    +0.020 A 
ATOM     19  C8  UNL     1      18.540   6.893  37.316  0.00  0.00    +0.007 A 
ENDBRANCH  12  13
BRANCH  12  20
ATOM     20  C9  UNL     1      21.356   8.393  36.534  0.00  0.00    +0.014 C 
ATOM     21  C10 UNL     1      22.544   8.100  35.617  0.00  0.00    +0.006 C 
ATOM     22  C11 UNL     1      22.868   6.857  36.433  0.00  0.00    +0.001 C 
ATOM     23  C12 UNL     1      21.689   7.144  37.351  0.00  0.00    +0.006 C 
ENDBRANCH  12  20
ENDBRANCH   3  12
BRANCH   8  24
ATOM     24  C17 UNL     1      18.171  13.550  34.555  0.00  0.00    +0.178 C 
BRANCH  24  25
ATOM     25  O3  UNL     1      17.647  14.787  34.959  0.00  0.00    -0.393 OA
ATOM     26  H23 UNL     1      18.402  15.430  34.965  0.00  0.00    +0.209 HD
ENDBRANCH  24  25
ENDBRANCH   8  24
TORSDOF 6
ENDMDL
MODEL 8
REMARK VINA RESULT:    -5.422     10.804     12.022
REMARK INTER + INTRA:          -7.992
REMARK INTER:                  -7.054
REMARK INTRA:                  -0.938
REMARK UNBOUND:                -0.985
REMARK  Name = /home/qwerty/github/datacon2025hack/step_04_hit_selection/docking/ligands/lig_127.pdb
REMARK  6 active torsions:
REMARK  status: ('A' for Active; 'I' for Inactive)
REMARK    1  A    between atoms: N1_3  and  C2_4
REMARK    2  A    between atoms: C2_4  and  C3_5
REMARK    3  A    between atoms: C2_4  and  C9_12
REMARK    4  A    between atoms: C14_18  and  O2_19
REMARK    5  A    between atoms: C16_21  and  C17_22
REMARK    6  A    between atoms: C17_22  and  O3_23
REMARK                            x       y       z     vdW  Elec       q    Type
REMARK                         _______ _______ _______ _____ _____    ______ ____
ROOT
ATOM      1  O1  UNL     1       7.650   9.787  23.544  0.00  0.00    -0.253 OA
ATOM      2  C1  UNL     1       8.891   9.586  23.653  0.00  0.00    +0.303 C 
ATOM      3  N1  UNL     1       9.513   9.671  24.945  0.00  0.00    -0.292 N 
ATOM      4  N2  UNL     1       9.666   9.276  22.480  0.00  0.00    -0.278 N 
ATOM      5  C13 UNL     1      11.113   9.425  22.424  0.00  0.00    +0.141 C 
ATOM      6  C14 UNL     1      11.503   9.210  20.962  0.00  0.00    +0.134 C 
ATOM      7  C15 UNL     1      10.198   9.352  20.171  0.00  0.00    +0.057 C 
ATOM      8  C16 UNL     1       9.073   9.050  21.165  0.00  0.00    +0.105 C 
ATOM      9  H1  UNL     1      10.532   9.460  25.033  0.00  0.00    +0.151 HD
ENDROOT
BRANCH   6  10
ATOM     10  O2  UNL     1      12.031   7.919  20.799  0.00  0.00    -0.390 OA
ATOM     11  H17 UNL     1      11.258   7.308  20.671  0.00  0.00    +0.210 HD
ENDBRANCH   6  10
BRANCH   3  12
ATOM     12  C2  UNL     1       8.755  10.029  26.149  0.00  0.00    +0.108 C 
BRANCH  12  13
ATOM     13  C3  UNL     1       9.440  11.175  26.865  0.00  0.00    -0.027 A 
ATOM     14  C4  UNL     1       8.699  12.070  27.658  0.00  0.00    +0.007 A 
ATOM     15  C5  UNL     1       9.333  13.138  28.300  0.00  0.00    +0.020 A 
ATOM     16  C6  UNL     1      10.712  13.320  28.161  0.00  0.00    +0.041 A 
ATOM     17 CL1  UNL     1      11.508  14.657  28.970  0.00  0.00    -0.084 Cl
ATOM     18  C7  UNL     1      11.459  12.431  27.378  0.00  0.00    +0.020 A 
ATOM     19  C8  UNL     1      10.826  11.365  26.730  0.00  0.00    +0.007 A 
ENDBRANCH  12  13
BRANCH  12  20
ATOM     20  C9  UNL     1       8.630   8.809  27.091  0.00  0.00    +0.014 C 
ATOM     21  C10 UNL     1       8.481   7.478  26.355  0.00  0.00    +0.006 C 
ATOM     22  C11 UNL     1       7.093   7.302  26.954  0.00  0.00    +0.001 C 
ATOM     23  C12 UNL     1       7.236   8.625  27.692  0.00  0.00    +0.006 C 
ENDBRANCH  12  20
ENDBRANCH   3  12
BRANCH   8  24
ATOM     24  C17 UNL     1       8.586   7.596  21.033  0.00  0.00    +0.178 C 
BRANCH  24  25
ATOM     25  O3  UNL     1       9.151   6.983  19.904  0.00  0.00    -0.393 OA
ATOM     26  H23 UNL     1      10.082   7.316  19.833  0.00  0.00    +0.209 HD
ENDBRANCH  24  25
ENDBRANCH   8  24
TORSDOF 6
ENDMDL
MODEL 9
REMARK VINA RESULT:    -5.386      6.075      7.630
REMARK INTER + INTRA:          -7.945
REMARK INTER:                  -7.007
REMARK INTRA:                  -0.938
REMARK UNBOUND:                -0.985
REMARK  Name = /home/qwerty/github/datacon2025hack/step_04_hit_selection/docking/ligands/lig_127.pdb
REMARK  6 active torsions:
REMARK  status: ('A' for Active; 'I' for Inactive)
REMARK    1  A    between atoms: N1_3  and  C2_4
REMARK    2  A    between atoms: C2_4  and  C3_5
REMARK    3  A    between atoms: C2_4  and  C9_12
REMARK    4  A    between atoms: C14_18  and  O2_19
REMARK    5  A    between atoms: C16_21  and  C17_22
REMARK    6  A    between atoms: C17_22  and  O3_23
REMARK                            x       y       z     vdW  Elec       q    Type
REMARK                         _______ _______ _______ _____ _____    ______ ____
ROOT
ATOM      1  O1  UNL     1      19.439   1.164  26.811  0.00  0.00    -0.253 OA
ATOM      2  C1  UNL     1      20.093   2.144  27.262  0.00  0.00    +0.303 C 
ATOM      3  N1  UNL     1      20.649   2.077  28.585  0.00  0.00    -0.292 N 
ATOM      4  N2  UNL     1      20.269   3.316  26.447  0.00  0.00    -0.278 N 
ATOM      5  C13 UNL     1      20.635   4.615  26.994  0.00  0.00    +0.141 C 
ATOM      6  C14 UNL     1      20.499   5.612  25.843  0.00  0.00    +0.134 C 
ATOM      7  C15 UNL     1      19.658   4.892  24.783  0.00  0.00    +0.057 C 
ATOM      8  C16 UNL     1      19.839   3.395  25.054  0.00  0.00    +0.105 C 
ATOM      9  H1  UNL     1      21.226   2.874  28.935  0.00  0.00    +0.151 HD
ENDROOT
BRANCH   6  10
ATOM     10  O2  UNL     1      21.771   5.916  25.329  0.00  0.00    -0.390 OA
ATOM     11  H17 UNL     1      21.633   6.580  24.604  0.00  0.00    +0.210 HD
ENDBRANCH   6  10
BRANCH   3  12
ATOM     12  C2  UNL     1      20.447   0.912  29.453  0.00  0.00    +0.108 C 
BRANCH  12  13
ATOM     13  C3  UNL     1      19.553   1.288  30.617  0.00  0.00    -0.027 A 
ATOM     14  C4  UNL     1      19.103   2.612  30.777  0.00  0.00    +0.007 A 
ATOM     15  C5  UNL     1      18.294   2.957  31.864  0.00  0.00    +0.020 A 
ATOM     16  C6  UNL     1      17.923   1.984  32.798  0.00  0.00    +0.041 A 
ATOM     17 CL1  UNL     1      16.906   2.418  34.160  0.00  0.00    -0.084 Cl
ATOM     18  C7  UNL     1      18.362   0.664  32.644  0.00  0.00    +0.020 A 
ATOM     19  C8  UNL     1      19.176   0.317  31.561  0.00  0.00    +0.007 A 
ENDBRANCH  12  13
BRANCH  12  20
ATOM     20  C9  UNL     1      21.804   0.383  29.973  0.00  0.00    +0.014 C 
ATOM     21  C10 UNL     1      22.894   1.453  30.041  0.00  0.00    +0.006 C 
ATOM     22  C11 UNL     1      23.702   0.697  28.997  0.00  0.00    +0.001 C 
ATOM     23  C12 UNL     1      22.622  -0.373  28.926  0.00  0.00    +0.006 C 
ENDBRANCH  12  20
ENDBRANCH   3  12
BRANCH   8  24
ATOM     24  C17 UNL     1      20.901   2.783  24.123  0.00  0.00    +0.178 C 
BRANCH  24  25
ATOM     25  O3  UNL     1      22.182   2.913  24.679  0.00  0.00    -0.393 OA
ATOM     26  H23 UNL     1      22.138   2.531  25.594  0.00  0.00    +0.209 HD
ENDBRANCH  24  25
ENDBRANCH   8  24
TORSDOF 6
ENDMDL
