MODEL 1
REMARK VINA RESULT:    -9.204      0.000      0.000
REMARK INTER + INTRA:         -13.273
REMARK INTER:                 -12.433
REMARK INTRA:                  -0.840
REMARK UNBOUND:                -0.840
REMARK  Name = /home/qwerty/github/datacon2025hack/step_04_hit_selection/docking/ligands/lig_364.pdb
REMARK  6 active torsions:
REMARK  status: ('A' for Active; 'I' for Inactive)
REMARK    1  A    between atoms: C1_2  and  C11_14
REMARK    2  A    between atoms: N1_3  and  C2_4
REMARK    3  A    between atoms: C2_4  and  C3_5
REMARK    4  A    between atoms: C14_17  and  C15_18
REMARK    5  A    between atoms: C17_20  and  C18_21
REMARK    6  A    between atoms: C24_30  and  C25_31
REMARK                            x       y       z     vdW  Elec       q    Type
REMARK                         _______ _______ _______ _____ _____    ______ ____
ROOT
ATOM      1  C15 UNL     1      21.256   5.337  22.795  0.00  0.00    +0.013 A 
ATOM      2  C16 UNL     1      22.287   6.246  22.465  0.00  0.00    +0.039 A 
ATOM      3  C17 UNL     1      22.125   7.157  21.381  0.00  0.00    +0.075 A 
ATOM      4  N4  UNL     1      20.973   7.127  20.642  0.00  0.00    -0.228 NA
ATOM      5  C23 UNL     1      19.999   6.243  20.964  0.00  0.00    +0.159 A 
ATOM      6  N5  UNL     1      18.827   6.078  20.343  0.00  0.00    -0.323 N 
ATOM      7  C24 UNL     1      18.240   5.071  21.042  0.00  0.00    +0.143 A 
ATOM      8  N6  UNL     1      19.002   4.613  22.075  0.00  0.00    -0.225 NA
ATOM      9  C31 UNL     1      20.108   5.376  22.000  0.00  0.00    +0.116 A 
ATOM     10  H17 UNL     1      18.456   6.629  19.540  0.00  0.00    +0.169 HD
ENDROOT
BRANCH   7  11
ATOM     11  C25 UNL     1      16.890   4.535  20.755  0.00  0.00    +0.055 A 
ATOM     12  C26 UNL     1      16.760   3.220  20.270  0.00  0.00    +0.052 A 
ATOM     13  C27 UNL     1      15.497   2.686  19.997  0.00  0.00    +0.124 A 
ATOM     14  F1  UNL     1      15.385   1.414  19.537  0.00  0.00    -0.205 F 
ATOM     15  C28 UNL     1      14.353   3.459  20.195  0.00  0.00    +0.041 A 
ATOM     16  C29 UNL     1      14.469   4.771  20.661  0.00  0.00    +0.042 A 
ATOM     17  C30 UNL     1      15.728   5.313  20.939  0.00  0.00    +0.134 A 
ATOM     18  F2  UNL     1      15.804   6.608  21.337  0.00  0.00    -0.205 F 
ENDBRANCH   7  11
BRANCH   1  22
ATOM     19  C11 UNL     1      21.684   2.563  26.065  0.00  0.00    +0.037 A 
ATOM     20  C12 UNL     1      20.782   2.300  25.019  0.00  0.00    +0.013 A 
ATOM     21  C13 UNL     1      20.645   3.199  23.958  0.00  0.00    +0.009 A 
ATOM     22  C14 UNL     1      21.400   4.383  23.922  0.00  0.00    -0.016 A 
ATOM     23  C32 UNL     1      22.284   4.658  24.976  0.00  0.00    +0.009 A 
ATOM     24  C33 UNL     1      22.425   3.758  26.037  0.00  0.00    +0.013 A 
BRANCH  19  26
ATOM     25  O1  UNL     1      21.040   0.655  27.317  0.00  0.00    -0.270 OA
ATOM     26  C1  UNL     1      21.844   1.620  27.200  0.00  0.00    +0.244 C 
ATOM     27  N1  UNL     1      22.887   1.795  28.174  0.00  0.00    -0.306 N 
ATOM     28  H1  UNL     1      23.449   2.675  28.185  0.00  0.00    +0.149 HD
BRANCH  27  29
ATOM     29  C2  UNL     1      23.100   0.845  29.263  0.00  0.00    +0.157 C 
BRANCH  29  30
ATOM     30  C3  UNL     1      22.005   0.971  30.275  0.00  0.00    +0.034 A 
ATOM     31  C4  UNL     1      21.795   2.081  31.088  0.00  0.00    +0.032 A 
ATOM     32  C5  UNL     1      20.654   1.785  31.802  0.00  0.00    -0.000 A 
ATOM     33  C6  UNL     1      19.966   2.526  32.762  0.00  0.00    +0.010 A 
ATOM     34  C7  UNL     1      18.805   1.960  33.320  0.00  0.00    +0.001 A 
ATOM     35  C8  UNL     1      18.362   0.684  32.906  0.00  0.00    +0.002 A 
ATOM     36  C9  UNL     1      19.077  -0.038  31.931  0.00  0.00    +0.026 A 
ATOM     37  C10 UNL     1      20.225   0.547  31.400  0.00  0.00    +0.047 A 
ATOM     38  N2  UNL     1      21.041   0.038  30.461  0.00  0.00    -0.357 N 
ATOM     39  H9  UNL     1      20.945  -0.880  29.974  0.00  0.00    +0.166 HD
ENDBRANCH  29  30
ENDBRANCH  27  29
ENDBRANCH  19  26
ENDBRANCH   1  22
BRANCH   3  40
ATOM     40  C18 UNL     1      23.187   8.130  21.021  0.00  0.00    +0.019 A 
ATOM     41  C19 UNL     1      24.538   7.744  21.053  0.00  0.00    +0.013 A 
ATOM     42  C20 UNL     1      25.539   8.653  20.708  0.00  0.00    +0.020 A 
ATOM     43  C21 UNL     1      25.186   9.946  20.323  0.00  0.00    +0.111 A 
ATOM     44  N3  UNL     1      23.877  10.308  20.280  0.00  0.00    -0.263 NA
ATOM     45  C22 UNL     1      22.882   9.443  20.614  0.00  0.00    +0.120 A 
ENDBRANCH   3  40
TORSDOF 6
ENDMDL
MODEL 2
REMARK VINA RESULT:    -9.121      6.027     14.458
REMARK INTER + INTRA:         -13.160
REMARK INTER:                 -12.313
REMARK INTRA:                  -0.847
REMARK UNBOUND:                -0.840
REMARK  Name = /home/qwerty/github/datacon2025hack/step_04_hit_selection/docking/ligands/lig_364.pdb
REMARK  6 active torsions:
REMARK  status: ('A' for Active; 'I' for Inactive)
REMARK    1  A    between atoms: C1_2  and  C11_14
REMARK    2  A    between atoms: N1_3  and  C2_4
REMARK    3  A    between atoms: C2_4  and  C3_5
REMARK    4  A    between atoms: C14_17  and  C15_18
REMARK    5  A    between atoms: C17_20  and  C18_21
REMARK    6  A    between atoms: C24_30  and  C25_31
REMARK                            x       y       z     vdW  Elec       q    Type
REMARK                         _______ _______ _______ _____ _____    ______ ____
ROOT
ATOM      1  C15 UNL     1      17.577   1.485  35.225  0.00  0.00    +0.013 A 
ATOM      2  C16 UNL     1      16.767   0.368  35.534  0.00  0.00    +0.039 A 
ATOM      3  C17 UNL     1      15.809   0.440  36.586  0.00  0.00    +0.075 A 
ATOM      4  N4  UNL     1      15.696   1.593  37.316  0.00  0.00    -0.228 NA
ATOM      5  C23 UNL     1      16.485   2.651  37.015  0.00  0.00    +0.159 A 
ATOM      6  N5  UNL     1      16.509   3.836  37.632  0.00  0.00    -0.323 N 
ATOM      7  C24 UNL     1      17.473   4.521  36.962  0.00  0.00    +0.143 A 
ATOM      8  N6  UNL     1      18.041   3.805  35.951  0.00  0.00    -0.225 NA
ATOM      9  C31 UNL     1      17.393   2.626  36.010  0.00  0.00    +0.116 A 
ATOM     10  H17 UNL     1      15.895   4.153  38.414  0.00  0.00    +0.169 HD
ENDROOT
BRANCH   7  11
ATOM     11  C25 UNL     1      17.858   5.919  37.256  0.00  0.00    +0.055 A 
ATOM     12  C26 UNL     1      19.216   6.235  37.444  0.00  0.00    +0.052 A 
ATOM     13  C27 UNL     1      19.609   7.550  37.715  0.00  0.00    +0.124 A 
ATOM     14  F1  UNL     1      20.923   7.842  37.885  0.00  0.00    -0.205 F 
ATOM     15  C28 UNL     1      18.651   8.559  37.812  0.00  0.00    +0.041 A 
ATOM     16  C29 UNL     1      17.298   8.257  37.645  0.00  0.00    +0.042 A 
ATOM     17  C30 UNL     1      16.896   6.946  37.371  0.00  0.00    +0.134 A 
ATOM     18  F2  UNL     1      15.569   6.681  37.269  0.00  0.00    -0.205 F 
ENDBRANCH   7  11
BRANCH   1  22
ATOM     19  C11 UNL     1      20.486   1.329  32.050  0.00  0.00    +0.037 A 
ATOM     20  C12 UNL     1      20.706   2.135  33.181  0.00  0.00    +0.013 A 
ATOM     21  C13 UNL     1      19.763   2.184  34.212  0.00  0.00    +0.009 A 
ATOM     22  C14 UNL     1      18.577   1.435  34.131  0.00  0.00    -0.016 A 
ATOM     23  C32 UNL     1      18.346   0.647  32.993  0.00  0.00    +0.009 A 
ATOM     24  C33 UNL     1      19.290   0.595  31.963  0.00  0.00    +0.013 A 
BRANCH  19  26
ATOM     25  O1  UNL     1      22.360   2.161  30.858  0.00  0.00    -0.270 OA
ATOM     26  C1  UNL     1      21.476   1.264  30.947  0.00  0.00    +0.244 C 
ATOM     27  N1  UNL     1      21.439   0.208  29.972  0.00  0.00    -0.306 N 
ATOM     28  H1  UNL     1      20.621  -0.440  29.936  0.00  0.00    +0.149 HD
BRANCH  27  29
ATOM     29  C2  UNL     1      22.440   0.090  28.915  0.00  0.00    +0.157 C 
BRANCH  29  30
ATOM     30  C3  UNL     1      22.158   1.081  27.830  0.00  0.00    +0.034 A 
ATOM     31  C4  UNL     1      21.050   1.048  26.989  0.00  0.00    +0.032 A 
ATOM     32  C5  UNL     1      21.169   2.175  26.203  0.00  0.00    -0.000 A 
ATOM     33  C6  UNL     1      20.348   2.664  25.188  0.00  0.00    +0.010 A 
ATOM     34  C7  UNL     1      20.725   3.866  24.562  0.00  0.00    +0.001 A 
ATOM     35  C8  UNL     1      21.898   4.544  24.964  0.00  0.00    +0.002 A 
ATOM     36  C9  UNL     1      22.705   4.025  25.995  0.00  0.00    +0.026 A 
ATOM     37  C10 UNL     1      22.307   2.831  26.594  0.00  0.00    +0.047 A 
ATOM     38  N2  UNL     1      22.921   2.175  27.592  0.00  0.00    -0.357 N 
ATOM     39  H9  UNL     1      23.797   2.455  28.086  0.00  0.00    +0.166 HD
ENDBRANCH  29  30
ENDBRANCH  27  29
ENDBRANCH  19  26
ENDBRANCH   1  22
BRANCH   3  40
ATOM     40  C18 UNL     1      14.938  -0.715  36.922  0.00  0.00    +0.019 A 
ATOM     41  C19 UNL     1      15.493  -1.997  37.068  0.00  0.00    +0.013 A 
ATOM     42  C20 UNL     1      14.679  -3.084  37.392  0.00  0.00    +0.020 A 
ATOM     43  C21 UNL     1      13.312  -2.884  37.577  0.00  0.00    +0.111 A 
ATOM     44  N3  UNL     1      12.785  -1.638  37.449  0.00  0.00    -0.263 NA
ATOM     45  C22 UNL     1      13.554  -0.563  37.131  0.00  0.00    +0.120 A 
ENDBRANCH   3  40
TORSDOF 6
ENDMDL
MODEL 3
REMARK VINA RESULT:    -8.954      3.817     11.263
REMARK INTER + INTRA:         -12.935
REMARK INTER:                 -12.419
REMARK INTRA:                  -0.516
REMARK UNBOUND:                -0.840
REMARK  Name = /home/qwerty/github/datacon2025hack/step_04_hit_selection/docking/ligands/lig_364.pdb
REMARK  6 active torsions:
REMARK  status: ('A' for Active; 'I' for Inactive)
REMARK    1  A    between atoms: C1_2  and  C11_14
REMARK    2  A    between atoms: N1_3  and  C2_4
REMARK    3  A    between atoms: C2_4  and  C3_5
REMARK    4  A    between atoms: C14_17  and  C15_18
REMARK    5  A    between atoms: C17_20  and  C18_21
REMARK    6  A    between atoms: C24_30  and  C25_31
REMARK                            x       y       z     vdW  Elec       q    Type
REMARK                         _______ _______ _______ _____ _____    ______ ____
ROOT
ATOM      1  C15 UNL     1      19.501   3.671  22.943  0.00  0.00    +0.013 A 
ATOM      2  C16 UNL     1      18.311   3.461  22.210  0.00  0.00    +0.039 A 
ATOM      3  C17 UNL     1      17.310   2.572  22.699  0.00  0.00    +0.075 A 
ATOM      4  N4  UNL     1      17.522   1.900  23.874  0.00  0.00    -0.228 NA
ATOM      5  C23 UNL     1      18.671   2.105  24.559  0.00  0.00    +0.159 A 
ATOM      6  N5  UNL     1      19.036   1.525  25.707  0.00  0.00    -0.323 N 
ATOM      7  C24 UNL     1      20.263   2.057  25.952  0.00  0.00    +0.143 A 
ATOM      8  N6  UNL     1      20.666   2.947  25.003  0.00  0.00    -0.225 NA
ATOM      9  C31 UNL     1      19.636   2.956  24.136  0.00  0.00    +0.116 A 
ATOM     10  H17 UNL     1      18.478   0.857  26.281  0.00  0.00    +0.169 HD
ENDROOT
BRANCH   7  11
ATOM     11  C25 UNL     1      21.081   1.746  27.146  0.00  0.00    +0.055 A 
ATOM     12  C26 UNL     1      20.502   1.028  28.209  0.00  0.00    +0.052 A 
ATOM     13  C27 UNL     1      21.253   0.713  29.346  0.00  0.00    +0.124 A 
ATOM     14  F1  UNL     1      20.686   0.014  30.360  0.00  0.00    -0.205 F 
ATOM     15  C28 UNL     1      22.585   1.119  29.438  0.00  0.00    +0.041 A 
ATOM     16  C29 UNL     1      23.167   1.846  28.397  0.00  0.00    +0.042 A 
ATOM     17  C30 UNL     1      22.424   2.163  27.255  0.00  0.00    +0.134 A 
ATOM     18  F2  UNL     1      23.007   2.917  26.289  0.00  0.00    -0.205 F 
ENDBRANCH   7  11
BRANCH   1  22
ATOM     19  C11 UNL     1      22.569   6.346  21.526  0.00  0.00    +0.037 A 
ATOM     20  C12 UNL     1      22.253   6.282  22.895  0.00  0.00    +0.013 A 
ATOM     21  C13 UNL     1      21.260   5.413  23.354  0.00  0.00    +0.009 A 
ATOM     22  C14 UNL     1      20.555   4.595  22.456  0.00  0.00    -0.016 A 
ATOM     23  C32 UNL     1      20.853   4.674  21.087  0.00  0.00    +0.009 A 
ATOM     24  C33 UNL     1      21.848   5.540  20.627  0.00  0.00    +0.013 A 
BRANCH  19  26
ATOM     25  O1  UNL     1      24.748   6.792  20.706  0.00  0.00    -0.270 OA
ATOM     26  C1  UNL     1      23.621   7.262  21.021  0.00  0.00    +0.244 C 
ATOM     27  N1  UNL     1      23.384   8.675  20.897  0.00  0.00    -0.306 N 
ATOM     28  H1  UNL     1      22.521   9.097  21.307  0.00  0.00    +0.149 HD
BRANCH  27  29
ATOM     29  C2  UNL     1      24.383   9.585  20.344  0.00  0.00    +0.157 C 
BRANCH  29  30
ATOM     30  C3  UNL     1      23.720  10.828  19.838  0.00  0.00    +0.034 A 
ATOM     31  C4  UNL     1      22.399  10.907  19.404  0.00  0.00    +0.032 A 
ATOM     32  C5  UNL     1      22.207  12.237  19.098  0.00  0.00    -0.000 A 
ATOM     33  C6  UNL     1      21.079  12.904  18.623  0.00  0.00    +0.010 A 
ATOM     34  C7  UNL     1      21.179  14.291  18.410  0.00  0.00    +0.001 A 
ATOM     35  C8  UNL     1      22.389  14.970  18.678  0.00  0.00    +0.002 A 
ATOM     36  C9  UNL     1      23.510  14.268  19.161  0.00  0.00    +0.026 A 
ATOM     37  C10 UNL     1      23.381  12.894  19.358  0.00  0.00    +0.047 A 
ATOM     38  N2  UNL     1      24.315  12.044  19.816  0.00  0.00    -0.357 N 
ATOM     39  H9  UNL     1      25.292  12.276  20.103  0.00  0.00    +0.166 HD
ENDBRANCH  29  30
ENDBRANCH  27  29
ENDBRANCH  19  26
ENDBRANCH   1  22
BRANCH   3  40
ATOM     40  C18 UNL     1      16.046   2.343  21.955  0.00  0.00    +0.019 A 
ATOM     41  C19 UNL     1      16.012   1.431  20.886  0.00  0.00    +0.013 A 
ATOM     42  C20 UNL     1      14.824   1.207  20.190  0.00  0.00    +0.020 A 
ATOM     43  C21 UNL     1      13.668   1.890  20.569  0.00  0.00    +0.111 A 
ATOM     44  N3  UNL     1      13.705   2.758  21.614  0.00  0.00    -0.263 NA
ATOM     45  C22 UNL     1      14.850   2.997  22.308  0.00  0.00    +0.120 A 
ENDBRANCH   3  40
TORSDOF 6
ENDMDL
MODEL 4
REMARK VINA RESULT:    -8.927      2.455      6.281
REMARK INTER + INTRA:         -12.898
REMARK INTER:                 -11.738
REMARK INTRA:                  -1.161
REMARK UNBOUND:                -0.840
REMARK  Name = /home/qwerty/github/datacon2025hack/step_04_hit_selection/docking/ligands/lig_364.pdb
REMARK  6 active torsions:
REMARK  status: ('A' for Active; 'I' for Inactive)
REMARK    1  A    between atoms: C1_2  and  C11_14
REMARK    2  A    between atoms: N1_3  and  C2_4
REMARK    3  A    between atoms: C2_4  and  C3_5
REMARK    4  A    between atoms: C14_17  and  C15_18
REMARK    5  A    between atoms: C17_20  and  C18_21
REMARK    6  A    between atoms: C24_30  and  C25_31
REMARK                            x       y       z     vdW  Elec       q    Type
REMARK                         _______ _______ _______ _____ _____    ______ ____
ROOT
ATOM      1  C15 UNL     1      19.859   4.984  22.638  0.00  0.00    +0.013 A 
ATOM      2  C16 UNL     1      18.604   4.523  22.177  0.00  0.00    +0.039 A 
ATOM      3  C17 UNL     1      18.074   4.991  20.939  0.00  0.00    +0.075 A 
ATOM      4  N4  UNL     1      18.777   5.915  20.212  0.00  0.00    -0.228 NA
ATOM      5  C23 UNL     1      19.972   6.355  20.673  0.00  0.00    +0.159 A 
ATOM      6  N5  UNL     1      20.772   7.256  20.095  0.00  0.00    -0.323 N 
ATOM      7  C24 UNL     1      21.817   7.348  20.960  0.00  0.00    +0.143 A 
ATOM      8  N6  UNL     1      21.694   6.534  22.046  0.00  0.00    -0.225 NA
ATOM      9  C31 UNL     1      20.516   5.918  21.834  0.00  0.00    +0.116 A 
ATOM     10  H17 UNL     1      20.629   7.732  19.179  0.00  0.00    +0.169 HD
ENDROOT
BRANCH   7  11
ATOM     11  C25 UNL     1      23.001   8.210  20.745  0.00  0.00    +0.055 A 
ATOM     12  C26 UNL     1      22.835   9.607  20.688  0.00  0.00    +0.052 A 
ATOM     13  C27 UNL     1      23.937  10.446  20.494  0.00  0.00    +0.124 A 
ATOM     14  F1  UNL     1      23.764  11.790  20.450  0.00  0.00    -0.205 F 
ATOM     15  C28 UNL     1      25.213   9.901  20.345  0.00  0.00    +0.041 A 
ATOM     16  C29 UNL     1      25.389   8.516  20.383  0.00  0.00    +0.042 A 
ATOM     17  C30 UNL     1      24.294   7.669  20.579  0.00  0.00    +0.134 A 
ATOM     18  F2  UNL     1      24.497   6.327  20.555  0.00  0.00    -0.205 F 
ENDBRANCH   7  11
BRANCH   1  22
ATOM     19  C11 UNL     1      21.535   3.605  26.361  0.00  0.00    +0.037 A 
ATOM     20  C12 UNL     1      21.571   2.790  25.216  0.00  0.00    +0.013 A 
ATOM     21  C13 UNL     1      21.029   3.238  24.008  0.00  0.00    +0.009 A 
ATOM     22  C14 UNL     1      20.432   4.507  23.920  0.00  0.00    -0.016 A 
ATOM     23  C32 UNL     1      20.376   5.313  25.067  0.00  0.00    +0.009 A 
ATOM     24  C33 UNL     1      20.920   4.867  26.275  0.00  0.00    +0.013 A 
BRANCH  19  26
ATOM     25  O1  UNL     1      21.991   3.880  28.671  0.00  0.00    -0.270 OA
ATOM     26  C1  UNL     1      22.106   3.146  27.651  0.00  0.00    +0.244 C 
ATOM     27  N1  UNL     1      22.799   1.891  27.756  0.00  0.00    -0.306 N 
ATOM     28  H1  UNL     1      23.046   1.357  26.893  0.00  0.00    +0.149 HD
BRANCH  27  29
ATOM     29  C2  UNL     1      23.315   1.392  29.028  0.00  0.00    +0.157 C 
BRANCH  29  30
ATOM     30  C3  UNL     1      22.219   1.348  30.044  0.00  0.00    +0.034 A 
ATOM     31  C4  UNL     1      21.181   0.420  30.058  0.00  0.00    +0.032 A 
ATOM     32  C5  UNL     1      20.457   0.716  31.194  0.00  0.00    -0.000 A 
ATOM     33  C6  UNL     1      19.315   0.117  31.724  0.00  0.00    +0.010 A 
ATOM     34  C7  UNL     1      18.799   0.638  32.924  0.00  0.00    +0.001 A 
ATOM     35  C8  UNL     1      19.431   1.730  33.560  0.00  0.00    +0.002 A 
ATOM     36  C9  UNL     1      20.585   2.311  33.002  0.00  0.00    +0.026 A 
ATOM     37  C10 UNL     1      21.072   1.775  31.810  0.00  0.00    +0.047 A 
ATOM     38  N2  UNL     1      22.154   2.170  31.119  0.00  0.00    -0.357 N 
ATOM     39  H9  UNL     1      22.812   2.942  31.366  0.00  0.00    +0.166 HD
ENDBRANCH  29  30
ENDBRANCH  27  29
ENDBRANCH  19  26
ENDBRANCH   1  22
BRANCH   3  40
ATOM     40  C18 UNL     1      16.766   4.513  20.426  0.00  0.00    +0.019 A 
ATOM     41  C19 UNL     1      16.487   3.136  20.380  0.00  0.00    +0.013 A 
ATOM     42  C20 UNL     1      15.255   2.683  19.906  0.00  0.00    +0.020 A 
ATOM     43  C21 UNL     1      14.301   3.608  19.486  0.00  0.00    +0.111 A 
ATOM     44  N3  UNL     1      14.571   4.938  19.549  0.00  0.00    -0.263 NA
ATOM     45  C22 UNL     1      15.764   5.407  20.003  0.00  0.00    +0.120 A 
ENDBRANCH   3  40
TORSDOF 6
ENDMDL
MODEL 5
REMARK VINA RESULT:    -8.749      2.970     10.175
REMARK INTER + INTRA:         -12.658
REMARK INTER:                 -11.781
REMARK INTRA:                  -0.878
REMARK UNBOUND:                -0.840
REMARK  Name = /home/qwerty/github/datacon2025hack/step_04_hit_selection/docking/ligands/lig_364.pdb
REMARK  6 active torsions:
REMARK  status: ('A' for Active; 'I' for Inactive)
REMARK    1  A    between atoms: C1_2  and  C11_14
REMARK    2  A    between atoms: N1_3  and  C2_4
REMARK    3  A    between atoms: C2_4  and  C3_5
REMARK    4  A    between atoms: C14_17  and  C15_18
REMARK    5  A    between atoms: C17_20  and  C18_21
REMARK    6  A    between atoms: C24_30  and  C25_31
REMARK                            x       y       z     vdW  Elec       q    Type
REMARK                         _______ _______ _______ _____ _____    ______ ____
ROOT
ATOM      1  C15 UNL     1      20.760   4.091  23.246  0.00  0.00    +0.013 A 
ATOM      2  C16 UNL     1      21.402   3.557  24.386  0.00  0.00    +0.039 A 
ATOM      3  C17 UNL     1      20.727   2.620  25.222  0.00  0.00    +0.075 A 
ATOM      4  N4  UNL     1      19.438   2.262  24.928  0.00  0.00    -0.228 NA
ATOM      5  C23 UNL     1      18.834   2.791  23.838  0.00  0.00    +0.159 A 
ATOM      6  N5  UNL     1      17.586   2.557  23.420  0.00  0.00    -0.323 N 
ATOM      7  C24 UNL     1      17.474   3.335  22.311  0.00  0.00    +0.143 A 
ATOM      8  N6  UNL     1      18.608   4.035  22.026  0.00  0.00    -0.225 NA
ATOM      9  C31 UNL     1      19.450   3.668  23.010  0.00  0.00    +0.116 A 
ATOM     10  H17 UNL     1      16.893   1.899  23.838  0.00  0.00    +0.169 HD
ENDROOT
BRANCH   7  11
ATOM     11  C25 UNL     1      16.266   3.401  21.459  0.00  0.00    +0.055 A 
ATOM     12  C26 UNL     1      15.546   2.222  21.192  0.00  0.00    +0.052 A 
ATOM     13  C27 UNL     1      14.397   2.255  20.396  0.00  0.00    +0.124 A 
ATOM     14  F1  UNL     1      13.708   1.113  20.153  0.00  0.00    -0.205 F 
ATOM     15  C28 UNL     1      13.959   3.463  19.851  0.00  0.00    +0.041 A 
ATOM     16  C29 UNL     1      14.673   4.638  20.095  0.00  0.00    +0.042 A 
ATOM     17  C30 UNL     1      15.823   4.615  20.891  0.00  0.00    +0.134 A 
ATOM     18  F2  UNL     1      16.521   5.766  21.060  0.00  0.00    -0.205 F 
ENDBRANCH   7  11
BRANCH   1  22
ATOM     19  C11 UNL     1      22.758   6.906  20.666  0.00  0.00    +0.037 A 
ATOM     20  C12 UNL     1      22.844   7.033  22.063  0.00  0.00    +0.013 A 
ATOM     21  C13 UNL     1      22.198   6.118  22.900  0.00  0.00    +0.009 A 
ATOM     22  C14 UNL     1      21.445   5.063  22.359  0.00  0.00    -0.016 A 
ATOM     23  C32 UNL     1      21.340   4.948  20.964  0.00  0.00    +0.009 A 
ATOM     24  C33 UNL     1      21.988   5.860  20.126  0.00  0.00    +0.013 A 
BRANCH  19  26
ATOM     25  O1  UNL     1      23.574   7.575  18.542  0.00  0.00    -0.270 OA
ATOM     26  C1  UNL     1      23.438   7.866  19.762  0.00  0.00    +0.244 C 
ATOM     27  N1  UNL     1      23.956   9.115  20.253  0.00  0.00    -0.306 N 
ATOM     28  H1  UNL     1      23.999   9.293  21.281  0.00  0.00    +0.149 HD
BRANCH  27  29
ATOM     29  C2  UNL     1      24.574  10.101  19.371  0.00  0.00    +0.157 C 
BRANCH  29  30
ATOM     30  C3  UNL     1      23.694  11.306  19.254  0.00  0.00    +0.034 A 
ATOM     31  C4  UNL     1      22.439  11.320  18.651  0.00  0.00    +0.032 A 
ATOM     32  C5  UNL     1      21.975  12.606  18.831  0.00  0.00    -0.000 A 
ATOM     33  C6  UNL     1      20.775  13.200  18.444  0.00  0.00    +0.010 A 
ATOM     34  C7  UNL     1      20.572  14.550  18.785  0.00  0.00    +0.001 A 
ATOM     35  C8  UNL     1      21.560  15.264  19.499  0.00  0.00    +0.002 A 
ATOM     36  C9  UNL     1      22.761  14.634  19.879  0.00  0.00    +0.026 A 
ATOM     37  C10 UNL     1      22.935  13.297  19.524  0.00  0.00    +0.047 A 
ATOM     38  N2  UNL     1      23.991  12.512  19.793  0.00  0.00    -0.357 N 
ATOM     39  H9  UNL     1      24.855  12.775  20.316  0.00  0.00    +0.166 HD
ENDBRANCH  29  30
ENDBRANCH  27  29
ENDBRANCH  19  26
ENDBRANCH   1  22
BRANCH   3  40
ATOM     40  C18 UNL     1      21.384   2.034  26.417  0.00  0.00    +0.019 A 
ATOM     41  C19 UNL     1      22.471   2.691  27.018  0.00  0.00    +0.013 A 
ATOM     42  C20 UNL     1      23.086   2.147  28.147  0.00  0.00    +0.020 A 
ATOM     43  C21 UNL     1      22.606   0.951  28.679  0.00  0.00    +0.111 A 
ATOM     44  N3  UNL     1      21.544   0.330  28.102  0.00  0.00    -0.263 NA
ATOM     45  C22 UNL     1      20.928   0.836  27.000  0.00  0.00    +0.120 A 
ENDBRANCH   3  40
TORSDOF 6
ENDMDL
MODEL 6
REMARK VINA RESULT:    -8.694      6.527     11.758
REMARK INTER + INTRA:         -12.583
REMARK INTER:                 -11.336
REMARK INTRA:                  -1.247
REMARK UNBOUND:                -0.840
REMARK  Name = /home/qwerty/github/datacon2025hack/step_04_hit_selection/docking/ligands/lig_364.pdb
REMARK  6 active torsions:
REMARK  status: ('A' for Active; 'I' for Inactive)
REMARK    1  A    between atoms: C1_2  and  C11_14
REMARK    2  A    between atoms: N1_3  and  C2_4
REMARK    3  A    between atoms: C2_4  and  C3_5
REMARK    4  A    between atoms: C14_17  and  C15_18
REMARK    5  A    between atoms: C17_20  and  C18_21
REMARK    6  A    between atoms: C24_30  and  C25_31
REMARK                            x       y       z     vdW  Elec       q    Type
REMARK                         _______ _______ _______ _____ _____    ______ ____
ROOT
ATOM      1  C15 UNL     1      13.951   4.796  20.954  0.00  0.00    +0.013 A 
ATOM      2  C16 UNL     1      12.665   5.358  20.780  0.00  0.00    +0.039 A 
ATOM      3  C17 UNL     1      11.498   4.585  21.048  0.00  0.00    +0.075 A 
ATOM      4  N4  UNL     1      11.630   3.282  21.448  0.00  0.00    -0.228 NA
ATOM      5  C23 UNL     1      12.868   2.756  21.600  0.00  0.00    +0.159 A 
ATOM      6  N5  UNL     1      13.169   1.508  21.971  0.00  0.00    -0.323 N 
ATOM      7  C24 UNL     1      14.528   1.493  21.952  0.00  0.00    +0.143 A 
ATOM      8  N6  UNL     1      15.077   2.686  21.590  0.00  0.00    -0.225 NA
ATOM      9  C31 UNL     1      14.000   3.465  21.375  0.00  0.00    +0.116 A 
ATOM     10  H17 UNL     1      12.504   0.752  22.244  0.00  0.00    +0.169 HD
ENDROOT
BRANCH   7  11
ATOM     11  C25 UNL     1      15.353   0.321  22.322  0.00  0.00    +0.055 A 
ATOM     12  C26 UNL     1      15.203  -0.251  23.600  0.00  0.00    +0.052 A 
ATOM     13  C27 UNL     1      15.963  -1.363  23.975  0.00  0.00    +0.124 A 
ATOM     14  F1  UNL     1      15.803  -1.909  25.206  0.00  0.00    -0.205 F 
ATOM     15  C28 UNL     1      16.888  -1.910  23.084  0.00  0.00    +0.041 A 
ATOM     16  C29 UNL     1      17.058  -1.342  21.819  0.00  0.00    +0.042 A 
ATOM     17  C30 UNL     1      16.301  -0.231  21.435  0.00  0.00    +0.134 A 
ATOM     18  F2  UNL     1      16.534   0.325  20.219  0.00  0.00    -0.205 F 
ENDBRANCH   7  11
BRANCH   1  22
ATOM     19  C11 UNL     1      17.527   7.072  20.180  0.00  0.00    +0.037 A 
ATOM     20  C12 UNL     1      16.795   7.273  21.363  0.00  0.00    +0.013 A 
ATOM     21  C13 UNL     1      15.636   6.533  21.615  0.00  0.00    +0.009 A 
ATOM     22  C14 UNL     1      15.179   5.583  20.687  0.00  0.00    -0.016 A 
ATOM     23  C32 UNL     1      15.897   5.396  19.496  0.00  0.00    +0.009 A 
ATOM     24  C33 UNL     1      17.058   6.133  19.244  0.00  0.00    +0.013 A 
BRANCH  19  26
ATOM     25  O1  UNL     1      19.840   7.517  20.461  0.00  0.00    -0.270 OA
ATOM     26  C1  UNL     1      18.760   7.847  19.897  0.00  0.00    +0.244 C 
ATOM     27  N1  UNL     1      18.744   8.974  19.004  0.00  0.00    -0.306 N 
ATOM     28  H1  UNL     1      17.834   9.358  18.664  0.00  0.00    +0.149 HD
BRANCH  27  29
ATOM     29  C2  UNL     1      19.957   9.713  18.662  0.00  0.00    +0.157 C 
BRANCH  29  30
ATOM     30  C3  UNL     1      19.955  11.045  19.344  0.00  0.00    +0.034 A 
ATOM     31  C4  UNL     1      20.089  11.238  20.716  0.00  0.00    +0.032 A 
ATOM     32  C5  UNL     1      20.098  12.606  20.882  0.00  0.00    -0.000 A 
ATOM     33  C6  UNL     1      20.213  13.380  22.035  0.00  0.00    +0.010 A 
ATOM     34  C7  UNL     1      20.202  14.779  21.890  0.00  0.00    +0.001 A 
ATOM     35  C8  UNL     1      20.081  15.365  20.609  0.00  0.00    +0.002 A 
ATOM     36  C9  UNL     1      19.970  14.555  19.463  0.00  0.00    +0.026 A 
ATOM     37  C10 UNL     1      19.981  13.172  19.639  0.00  0.00    +0.047 A 
ATOM     38  N2  UNL     1      19.897  12.228  18.687  0.00  0.00    -0.357 N 
ATOM     39  H9  UNL     1      19.813  12.376  17.657  0.00  0.00    +0.166 HD
ENDBRANCH  29  30
ENDBRANCH  27  29
ENDBRANCH  19  26
ENDBRANCH   1  22
BRANCH   3  40
ATOM     40  C18 UNL     1      10.137   5.155  20.885  0.00  0.00    +0.019 A 
ATOM     41  C19 UNL     1       9.005   4.362  21.142  0.00  0.00    +0.013 A 
ATOM     42  C20 UNL     1       7.724   4.897  20.998  0.00  0.00    +0.020 A 
ATOM     43  C21 UNL     1       7.577   6.227  20.607  0.00  0.00    +0.111 A 
ATOM     44  N3  UNL     1       8.676   6.992  20.377  0.00  0.00    -0.263 NA
ATOM     45  C22 UNL     1       9.935   6.496  20.506  0.00  0.00    +0.120 A 
ENDBRANCH   3  40
TORSDOF 6
ENDMDL
MODEL 7
REMARK VINA RESULT:    -8.675      8.369     14.359
REMARK INTER + INTRA:         -12.558
REMARK INTER:                 -12.124
REMARK INTRA:                  -0.435
REMARK UNBOUND:                -0.840
REMARK  Name = /home/qwerty/github/datacon2025hack/step_04_hit_selection/docking/ligands/lig_364.pdb
REMARK  6 active torsions:
REMARK  status: ('A' for Active; 'I' for Inactive)
REMARK    1  A    between atoms: C1_2  and  C11_14
REMARK    2  A    between atoms: N1_3  and  C2_4
REMARK    3  A    between atoms: C2_4  and  C3_5
REMARK    4  A    between atoms: C14_17  and  C15_18
REMARK    5  A    between atoms: C17_20  and  C18_21
REMARK    6  A    between atoms: C24_30  and  C25_31
REMARK                            x       y       z     vdW  Elec       q    Type
REMARK                         _______ _______ _______ _____ _____    ______ ____
ROOT
ATOM      1  C15 UNL     1      17.978   2.450  35.277  0.00  0.00    +0.013 A 
ATOM      2  C16 UNL     1      17.113   1.658  36.067  0.00  0.00    +0.039 A 
ATOM      3  C17 UNL     1      16.778   0.333  35.662  0.00  0.00    +0.075 A 
ATOM      4  N4  UNL     1      17.279  -0.159  34.487  0.00  0.00    -0.228 NA
ATOM      5  C23 UNL     1      18.098   0.615  33.737  0.00  0.00    +0.159 A 
ATOM      6  N5  UNL     1      18.658   0.293  32.567  0.00  0.00    -0.323 N 
ATOM      7  C24 UNL     1      19.360   1.409  32.236  0.00  0.00    +0.143 A 
ATOM      8  N6  UNL     1      19.259   2.405  33.161  0.00  0.00    -0.225 NA
ATOM      9  C31 UNL     1      18.454   1.871  34.098  0.00  0.00    +0.116 A 
ATOM     10  H17 UNL     1      18.592  -0.619  32.065  0.00  0.00    +0.169 HD
ENDROOT
BRANCH   7  11
ATOM     11  C25 UNL     1      20.192   1.538  31.019  0.00  0.00    +0.055 A 
ATOM     12  C26 UNL     1      21.026   0.470  30.637  0.00  0.00    +0.052 A 
ATOM     13  C27 UNL     1      21.817   0.562  29.488  0.00  0.00    +0.124 A 
ATOM     14  F1  UNL     1      22.609  -0.477  29.127  0.00  0.00    -0.205 F 
ATOM     15  C28 UNL     1      21.791   1.722  28.713  0.00  0.00    +0.041 A 
ATOM     16  C29 UNL     1      20.981   2.796  29.089  0.00  0.00    +0.042 A 
ATOM     17  C30 UNL     1      20.185   2.712  30.236  0.00  0.00    +0.134 A 
ATOM     18  F2  UNL     1      19.453   3.796  30.599  0.00  0.00    -0.205 F 
ENDBRANCH   7  11
BRANCH   1  22
ATOM     19  C11 UNL     1      19.055   6.453  36.453  0.00  0.00    +0.037 A 
ATOM     20  C12 UNL     1      18.127   5.713  37.206  0.00  0.00    +0.013 A 
ATOM     21  C13 UNL     1      17.779   4.414  36.825  0.00  0.00    +0.009 A 
ATOM     22  C14 UNL     1      18.345   3.829  35.680  0.00  0.00    -0.016 A 
ATOM     23  C32 UNL     1      19.255   4.574  34.915  0.00  0.00    +0.009 A 
ATOM     24  C33 UNL     1      19.605   5.873  35.296  0.00  0.00    +0.013 A 
BRANCH  19  26
ATOM     25  O1  UNL     1      20.656   8.115  36.997  0.00  0.00    -0.270 OA
ATOM     26  C1  UNL     1      19.436   7.833  36.841  0.00  0.00    +0.244 C 
ATOM     27  N1  UNL     1      18.442   8.850  37.057  0.00  0.00    -0.306 N 
ATOM     28  H1  UNL     1      17.431   8.591  37.096  0.00  0.00    +0.149 HD
BRANCH  27  29
ATOM     29  C2  UNL     1      18.798  10.229  37.380  0.00  0.00    +0.157 C 
BRANCH  29  30
ATOM     30  C3  UNL     1      17.624  11.128  37.151  0.00  0.00    +0.034 A 
ATOM     31  C4  UNL     1      16.291  10.732  37.219  0.00  0.00    +0.032 A 
ATOM     32  C5  UNL     1      15.568  11.886  37.007  0.00  0.00    -0.000 A 
ATOM     33  C6  UNL     1      14.191  12.100  36.970  0.00  0.00    +0.010 A 
ATOM     34  C7  UNL     1      13.737  13.411  36.742  0.00  0.00    +0.001 A 
ATOM     35  C8  UNL     1      14.660  14.466  36.562  0.00  0.00    +0.002 A 
ATOM     36  C9  UNL     1      16.045  14.218  36.609  0.00  0.00    +0.026 A 
ATOM     37  C10 UNL     1      16.464  12.908  36.833  0.00  0.00    +0.047 A 
ATOM     38  N2  UNL     1      17.727  12.459  36.923  0.00  0.00    -0.357 N 
ATOM     39  H9  UNL     1      18.603  13.021  36.842  0.00  0.00    +0.166 HD
ENDBRANCH  29  30
ENDBRANCH  27  29
ENDBRANCH  19  26
ENDBRANCH   1  22
BRANCH   3  40
ATOM     40  C18 UNL     1      15.883  -0.524  36.480  0.00  0.00    +0.019 A 
ATOM     41  C19 UNL     1      15.885  -1.918  36.302  0.00  0.00    +0.013 A 
ATOM     42  C20 UNL     1      15.051  -2.728  37.074  0.00  0.00    +0.020 A 
ATOM     43  C21 UNL     1      14.221  -2.142  38.029  0.00  0.00    +0.111 A 
ATOM     44  N3  UNL     1      14.235  -0.795  38.206  0.00  0.00    -0.263 NA
ATOM     45  C22 UNL     1      15.036   0.018  37.466  0.00  0.00    +0.120 A 
ENDBRANCH   3  40
TORSDOF 6
ENDMDL
MODEL 8
REMARK VINA RESULT:    -8.660      4.346      9.162
REMARK INTER + INTRA:         -12.538
REMARK INTER:                 -12.120
REMARK INTRA:                  -0.418
REMARK UNBOUND:                -0.840
REMARK  Name = /home/qwerty/github/datacon2025hack/step_04_hit_selection/docking/ligands/lig_364.pdb
REMARK  6 active torsions:
REMARK  status: ('A' for Active; 'I' for Inactive)
REMARK    1  A    between atoms: C1_2  and  C11_14
REMARK    2  A    between atoms: N1_3  and  C2_4
REMARK    3  A    between atoms: C2_4  and  C3_5
REMARK    4  A    between atoms: C14_17  and  C15_18
REMARK    5  A    between atoms: C17_20  and  C18_21
REMARK    6  A    between atoms: C24_30  and  C25_31
REMARK                            x       y       z     vdW  Elec       q    Type
REMARK                         _______ _______ _______ _____ _____    ______ ____
ROOT
ATOM      1  C15 UNL     1      20.009   4.105  23.284  0.00  0.00    +0.013 A 
ATOM      2  C16 UNL     1      20.480   5.181  22.496  0.00  0.00    +0.039 A 
ATOM      3  C17 UNL     1      21.650   5.898  22.881  0.00  0.00    +0.075 A 
ATOM      4  N4  UNL     1      22.301   5.556  24.036  0.00  0.00    -0.228 NA
ATOM      5  C23 UNL     1      21.832   4.530  24.784  0.00  0.00    +0.159 A 
ATOM      6  N5  UNL     1      22.339   4.078  25.935  0.00  0.00    -0.323 N 
ATOM      7  C24 UNL     1      21.499   3.065  26.274  0.00  0.00    +0.143 A 
ATOM      8  N6  UNL     1      20.496   2.870  25.372  0.00  0.00    -0.225 NA
ATOM      9  C31 UNL     1      20.735   3.812  24.441  0.00  0.00    +0.116 A 
ATOM     10  H17 UNL     1      23.200   4.413  26.420  0.00  0.00    +0.169 HD
ENDROOT
BRANCH   7  11
ATOM     11  C25 UNL     1      21.659   2.217  27.476  0.00  0.00    +0.055 A 
ATOM     12  C26 UNL     1      22.950   1.817  27.869  0.00  0.00    +0.052 A 
ATOM     13  C27 UNL     1      23.133   1.022  29.005  0.00  0.00    +0.124 A 
ATOM     14  F1  UNL     1      24.383   0.650  29.377  0.00  0.00    -0.205 F 
ATOM     15  C28 UNL     1      22.030   0.611  29.755  0.00  0.00    +0.041 A 
ATOM     16  C29 UNL     1      20.742   0.988  29.367  0.00  0.00    +0.042 A 
ATOM     17  C30 UNL     1      20.550   1.784  28.233  0.00  0.00    +0.134 A 
ATOM     18  F2  UNL     1      19.281   2.084  27.857  0.00  0.00    -0.205 F 
ENDBRANCH   7  11
BRANCH   1  22
ATOM     19  C11 UNL     1      16.481   1.893  22.175  0.00  0.00    +0.037 A 
ATOM     20  C12 UNL     1      17.244   1.508  23.291  0.00  0.00    +0.013 A 
ATOM     21  C13 UNL     1      18.387   2.227  23.652  0.00  0.00    +0.009 A 
ATOM     22  C14 UNL     1      18.797   3.341  22.901  0.00  0.00    -0.016 A 
ATOM     23  C32 UNL     1      18.050   3.713  21.773  0.00  0.00    +0.009 A 
ATOM     24  C33 UNL     1      16.905   2.996  21.413  0.00  0.00    +0.013 A 
BRANCH  19  26
ATOM     25  O1  UNL     1      15.327   0.336  20.809  0.00  0.00    -0.270 OA
ATOM     26  C1  UNL     1      15.265   1.142  21.777  0.00  0.00    +0.244 C 
ATOM     27  N1  UNL     1      14.015   1.328  22.465  0.00  0.00    -0.306 N 
ATOM     28  H1  UNL     1      13.908   2.108  23.151  0.00  0.00    +0.149 HD
BRANCH  27  29
ATOM     29  C2  UNL     1      12.822   0.556  22.131  0.00  0.00    +0.157 C 
BRANCH  29  30
ATOM     30  C3  UNL     1      11.604   1.417  22.250  0.00  0.00    +0.034 A 
ATOM     31  C4  UNL     1      10.726   1.411  23.331  0.00  0.00    +0.032 A 
ATOM     32  C5  UNL     1       9.805   2.395  23.044  0.00  0.00    -0.000 A 
ATOM     33  C6  UNL     1       8.699   2.841  23.766  0.00  0.00    +0.010 A 
ATOM     34  C7  UNL     1       7.937   3.889  23.217  0.00  0.00    +0.001 A 
ATOM     35  C8  UNL     1       8.297   4.461  21.976  0.00  0.00    +0.002 A 
ATOM     36  C9  UNL     1       9.422   3.990  21.273  0.00  0.00    +0.026 A 
ATOM     37  C10 UNL     1      10.155   2.949  21.840  0.00  0.00    +0.047 A 
ATOM     38  N2  UNL     1      11.258   2.363  21.344  0.00  0.00    -0.357 N 
ATOM     39  H9  UNL     1      11.748   2.594  20.453  0.00  0.00    +0.166 HD
ENDBRANCH  29  30
ENDBRANCH  27  29
ENDBRANCH  19  26
ENDBRANCH   1  22
BRANCH   3  40
ATOM     40  C18 UNL     1      22.172   7.024  22.065  0.00  0.00    +0.019 A 
ATOM     41  C19 UNL     1      23.538   7.084  21.740  0.00  0.00    +0.013 A 
ATOM     42  C20 UNL     1      24.031   8.136  20.966  0.00  0.00    +0.020 A 
ATOM     43  C21 UNL     1      23.156   9.121  20.512  0.00  0.00    +0.111 A 
ATOM     44  N3  UNL     1      21.834   9.047  20.817  0.00  0.00    -0.263 NA
ATOM     45  C22 UNL     1      21.327   8.036  21.571  0.00  0.00    +0.120 A 
ENDBRANCH   3  40
TORSDOF 6
ENDMDL
MODEL 9
REMARK VINA RESULT:    -8.619      3.891      9.584
REMARK INTER + INTRA:         -12.482
REMARK INTER:                 -11.896
REMARK INTRA:                  -0.586
REMARK UNBOUND:                -0.840
REMARK  Name = /home/qwerty/github/datacon2025hack/step_04_hit_selection/docking/ligands/lig_364.pdb
REMARK  6 active torsions:
REMARK  status: ('A' for Active; 'I' for Inactive)
REMARK    1  A    between atoms: C1_2  and  C11_14
REMARK    2  A    between atoms: N1_3  and  C2_4
REMARK    3  A    between atoms: C2_4  and  C3_5
REMARK    4  A    between atoms: C14_17  and  C15_18
REMARK    5  A    between atoms: C17_20  and  C18_21
REMARK    6  A    between atoms: C24_30  and  C25_31
REMARK                            x       y       z     vdW  Elec       q    Type
REMARK                         _______ _______ _______ _____ _____    ______ ____
ROOT
ATOM      1  C15 UNL     1      20.413   5.579  21.772  0.00  0.00    +0.013 A 
ATOM      2  C16 UNL     1      21.174   6.526  21.049  0.00  0.00    +0.039 A 
ATOM      3  C17 UNL     1      22.462   6.921  21.512  0.00  0.00    +0.075 A 
ATOM      4  N4  UNL     1      22.948   6.397  22.680  0.00  0.00    -0.228 NA
ATOM      5  C23 UNL     1      22.203   5.499  23.367  0.00  0.00    +0.159 A 
ATOM      6  N5  UNL     1      22.523   4.905  24.521  0.00  0.00    -0.323 N 
ATOM      7  C24 UNL     1      21.442   4.123  24.783  0.00  0.00    +0.143 A 
ATOM      8  N6  UNL     1      20.471   4.207  23.830  0.00  0.00    -0.225 NA
ATOM      9  C31 UNL     1      20.983   5.085  22.948  0.00  0.00    +0.116 A 
ATOM     10  H17 UNL     1      23.413   5.003  25.055  0.00  0.00    +0.169 HD
ENDROOT
BRANCH   7  11
ATOM     11  C25 UNL     1      21.327   3.230  25.957  0.00  0.00    +0.055 A 
ATOM     12  C26 UNL     1      21.667   3.720  27.231  0.00  0.00    +0.052 A 
ATOM     13  C27 UNL     1      21.560   2.901  28.360  0.00  0.00    +0.124 A 
ATOM     14  F1  UNL     1      21.883   3.388  29.583  0.00  0.00    -0.205 F 
ATOM     15  C28 UNL     1      21.122   1.582  28.227  0.00  0.00    +0.041 A 
ATOM     16  C29 UNL     1      20.797   1.078  26.966  0.00  0.00    +0.042 A 
ATOM     17  C30 UNL     1      20.899   1.891  25.832  0.00  0.00    +0.134 A 
ATOM     18  F2  UNL     1      20.627   1.349  24.618  0.00  0.00    -0.205 F 
ENDBRANCH   7  11
BRANCH   1  22
ATOM     19  C11 UNL     1      16.522   4.320  20.414  0.00  0.00    +0.037 A 
ATOM     20  C12 UNL     1      17.093   5.513  19.937  0.00  0.00    +0.013 A 
ATOM     21  C13 UNL     1      18.356   5.920  20.376  0.00  0.00    +0.009 A 
ATOM     22  C14 UNL     1      19.072   5.149  21.307  0.00  0.00    -0.016 A 
ATOM     23  C32 UNL     1      18.493   3.969  21.800  0.00  0.00    +0.009 A 
ATOM     24  C33 UNL     1      17.232   3.560  21.360  0.00  0.00    +0.013 A 
BRANCH  19  26
ATOM     25  O1  UNL     1      14.930   2.637  19.909  0.00  0.00    -0.270 OA
ATOM     26  C1  UNL     1      15.183   3.872  19.958  0.00  0.00    +0.244 C 
ATOM     27  N1  UNL     1      14.175   4.817  19.559  0.00  0.00    -0.306 N 
ATOM     28  H1  UNL     1      14.424   5.824  19.436  0.00  0.00    +0.149 HD
BRANCH  27  29
ATOM     29  C2  UNL     1      12.831   4.401  19.166  0.00  0.00    +0.157 C 
BRANCH  29  30
ATOM     30  C3  UNL     1      11.809   5.221  19.889  0.00  0.00    +0.034 A 
ATOM     31  C4  UNL     1      12.089   6.352  20.651  0.00  0.00    +0.032 A 
ATOM     32  C5  UNL     1      10.857   6.812  21.066  0.00  0.00    -0.000 A 
ATOM     33  C6  UNL     1      10.517   7.914  21.849  0.00  0.00    +0.010 A 
ATOM     34  C7  UNL     1       9.152   8.143  22.101  0.00  0.00    +0.001 A 
ATOM     35  C8  UNL     1       8.171   7.278  21.566  0.00  0.00    +0.002 A 
ATOM     36  C9  UNL     1       8.547   6.175  20.776  0.00  0.00    +0.026 A 
ATOM     37  C10 UNL     1       9.907   5.972  20.547  0.00  0.00    +0.047 A 
ATOM     38  N2  UNL     1      10.476   4.995  19.820  0.00  0.00    -0.357 N 
ATOM     39  H9  UNL     1       9.990   4.229  19.304  0.00  0.00    +0.166 HD
ENDBRANCH  29  30
ENDBRANCH  27  29
ENDBRANCH  19  26
ENDBRANCH   1  22
BRANCH   3  40
ATOM     40  C18 UNL     1      23.287   7.903  20.764  0.00  0.00    +0.019 A 
ATOM     41  C19 UNL     1      22.875   9.243  20.670  0.00  0.00    +0.013 A 
ATOM     42  C20 UNL     1      23.651  10.172  19.975  0.00  0.00    +0.020 A 
ATOM     43  C21 UNL     1      24.844   9.760  19.383  0.00  0.00    +0.111 A 
ATOM     44  N3  UNL     1      25.244   8.466  19.492  0.00  0.00    -0.263 NA
ATOM     45  C22 UNL     1      24.506   7.540  20.160  0.00  0.00    +0.120 A 
ENDBRANCH   3  40
TORSDOF 6
ENDMDL
