MODEL 1
REMARK VINA RESULT:    -5.850      0.000      0.000
REMARK INTER + INTRA:          -7.663
REMARK INTER:                  -7.218
REMARK INTRA:                  -0.445
REMARK UNBOUND:                -0.445
REMARK  Name = /home/qwerty/github/datacon2025hack/step_04_hit_selection/docking/ligands/lig_813.pdb
REMARK  6 active torsions:
REMARK  status: ('A' for Active; 'I' for Inactive)
REMARK    1  A    between atoms: C1_1  and  O1_2
REMARK    2  A    between atoms: O1_2  and  C2_3
REMARK    3  A    between atoms: C5_7  and  N1_8
REMARK    4  A    between atoms: C6_9  and  C7_11
REMARK    5  A    between atoms: N2_13  and  C8_14
REMARK    6  A    between atoms: C14_22  and  C15_23
REMARK                            x       y       z     vdW  Elec       q    Type
REMARK                         _______ _______ _______ _____ _____    ______ ____
ROOT
ATOM      1  N1  UNL     1      16.218  11.572  37.280  0.00  0.00    -0.276 N 
ATOM      2  C6  UNL     1      16.992  10.640  36.508  0.00  0.00    +0.303 C 
ATOM      3  O2  UNL     1      16.590  10.279  35.369  0.00  0.00    -0.265 OA
ATOM      4  H5  UNL     1      16.399  11.644  38.307  0.00  0.00    +0.155 HD
ENDROOT
BRANCH   1   9
ATOM      5  C2  UNL     1      12.695  13.436  35.792  0.00  0.00    +0.124 A 
ATOM      6  C3  UNL     1      13.963  13.915  35.408  0.00  0.00    +0.067 A 
ATOM      7  C4  UNL     1      15.130  13.316  35.893  0.00  0.00    +0.066 A 
ATOM      8 CL1  UNL     1      16.681  14.022  35.454  0.00  0.00    -0.082 Cl
ATOM      9  C5  UNL     1      15.043  12.213  36.763  0.00  0.00    +0.053 A 
ATOM     10  C13 UNL     1      13.784  11.752  37.167  0.00  0.00    +0.031 A 
ATOM     11  C14 UNL     1      12.611  12.350  36.683  0.00  0.00    -0.007 A 
ATOM     12  C15 UNL     1      11.268  11.830  37.114  0.00  0.00    +0.047 C 
BRANCH   5  14
ATOM     13  C1  UNL     1      11.184  14.182  33.939  0.00  0.00    +0.277 C 
ATOM     14  O1  UNL     1      11.508  14.016  35.315  0.00  0.00    -0.495 OA
ENDBRANCH   5  14
ENDBRANCH   1   9
BRANCH   2  15
ATOM     15  C7  UNL     1      18.246  10.082  37.049  0.00  0.00    +0.300 C 
ATOM     16  O3  UNL     1      18.460  10.126  38.291  0.00  0.00    -0.265 OA
ATOM     17  N2  UNL     1      19.226   9.501  36.173  0.00  0.00    -0.303 N 
ATOM     18  H6  UNL     1      19.060   9.537  35.141  0.00  0.00    +0.149 HD
BRANCH  17  19
ATOM     19  C8  UNL     1      20.468   8.906  36.676  0.00  0.00    +0.091 C 
ATOM     20  C9  UNL     1      20.222   7.450  37.106  0.00  0.00    +0.033 C 
ATOM     21  C10 UNL     1      21.481   6.845  37.736  0.00  0.00    +0.097 C 
ATOM     22  C11 UNL     1      22.698   7.098  36.894  0.00  0.00    +0.213 C 
ATOM     23  O4  UNL     1      23.703   6.347  37.016  0.00  0.00    -0.276 OA
ATOM     24  N3  UNL     1      22.763   8.233  36.022  0.00  0.00    -0.314 N 
ATOM     25  C12 UNL     1      21.559   8.946  35.592  0.00  0.00    +0.126 C 
ATOM     26  H12 UNL     1      23.654   8.421  35.511  0.00  0.00    +0.149 HD
ENDBRANCH  17  19
ENDBRANCH   2  15
TORSDOF 4
ENDMDL
MODEL 2
REMARK VINA RESULT:    -5.838     15.234     15.910
REMARK INTER + INTRA:          -7.649
REMARK INTER:                  -7.194
REMARK INTRA:                  -0.454
REMARK UNBOUND:                -0.445
REMARK  Name = /home/qwerty/github/datacon2025hack/step_04_hit_selection/docking/ligands/lig_813.pdb
REMARK  6 active torsions:
REMARK  status: ('A' for Active; 'I' for Inactive)
REMARK    1  A    between atoms: C1_1  and  O1_2
REMARK    2  A    between atoms: O1_2  and  C2_3
REMARK    3  A    between atoms: C5_7  and  N1_8
REMARK    4  A    between atoms: C6_9  and  C7_11
REMARK    5  A    between atoms: N2_13  and  C8_14
REMARK    6  A    between atoms: C14_22  and  C15_23
REMARK                            x       y       z     vdW  Elec       q    Type
REMARK                         _______ _______ _______ _____ _____    ______ ____
ROOT
ATOM      1  N1  UNL     1      10.244  -0.938  28.240  0.00  0.00    -0.276 N 
ATOM      2  C6  UNL     1      11.235   0.097  28.132  0.00  0.00    +0.303 C 
ATOM      3  O2  UNL     1      11.164   1.117  28.870  0.00  0.00    -0.265 OA
ATOM      4  H5  UNL     1      10.145  -1.621  27.455  0.00  0.00    +0.155 HD
ENDROOT
BRANCH   1   9
ATOM      5  C2  UNL     1       7.246  -0.913  31.259  0.00  0.00    +0.124 A 
ATOM      6  C3  UNL     1       7.033  -0.226  30.047  0.00  0.00    +0.067 A 
ATOM      7  C4  UNL     1       8.012  -0.221  29.048  0.00  0.00    +0.066 A 
ATOM      8 CL1  UNL     1       7.725   0.735  27.598  0.00  0.00    -0.082 Cl
ATOM      9  C5  UNL     1       9.218  -0.920  29.243  0.00  0.00    +0.053 A 
ATOM     10  C13 UNL     1       9.443  -1.580  30.457  0.00  0.00    +0.031 A 
ATOM     11  C14 UNL     1       8.464  -1.588  31.462  0.00  0.00    -0.007 A 
ATOM     12  C15 UNL     1       8.716  -2.317  32.752  0.00  0.00    +0.047 C 
BRANCH   5  14
ATOM     13  C1  UNL     1       5.826   0.208  32.991  0.00  0.00    +0.277 C 
ATOM     14  O1  UNL     1       6.279  -0.938  32.277  0.00  0.00    -0.495 OA
ENDBRANCH   5  14
ENDBRANCH   1   9
BRANCH   2  15
ATOM     15  C7  UNL     1      12.327  -0.016  27.147  0.00  0.00    +0.300 C 
ATOM     16  O3  UNL     1      12.698   1.009  26.511  0.00  0.00    -0.265 OA
ATOM     17  N2  UNL     1      12.962  -1.282  26.899  0.00  0.00    -0.303 N 
ATOM     18  H6  UNL     1      12.594  -2.131  27.386  0.00  0.00    +0.149 HD
BRANCH  17  19
ATOM     19  C8  UNL     1      14.073  -1.426  25.953  0.00  0.00    +0.091 C 
ATOM     20  C9  UNL     1      15.392  -0.988  26.613  0.00  0.00    +0.033 C 
ATOM     21  C10 UNL     1      16.547  -1.028  25.607  0.00  0.00    +0.097 C 
ATOM     22  C11 UNL     1      16.576  -2.323  24.848  0.00  0.00    +0.213 C 
ATOM     23  O4  UNL     1      17.652  -2.704  24.313  0.00  0.00    -0.276 OA
ATOM     24  N3  UNL     1      15.377  -3.084  24.650  0.00  0.00    -0.314 N 
ATOM     25  C12 UNL     1      14.192  -2.887  25.484  0.00  0.00    +0.126 C 
ATOM     26  H12 UNL     1      15.420  -3.938  24.051  0.00  0.00    +0.149 HD
ENDBRANCH  17  19
ENDBRANCH   2  15
TORSDOF 4
ENDMDL
MODEL 3
REMARK VINA RESULT:    -5.694     15.644     18.198
REMARK INTER + INTRA:          -7.470
REMARK INTER:                  -6.966
REMARK INTRA:                  -0.504
REMARK UNBOUND:                -0.445
REMARK  Name = /home/qwerty/github/datacon2025hack/step_04_hit_selection/docking/ligands/lig_813.pdb
REMARK  6 active torsions:
REMARK  status: ('A' for Active; 'I' for Inactive)
REMARK    1  A    between atoms: C1_1  and  O1_2
REMARK    2  A    between atoms: O1_2  and  C2_3
REMARK    3  A    between atoms: C5_7  and  N1_8
REMARK    4  A    between atoms: C6_9  and  C7_11
REMARK    5  A    between atoms: N2_13  and  C8_14
REMARK    6  A    between atoms: C14_22  and  C15_23
REMARK                            x       y       z     vdW  Elec       q    Type
REMARK                         _______ _______ _______ _____ _____    ______ ____
ROOT
ATOM      1  N1  UNL     1      16.269   9.658  19.866  0.00  0.00    -0.276 N 
ATOM      2  C6  UNL     1      15.929   9.137  21.161  0.00  0.00    +0.303 C 
ATOM      3  O2  UNL     1      16.830   8.957  22.024  0.00  0.00    -0.265 OA
ATOM      4  H5  UNL     1      15.589   9.538  19.082  0.00  0.00    +0.155 HD
ENDROOT
BRANCH   1   9
ATOM      5  C2  UNL     1      20.185  11.027  18.921  0.00  0.00    +0.124 A 
ATOM      6  C3  UNL     1      19.859   9.664  18.773  0.00  0.00    +0.067 A 
ATOM      7  C4  UNL     1      18.577   9.199  19.085  0.00  0.00    +0.066 A 
ATOM      8 CL1  UNL     1      18.262   7.471  18.973  0.00  0.00    -0.082 Cl
ATOM      9  C5  UNL     1      17.595  10.099  19.538  0.00  0.00    +0.053 A 
ATOM     10  C13 UNL     1      17.925  11.449  19.711  0.00  0.00    +0.031 A 
ATOM     11  C14 UNL     1      19.209  11.920  19.399  0.00  0.00    -0.007 A 
ATOM     12  C15 UNL     1      19.539  13.376  19.574  0.00  0.00    +0.047 C 
BRANCH   5  14
ATOM     13  C1  UNL     1      22.675  11.056  19.197  0.00  0.00    +0.277 C 
ATOM     14  O1  UNL     1      21.463  11.521  18.611  0.00  0.00    -0.495 OA
ENDBRANCH   5  14
ENDBRANCH   1   9
BRANCH   2  15
ATOM     15  C7  UNL     1      14.532   8.787  21.481  0.00  0.00    +0.300 C 
ATOM     16  O3  UNL     1      14.294   7.792  22.218  0.00  0.00    -0.265 OA
ATOM     17  N2  UNL     1      13.444   9.564  20.951  0.00  0.00    -0.303 N 
ATOM     18  H6  UNL     1      13.660  10.342  20.287  0.00  0.00    +0.149 HD
BRANCH  17  19
ATOM     19  C8  UNL     1      12.044   9.269  21.274  0.00  0.00    +0.091 C 
ATOM     20  C9  UNL     1      11.441  10.410  22.110  0.00  0.00    +0.033 C 
ATOM     21  C10 UNL     1      10.014  10.071  22.551  0.00  0.00    +0.097 C 
ATOM     22  C11 UNL     1       9.184   9.572  21.404  0.00  0.00    +0.213 C 
ATOM     23  O4  UNL     1       7.927   9.648  21.467  0.00  0.00    -0.276 OA
ATOM     24  N3  UNL     1       9.799   8.929  20.280  0.00  0.00    -0.314 N 
ATOM     25  C12 UNL     1      11.223   9.084  19.986  0.00  0.00    +0.126 C 
ATOM     26  H12 UNL     1       9.186   8.524  19.538  0.00  0.00    +0.149 HD
ENDBRANCH  17  19
ENDBRANCH   2  15
TORSDOF 4
ENDMDL
MODEL 4
REMARK VINA RESULT:    -5.654     16.649     17.388
REMARK INTER + INTRA:          -7.421
REMARK INTER:                  -6.942
REMARK INTRA:                  -0.479
REMARK UNBOUND:                -0.445
REMARK  Name = /home/qwerty/github/datacon2025hack/step_04_hit_selection/docking/ligands/lig_813.pdb
REMARK  6 active torsions:
REMARK  status: ('A' for Active; 'I' for Inactive)
REMARK    1  A    between atoms: C1_1  and  O1_2
REMARK    2  A    between atoms: O1_2  and  C2_3
REMARK    3  A    between atoms: C5_7  and  N1_8
REMARK    4  A    between atoms: C6_9  and  C7_11
REMARK    5  A    between atoms: N2_13  and  C8_14
REMARK    6  A    between atoms: C14_22  and  C15_23
REMARK                            x       y       z     vdW  Elec       q    Type
REMARK                         _______ _______ _______ _____ _____    ______ ____
ROOT
ATOM      1  N1  UNL     1      10.892   5.443  20.391  0.00  0.00    -0.276 N 
ATOM      2  C6  UNL     1      11.676   4.805  21.412  0.00  0.00    +0.303 C 
ATOM      3  O2  UNL     1      11.952   5.425  22.474  0.00  0.00    -0.265 OA
ATOM      4  H5  UNL     1      10.909   5.045  19.425  0.00  0.00    +0.155 HD
ENDROOT
BRANCH   1   9
ATOM      5  C2  UNL     1       9.188   9.310  20.881  0.00  0.00    +0.124 A 
ATOM      6  C3  UNL     1       8.491   8.170  21.328  0.00  0.00    +0.067 A 
ATOM      7  C4  UNL     1       9.037   6.892  21.169  0.00  0.00    +0.066 A 
ATOM      8 CL1  UNL     1       8.074   5.503  21.658  0.00  0.00    -0.082 Cl
ATOM      9  C5  UNL     1      10.301   6.738  20.570  0.00  0.00    +0.053 A 
ATOM     10  C13 UNL     1      10.983   7.867  20.101  0.00  0.00    +0.031 A 
ATOM     11  C14 UNL     1      10.441   9.151  20.258  0.00  0.00    -0.007 A 
ATOM     12  C15 UNL     1      11.196  10.353  19.765  0.00  0.00    +0.047 C 
BRANCH   5  14
ATOM     13  C1  UNL     1       7.797  11.009  22.086  0.00  0.00    +0.277 C 
ATOM     14  O1  UNL     1       8.665  10.605  21.032  0.00  0.00    -0.495 OA
ENDBRANCH   5  14
ENDBRANCH   1   9
BRANCH   2  15
ATOM     15  C7  UNL     1      12.181   3.432  21.217  0.00  0.00    +0.300 C 
ATOM     16  O3  UNL     1      11.390   2.528  20.835  0.00  0.00    -0.265 OA
ATOM     17  N2  UNL     1      13.561   3.118  21.469  0.00  0.00    -0.303 N 
ATOM     18  H6  UNL     1      14.184   3.866  21.851  0.00  0.00    +0.149 HD
BRANCH  17  19
ATOM     19  C8  UNL     1      14.108   1.774  21.255  0.00  0.00    +0.091 C 
ATOM     20  C9  UNL     1      15.585   1.864  20.833  0.00  0.00    +0.033 C 
ATOM     21  C10 UNL     1      16.143   0.478  20.498  0.00  0.00    +0.097 C 
ATOM     22  C11 UNL     1      15.811  -0.526  21.564  0.00  0.00    +0.213 C 
ATOM     23  O4  UNL     1      16.515  -1.566  21.678  0.00  0.00    -0.276 OA
ATOM     24  N3  UNL     1      14.652  -0.360  22.391  0.00  0.00    -0.314 N 
ATOM     25  C12 UNL     1      13.988   0.935  22.538  0.00  0.00    +0.126 C 
ATOM     26  H12 UNL     1      14.409  -1.117  23.067  0.00  0.00    +0.149 HD
ENDBRANCH  17  19
ENDBRANCH   2  15
TORSDOF 4
ENDMDL
MODEL 5
REMARK VINA RESULT:    -5.650      7.004     11.442
REMARK INTER + INTRA:          -7.417
REMARK INTER:                  -6.917
REMARK INTRA:                  -0.499
REMARK UNBOUND:                -0.445
REMARK  Name = /home/qwerty/github/datacon2025hack/step_04_hit_selection/docking/ligands/lig_813.pdb
REMARK  6 active torsions:
REMARK  status: ('A' for Active; 'I' for Inactive)
REMARK    1  A    between atoms: C1_1  and  O1_2
REMARK    2  A    between atoms: O1_2  and  C2_3
REMARK    3  A    between atoms: C5_7  and  N1_8
REMARK    4  A    between atoms: C6_9  and  C7_11
REMARK    5  A    between atoms: N2_13  and  C8_14
REMARK    6  A    between atoms: C14_22  and  C15_23
REMARK                            x       y       z     vdW  Elec       q    Type
REMARK                         _______ _______ _______ _____ _____    ______ ____
ROOT
ATOM      1  N1  UNL     1      20.948   4.399  31.662  0.00  0.00    -0.276 N 
ATOM      2  C6  UNL     1      21.922   5.023  32.513  0.00  0.00    +0.303 C 
ATOM      3  O2  UNL     1      23.054   4.491  32.669  0.00  0.00    -0.265 OA
ATOM      4  H5  UNL     1      19.945   4.678  31.759  0.00  0.00    +0.155 HD
ENDROOT
BRANCH   1   9
ATOM      5  C2  UNL     1      21.855   0.990  29.284  0.00  0.00    +0.124 A 
ATOM      6  C3  UNL     1      21.391   0.826  30.604  0.00  0.00    +0.067 A 
ATOM      7  C4  UNL     1      21.094   1.938  31.399  0.00  0.00    +0.066 A 
ATOM      8 CL1  UNL     1      20.613   1.668  33.070  0.00  0.00    -0.082 Cl
ATOM      9  C5  UNL     1      21.244   3.235  30.876  0.00  0.00    +0.053 A 
ATOM     10  C13 UNL     1      21.731   3.401  29.573  0.00  0.00    +0.031 A 
ATOM     11  C14 UNL     1      22.030   2.289  28.772  0.00  0.00    -0.007 A 
ATOM     12  C15 UNL     1      22.534   2.486  27.370  0.00  0.00    +0.047 C 
BRANCH   5  14
ATOM     13  C1  UNL     1      23.065  -1.151  28.806  0.00  0.00    +0.277 C 
ATOM     14  O1  UNL     1      22.157  -0.109  28.463  0.00  0.00    -0.495 OA
ENDBRANCH   5  14
ENDBRANCH   1   9
BRANCH   2  15
ATOM     15  C7  UNL     1      21.599   6.273  33.226  0.00  0.00    +0.300 C 
ATOM     16  O3  UNL     1      21.709   7.377  32.626  0.00  0.00    -0.265 OA
ATOM     17  N2  UNL     1      21.171   6.243  34.598  0.00  0.00    -0.303 N 
ATOM     18  H6  UNL     1      21.152   5.324  35.098  0.00  0.00    +0.149 HD
BRANCH  17  19
ATOM     19  C8  UNL     1      20.808   7.461  35.330  0.00  0.00    +0.091 C 
ATOM     20  C9  UNL     1      19.298   7.724  35.206  0.00  0.00    +0.033 C 
ATOM     21  C10 UNL     1      18.916   9.050  35.871  0.00  0.00    +0.097 C 
ATOM     22  C11 UNL     1      19.505   9.169  37.247  0.00  0.00    +0.213 C 
ATOM     23  O4  UNL     1      18.978   9.953  38.082  0.00  0.00    -0.276 OA
ATOM     24  N3  UNL     1      20.709   8.472  37.591  0.00  0.00    -0.314 N 
ATOM     25  C12 UNL     1      21.187   7.328  36.815  0.00  0.00    +0.126 C 
ATOM     26  H12 UNL     1      21.133   8.640  38.531  0.00  0.00    +0.149 HD
ENDBRANCH  17  19
ENDBRANCH   2  15
TORSDOF 4
ENDMDL
MODEL 6
REMARK VINA RESULT:    -5.603     16.472     18.937
REMARK INTER + INTRA:          -7.358
REMARK INTER:                  -6.882
REMARK INTRA:                  -0.476
REMARK UNBOUND:                -0.445
REMARK  Name = /home/qwerty/github/datacon2025hack/step_04_hit_selection/docking/ligands/lig_813.pdb
REMARK  6 active torsions:
REMARK  status: ('A' for Active; 'I' for Inactive)
REMARK    1  A    between atoms: C1_1  and  O1_2
REMARK    2  A    between atoms: O1_2  and  C2_3
REMARK    3  A    between atoms: C5_7  and  N1_8
REMARK    4  A    between atoms: C6_9  and  C7_11
REMARK    5  A    between atoms: N2_13  and  C8_14
REMARK    6  A    between atoms: C14_22  and  C15_23
REMARK                            x       y       z     vdW  Elec       q    Type
REMARK                         _______ _______ _______ _____ _____    ______ ____
ROOT
ATOM      1  N1  UNL     1      12.477   1.674  23.262  0.00  0.00    -0.276 N 
ATOM      2  C6  UNL     1      11.152   1.487  22.738  0.00  0.00    +0.303 C 
ATOM      3  O2  UNL     1      10.743   0.327  22.459  0.00  0.00    -0.265 OA
ATOM      4  H5  UNL     1      12.902   2.627  23.221  0.00  0.00    +0.155 HD
ENDROOT
BRANCH   1   9
ATOM      5  C2  UNL     1      14.984  -1.601  24.307  0.00  0.00    +0.124 A 
ATOM      6  C3  UNL     1      15.119  -0.982  23.049  0.00  0.00    +0.067 A 
ATOM      7  C4  UNL     1      14.298   0.092  22.689  0.00  0.00    +0.066 A 
ATOM      8 CL1  UNL     1      14.450   0.757  21.067  0.00  0.00    -0.082 Cl
ATOM      9  C5  UNL     1      13.336   0.573  23.596  0.00  0.00    +0.053 A 
ATOM     10  C13 UNL     1      13.181  -0.057  24.836  0.00  0.00    +0.031 A 
ATOM     11  C14 UNL     1      14.002  -1.135  25.202  0.00  0.00    -0.007 A 
ATOM     12  C15 UNL     1      13.835  -1.787  26.545  0.00  0.00    +0.047 C 
BRANCH   5  14
ATOM     13  C1  UNL     1      17.213  -2.718  24.544  0.00  0.00    +0.277 C 
ATOM     14  O1  UNL     1      15.798  -2.678  24.695  0.00  0.00    -0.495 OA
ENDBRANCH   5  14
ENDBRANCH   1   9
BRANCH   2  15
ATOM     15  C7  UNL     1      10.272   2.647  22.501  0.00  0.00    +0.300 C 
ATOM     16  O3  UNL     1       9.108   2.652  22.987  0.00  0.00    -0.265 OA
ATOM     17  N2  UNL     1      10.727   3.762  21.716  0.00  0.00    -0.303 N 
ATOM     18  H6  UNL     1      11.670   3.707  21.266  0.00  0.00    +0.149 HD
BRANCH  17  19
ATOM     19  C8  UNL     1       9.894   4.948  21.488  0.00  0.00    +0.091 C 
ATOM     20  C9  UNL     1      10.072   5.950  22.641  0.00  0.00    +0.033 C 
ATOM     21  C10 UNL     1       9.129   7.146  22.477  0.00  0.00    +0.097 C 
ATOM     22  C11 UNL     1       9.185   7.709  21.087  0.00  0.00    +0.213 C 
ATOM     23  O4  UNL     1       8.827   8.900  20.885  0.00  0.00    -0.276 OA
ATOM     24  N3  UNL     1       9.554   6.882  19.976  0.00  0.00    -0.314 N 
ATOM     25  C12 UNL     1      10.272   5.621  20.158  0.00  0.00    +0.126 C 
ATOM     26  H12 UNL     1       9.506   7.286  19.014  0.00  0.00    +0.149 HD
ENDBRANCH  17  19
ENDBRANCH   2  15
TORSDOF 4
ENDMDL
MODEL 7
REMARK VINA RESULT:    -5.569      2.933      9.428
REMARK INTER + INTRA:          -7.316
REMARK INTER:                  -6.838
REMARK INTRA:                  -0.478
REMARK UNBOUND:                -0.445
REMARK  Name = /home/qwerty/github/datacon2025hack/step_04_hit_selection/docking/ligands/lig_813.pdb
REMARK  6 active torsions:
REMARK  status: ('A' for Active; 'I' for Inactive)
REMARK    1  A    between atoms: C1_1  and  O1_2
REMARK    2  A    between atoms: O1_2  and  C2_3
REMARK    3  A    between atoms: C5_7  and  N1_8
REMARK    4  A    between atoms: C6_9  and  C7_11
REMARK    5  A    between atoms: N2_13  and  C8_14
REMARK    6  A    between atoms: C14_22  and  C15_23
REMARK                            x       y       z     vdW  Elec       q    Type
REMARK                         _______ _______ _______ _____ _____    ______ ____
ROOT
ATOM      1  N1  UNL     1      19.789  10.589  34.436  0.00  0.00    -0.276 N 
ATOM      2  C6  UNL     1      19.791  11.885  35.055  0.00  0.00    +0.303 C 
ATOM      3  O2  UNL     1      20.852  12.339  35.562  0.00  0.00    -0.265 OA
ATOM      4  H5  UNL     1      18.874  10.109  34.280  0.00  0.00    +0.155 HD
ENDROOT
BRANCH   1   9
ATOM      5  C2  UNL     1      23.352   8.335  33.867  0.00  0.00    +0.124 A 
ATOM      6  C3  UNL     1      22.617   8.202  35.062  0.00  0.00    +0.067 A 
ATOM      7  C4  UNL     1      21.446   8.941  35.265  0.00  0.00    +0.066 A 
ATOM      8 CL1  UNL     1      20.627   8.804  36.816  0.00  0.00    -0.082 Cl
ATOM      9  C5  UNL     1      20.986   9.816  34.263  0.00  0.00    +0.053 A 
ATOM     10  C13 UNL     1      21.729   9.969  33.087  0.00  0.00    +0.031 A 
ATOM     11  C14 UNL     1      22.904   9.231  32.878  0.00  0.00    -0.007 A 
ATOM     12  C15 UNL     1      23.680   9.395  31.602  0.00  0.00    +0.047 C 
BRANCH   5  14
ATOM     13  C1  UNL     1      24.575   6.197  33.413  0.00  0.00    +0.277 C 
ATOM     14  O1  UNL     1      24.528   7.602  33.636  0.00  0.00    -0.495 OA
ENDBRANCH   5  14
ENDBRANCH   1   9
BRANCH   2  15
ATOM     15  C7  UNL     1      18.551  12.682  35.123  0.00  0.00    +0.300 C 
ATOM     16  O3  UNL     1      18.491  13.789  34.522  0.00  0.00    -0.265 OA
ATOM     17  N2  UNL     1      17.419  12.212  35.874  0.00  0.00    -0.303 N 
ATOM     18  H6  UNL     1      17.513  11.325  36.421  0.00  0.00    +0.149 HD
BRANCH  17  19
ATOM     19  C8  UNL     1      16.158  12.958  35.937  0.00  0.00    +0.091 C 
ATOM     20  C9  UNL     1      15.288  12.634  34.710  0.00  0.00    +0.033 C 
ATOM     21  C10 UNL     1      14.016  13.486  34.701  0.00  0.00    +0.097 C 
ATOM     22  C11 UNL     1      13.326  13.467  36.034  0.00  0.00    +0.213 C 
ATOM     23  O4  UNL     1      12.097  13.739  36.101  0.00  0.00    -0.276 OA
ATOM     24  N3  UNL     1      14.067  13.231  37.239  0.00  0.00    -0.314 N 
ATOM     25  C12 UNL     1      15.389  12.607  37.221  0.00  0.00    +0.126 C 
ATOM     26  H12 UNL     1      13.569  13.303  38.154  0.00  0.00    +0.149 HD
ENDBRANCH  17  19
ENDBRANCH   2  15
TORSDOF 4
ENDMDL
MODEL 8
REMARK VINA RESULT:    -5.519     12.360     14.762
REMARK INTER + INTRA:          -7.255
REMARK INTER:                  -6.757
REMARK INTRA:                  -0.497
REMARK UNBOUND:                -0.445
REMARK  Name = /home/qwerty/github/datacon2025hack/step_04_hit_selection/docking/ligands/lig_813.pdb
REMARK  6 active torsions:
REMARK  status: ('A' for Active; 'I' for Inactive)
REMARK    1  A    between atoms: C1_1  and  O1_2
REMARK    2  A    between atoms: O1_2  and  C2_3
REMARK    3  A    between atoms: C5_7  and  N1_8
REMARK    4  A    between atoms: C6_9  and  C7_11
REMARK    5  A    between atoms: N2_13  and  C8_14
REMARK    6  A    between atoms: C14_22  and  C15_23
REMARK                            x       y       z     vdW  Elec       q    Type
REMARK                         _______ _______ _______ _____ _____    ______ ____
ROOT
ATOM      1  N1  UNL     1      20.889   4.581  25.182  0.00  0.00    -0.276 N 
ATOM      2  C6  UNL     1      21.587   3.514  25.844  0.00  0.00    +0.303 C 
ATOM      3  O2  UNL     1      22.379   2.780  25.193  0.00  0.00    -0.265 OA
ATOM      4  H5  UNL     1      20.045   4.990  25.643  0.00  0.00    +0.155 HD
ENDROOT
BRANCH   1   9
ATOM      5  C2  UNL     1      21.684   5.652  21.143  0.00  0.00    +0.124 A 
ATOM      6  C3  UNL     1      20.656   4.737  21.440  0.00  0.00    +0.067 A 
ATOM      7  C4  UNL     1      20.387   4.371  22.764  0.00  0.00    +0.066 A 
ATOM      8 CL1  UNL     1      19.155   3.150  23.062  0.00  0.00    -0.082 Cl
ATOM      9  C5  UNL     1      21.138   4.932  23.813  0.00  0.00    +0.053 A 
ATOM     10  C13 UNL     1      22.178   5.821  23.518  0.00  0.00    +0.031 A 
ATOM     11  C14 UNL     1      22.452   6.191  22.192  0.00  0.00    -0.007 A 
ATOM     12  C15 UNL     1      23.560   7.162  21.895  0.00  0.00    +0.047 C 
BRANCH   5  14
ATOM     13  C1  UNL     1      21.119   6.838  19.010  0.00  0.00    +0.277 C 
ATOM     14  O1  UNL     1      21.972   6.040  19.823  0.00  0.00    -0.495 OA
ENDBRANCH   5  14
ENDBRANCH   1   9
BRANCH   2  15
ATOM     15  C7  UNL     1      21.367   3.255  27.280  0.00  0.00    +0.300 C 
ATOM     16  O3  UNL     1      21.758   4.100  28.130  0.00  0.00    -0.265 OA
ATOM     17  N2  UNL     1      20.722   2.046  27.714  0.00  0.00    -0.303 N 
ATOM     18  H6  UNL     1      20.468   1.328  26.998  0.00  0.00    +0.149 HD
BRANCH  17  19
ATOM     19  C8  UNL     1      20.455   1.769  29.129  0.00  0.00    +0.091 C 
ATOM     20  C9  UNL     1      18.961   1.467  29.338  0.00  0.00    +0.033 C 
ATOM     21  C10 UNL     1      18.641   1.283  30.824  0.00  0.00    +0.097 C 
ATOM     22  C11 UNL     1      19.611   0.348  31.488  0.00  0.00    +0.213 C 
ATOM     23  O4  UNL     1      19.277  -0.241  32.551  0.00  0.00    -0.276 OA
ATOM     24  N3  UNL     1      20.941   0.189  30.977  0.00  0.00    -0.314 N 
ATOM     25  C12 UNL     1      21.293   0.572  29.610  0.00  0.00    +0.126 C 
ATOM     26  H12 UNL     1      21.612  -0.408  31.508  0.00  0.00    +0.149 HD
ENDBRANCH  17  19
ENDBRANCH   2  15
TORSDOF 4
ENDMDL
MODEL 9
REMARK VINA RESULT:    -5.471      1.999      2.424
REMARK INTER + INTRA:          -7.195
REMARK INTER:                  -6.708
REMARK INTRA:                  -0.487
REMARK UNBOUND:                -0.445
REMARK  Name = /home/qwerty/github/datacon2025hack/step_04_hit_selection/docking/ligands/lig_813.pdb
REMARK  6 active torsions:
REMARK  status: ('A' for Active; 'I' for Inactive)
REMARK    1  A    between atoms: C1_1  and  O1_2
REMARK    2  A    between atoms: O1_2  and  C2_3
REMARK    3  A    between atoms: C5_7  and  N1_8
REMARK    4  A    between atoms: C6_9  and  C7_11
REMARK    5  A    between atoms: N2_13  and  C8_14
REMARK    6  A    between atoms: C14_22  and  C15_23
REMARK                            x       y       z     vdW  Elec       q    Type
REMARK                         _______ _______ _______ _____ _____    ______ ____
ROOT
ATOM      1  N1  UNL     1      15.024  10.375  37.157  0.00  0.00    -0.276 N 
ATOM      2  C6  UNL     1      15.894   9.755  36.197  0.00  0.00    +0.303 C 
ATOM      3  O2  UNL     1      15.726   9.967  34.966  0.00  0.00    -0.265 OA
ATOM      4  H5  UNL     1      14.985   9.983  38.125  0.00  0.00    +0.155 HD
ENDROOT
BRANCH   1   9
ATOM      5  C2  UNL     1      12.101  13.259  36.045  0.00  0.00    +0.124 A 
ATOM      6  C3  UNL     1      11.760  11.893  36.097  0.00  0.00    +0.067 A 
ATOM      7  C4  UNL     1      12.712  10.933  36.455  0.00  0.00    +0.066 A 
ATOM      8 CL1  UNL     1      12.251   9.236  36.406  0.00  0.00    -0.082 Cl
ATOM      9  C5  UNL     1      14.021  11.332  36.784  0.00  0.00    +0.053 A 
ATOM     10  C13 UNL     1      14.369  12.686  36.707  0.00  0.00    +0.031 A 
ATOM     11  C14 UNL     1      13.418  13.652  36.348  0.00  0.00    -0.007 A 
ATOM     12  C15 UNL     1      13.805  15.104  36.289  0.00  0.00    +0.047 C 
BRANCH   5  14
ATOM     13  C1  UNL     1       9.773  14.181  35.991  0.00  0.00    +0.277 C 
ATOM     14  O1  UNL     1      11.163  14.244  35.693  0.00  0.00    -0.495 OA
ENDBRANCH   5  14
ENDBRANCH   1   9
BRANCH   2  15
ATOM     15  C7  UNL     1      16.973   8.852  36.641  0.00  0.00    +0.300 C 
ATOM     16  O3  UNL     1      16.751   8.030  37.571  0.00  0.00    -0.265 OA
ATOM     17  N2  UNL     1      18.273   8.909  36.030  0.00  0.00    -0.303 N 
ATOM     18  H6  UNL     1      18.455   9.644  35.308  0.00  0.00    +0.149 HD
BRANCH  17  19
ATOM     19  C8  UNL     1      19.360   8.005  36.419  0.00  0.00    +0.091 C 
ATOM     20  C9  UNL     1      20.190   7.612  35.186  0.00  0.00    +0.033 C 
ATOM     21  C10 UNL     1      21.263   6.582  35.554  0.00  0.00    +0.097 C 
ATOM     22  C11 UNL     1      22.033   6.996  36.775  0.00  0.00    +0.213 C 
ATOM     23  O4  UNL     1      23.183   6.522  36.973  0.00  0.00    -0.276 OA
ATOM     24  N3  UNL     1      21.439   7.851  37.760  0.00  0.00    -0.314 N 
ATOM     25  C12 UNL     1      20.270   8.678  37.461  0.00  0.00    +0.126 C 
ATOM     26  H12 UNL     1      21.974   8.054  38.634  0.00  0.00    +0.149 HD
ENDBRANCH  17  19
ENDBRANCH   2  15
TORSDOF 4
ENDMDL
