REMARK  Name = /home/qwerty/github/datacon2025hack/step_04_hit_selection/docking/ligands/lig_723.pdb
REMARK  7 active torsions:
REMARK  status: ('A' for Active; 'I' for Inactive)
REMARK    1  A    between atoms: C1_1  and  C2_2
REMARK    2  A    between atoms: C2_2  and  C3_3
REMARK    3  A    between atoms: C2_2  and  N1_4
REMARK    4  A    between atoms: C4_5  and  C5_7
REMARK    5  A    between atoms: C9_14  and  C10_15
REMARK    6  A    between atoms: N5_22  and  C17_23
REMARK    7  A    between atoms: C17_23  and  C18_24
REMARK                            x       y       z     vdW  Elec       q    Type
REMARK                         _______ _______ _______ _____ _____    ______ ____
ROOT
ATOM      1  C5  UNL     1      -1.565  -1.521  -0.177  0.00  0.00    +0.221 A 
ATOM      2  N2  UNL     1      -1.183  -2.417   0.754  0.00  0.00    -0.123 NA
ATOM      3  N3  UNL     1      -0.022  -2.010   1.239  0.00  0.00    -0.113 NA
ATOM      4  C6  UNL     1       0.303  -0.876   0.591  0.00  0.00    +0.220 A 
ATOM      5  N4  UNL     1       1.464  -0.098   0.944  0.00  0.00    -0.299 N 
ATOM      6  C7  UNL     1       2.103  -0.246   2.241  0.00  0.00    +0.108 C 
ATOM      7  C8  UNL     1       3.340   0.641   2.205  0.00  0.00    +0.028 C 
ATOM      8  C9  UNL     1       3.590   0.962   0.727  0.00  0.00    +0.038 C 
ATOM      9  C16 UNL     1       2.259   0.690   0.016  0.00  0.00    +0.116 C 
ATOM     10  N5  UNL     1      -0.643  -0.533  -0.320  0.00  0.00    -0.287 N 
ENDROOT
BRANCH   8  11
ATOM     11  C10 UNL     1       4.734   0.134   0.164  0.00  0.00    -0.043 A 
ATOM     12  C11 UNL     1       5.942   0.763  -0.191  0.00  0.00    +0.004 A 
ATOM     13  C12 UNL     1       7.015   0.013  -0.682  0.00  0.00    +0.000 A 
ATOM     14  C13 UNL     1       6.896  -1.373  -0.820  0.00  0.00    +0.000 A 
ATOM     15  C14 UNL     1       5.705  -2.011  -0.464  0.00  0.00    +0.000 A 
ATOM     16  C15 UNL     1       4.630  -1.265   0.030  0.00  0.00    +0.004 A 
ENDBRANCH   8  11
BRANCH   1  18
ATOM     17  N1  UNL     1      -3.564  -2.875  -0.909  0.00  0.00    -0.306 N 
ATOM     18  C4  UNL     1      -2.875  -1.616  -0.860  0.00  0.00    +0.282 C 
ATOM     19  O1  UNL     1      -3.408  -0.593  -1.366  0.00  0.00    -0.267 OA
ATOM     20  H8  UNL     1      -3.069  -3.728  -0.561  0.00  0.00    +0.149 HD
BRANCH  17  22
ATOM     21  C1  UNL     1      -5.209  -4.475  -1.802  0.00  0.00    +0.027 C 
ATOM     22  C2  UNL     1      -4.912  -3.009  -1.472  0.00  0.00    +0.067 C 
ATOM     23  C3  UNL     1      -5.948  -2.461  -0.486  0.00  0.00    +0.027 C 
ENDBRANCH  17  22
ENDBRANCH   1  18
BRANCH  10  24
ATOM     24  C17 UNL     1      -0.702   0.656  -1.182  0.00  0.00    +0.157 C 
BRANCH  24  25
ATOM     25  C18 UNL     1      -1.055   1.905  -0.401  0.00  0.00    -0.054 C 
ATOM     26  C19 UNL     1      -0.667   3.102  -0.893  0.00  0.00    -0.026 C 
ATOM     27  C20 UNL     1      -0.958   4.411  -0.201  0.00  0.00    +0.027 C 
ATOM     28  C21 UNL     1      -2.177   4.326   0.719  0.00  0.00    +0.004 C 
ATOM     29  C22 UNL     1      -2.072   3.092   1.611  0.00  0.00    +0.005 C 
ATOM     30  C23 UNL     1      -2.038   1.819   0.757  0.00  0.00    +0.032 C 
ENDBRANCH  24  25
ENDBRANCH  10  24
TORSDOF 5
