MODEL 1
REMARK VINA RESULT:    -8.023      0.000      0.000
REMARK INTER + INTRA:         -12.380
REMARK INTER:                 -10.837
REMARK INTRA:                  -1.543
REMARK UNBOUND:                -1.543
REMARK  Name = /home/qwerty/github/datacon2025hack/step_04_hit_selection/docking/ligands/lig_283.pdb
REMARK  6 active torsions:
REMARK  status: ('A' for Active; 'I' for Inactive)
REMARK    1  A    between atoms: C1_2  and  C24_31
REMARK    2  A    between atoms: N1_3  and  C2_4
REMARK    3  A    between atoms: C6_8  and  O2_9
REMARK    4  A    between atoms: O2_9  and  C7_10
REMARK    5  A    between atoms: C9_13  and  C10_14
REMARK    6  A    between atoms: C16_21  and  C17_22
REMARK                            x       y       z     vdW  Elec       q    Type
REMARK                         _______ _______ _______ _____ _____    ______ ____
ROOT
ATOM      1  C7  UNL     1      21.570   3.782  31.885  0.00  0.00    +0.324 A 
ATOM      2  N2  UNL     1      20.820   4.563  31.065  0.00  0.00    -0.202 NA
ATOM      3  C8  UNL     1      20.699   4.281  29.743  0.00  0.00    +0.126 A 
ATOM      4  C9  UNL     1      21.351   3.168  29.194  0.00  0.00    +0.026 A 
ATOM      5  C16 UNL     1      22.098   2.343  30.069  0.00  0.00    +0.085 A 
ATOM      6  N3  UNL     1      22.188   2.683  31.383  0.00  0.00    -0.194 NA
ENDROOT
BRANCH   4   7
ATOM      7  C10 UNL     1      21.280   2.937  27.731  0.00  0.00    -0.014 A 
ATOM      8  C11 UNL     1      20.158   2.311  27.159  0.00  0.00    +0.011 A 
ATOM      9  C12 UNL     1      20.095   2.099  25.779  0.00  0.00    +0.039 A 
ATOM     10  C13 UNL     1      21.154   2.500  24.960  0.00  0.00    +0.123 A 
ATOM     11  F1  UNL     1      21.091   2.292  23.621  0.00  0.00    -0.205 F 
ATOM     12  C14 UNL     1      22.280   3.111  25.521  0.00  0.00    +0.039 A 
ATOM     13  C15 UNL     1      22.346   3.325  26.901  0.00  0.00    +0.011 A 
ENDBRANCH   4   7
BRANCH   5  14
ATOM     14  C17 UNL     1      22.765   1.099  29.624  0.00  0.00    +0.001 A 
ATOM     15  C18 UNL     1      22.022  -0.060  29.340  0.00  0.00    +0.013 A 
ATOM     16  C19 UNL     1      22.668  -1.231  28.930  0.00  0.00    +0.039 A 
ATOM     17  C20 UNL     1      24.061  -1.256  28.814  0.00  0.00    +0.123 A 
ATOM     18  F2  UNL     1      24.686  -2.392  28.417  0.00  0.00    -0.205 F 
ATOM     19  C21 UNL     1      24.808  -0.115  29.114  0.00  0.00    +0.039 A 
ATOM     20  C22 UNL     1      24.165   1.056  29.524  0.00  0.00    +0.013 A 
ENDBRANCH   5  14
BRANCH   1  21
ATOM     21  O2  UNL     1      21.683   4.064  33.251  0.00  0.00    -0.424 OA
BRANCH  21  26
ATOM     22  C2  UNL     1      21.658   7.270  35.109  0.00  0.00    +0.037 A 
ATOM     23  C3  UNL     1      22.992   7.686  34.950  0.00  0.00    +0.023 A 
ATOM     24  C4  UNL     1      23.890   6.906  34.218  0.00  0.00    +0.005 A 
ATOM     25  C5  UNL     1      23.471   5.706  33.641  0.00  0.00    +0.046 A 
ATOM     26  C6  UNL     1      22.142   5.274  33.793  0.00  0.00    +0.134 A 
ATOM     27  C23 UNL     1      21.252   6.049  34.546  0.00  0.00    +0.069 A 
BRANCH  22  30
ATOM     28  O1  UNL     1      21.055   6.920  37.909  0.00  0.00    -0.275 OA
ATOM     29  C1  UNL     1      20.331   7.696  37.229  0.00  0.00    +0.220 C 
ATOM     30  N1  UNL     1      20.719   8.036  35.884  0.00  0.00    -0.285 N 
ATOM     31  H1  UNL     1      20.393   8.940  35.476  0.00  0.00    +0.155 HD
BRANCH  29  32
ATOM     32  C24 UNL     1      19.095   8.260  37.890  0.00  0.00    +0.075 C 
ATOM     33  C25 UNL     1      17.886   8.547  37.011  0.00  0.00    +0.013 C 
ATOM     34  C26 UNL     1      18.748   9.695  37.523  0.00  0.00    +0.013 C 
ENDBRANCH  29  32
ENDBRANCH  22  30
ENDBRANCH  21  26
ENDBRANCH   1  21
TORSDOF 6
ENDMDL
MODEL 2
REMARK VINA RESULT:    -7.568      2.232      4.367
REMARK INTER + INTRA:         -11.766
REMARK INTER:                 -10.299
REMARK INTRA:                  -1.466
REMARK UNBOUND:                -1.543
REMARK  Name = /home/qwerty/github/datacon2025hack/step_04_hit_selection/docking/ligands/lig_283.pdb
REMARK  6 active torsions:
REMARK  status: ('A' for Active; 'I' for Inactive)
REMARK    1  A    between atoms: C1_2  and  C24_31
REMARK    2  A    between atoms: N1_3  and  C2_4
REMARK    3  A    between atoms: C6_8  and  O2_9
REMARK    4  A    between atoms: O2_9  and  C7_10
REMARK    5  A    between atoms: C9_13  and  C10_14
REMARK    6  A    between atoms: C16_21  and  C17_22
REMARK                            x       y       z     vdW  Elec       q    Type
REMARK                         _______ _______ _______ _____ _____    ______ ____
ROOT
ATOM      1  C7  UNL     1      21.179   4.711  31.071  0.00  0.00    +0.324 A 
ATOM      2  N2  UNL     1      21.894   3.911  31.904  0.00  0.00    -0.202 NA
ATOM      3  C8  UNL     1      22.474   2.770  31.455  0.00  0.00    +0.126 A 
ATOM      4  C9  UNL     1      22.346   2.391  30.111  0.00  0.00    +0.026 A 
ATOM      5  C16 UNL     1      21.630   3.256  29.248  0.00  0.00    +0.085 A 
ATOM      6  N3  UNL     1      21.064   4.382  29.760  0.00  0.00    -0.194 NA
ENDROOT
BRANCH   4   7
ATOM      7  C10 UNL     1      22.907   1.093  29.668  0.00  0.00    -0.014 A 
ATOM      8  C11 UNL     1      24.297   0.924  29.532  0.00  0.00    +0.011 A 
ATOM      9  C12 UNL     1      24.821  -0.304  29.117  0.00  0.00    +0.039 A 
ATOM     10  C13 UNL     1      23.964  -1.369  28.825  0.00  0.00    +0.123 A 
ATOM     11  F1  UNL     1      24.475  -2.559  28.423  0.00  0.00    -0.205 F 
ATOM     12  C14 UNL     1      22.581  -1.206  28.945  0.00  0.00    +0.039 A 
ATOM     13  C15 UNL     1      22.053   0.020  29.360  0.00  0.00    +0.011 A 
ENDBRANCH   4   7
BRANCH   5  14
ATOM     14  C17 UNL     1      21.492   3.006  27.796  0.00  0.00    +0.001 A 
ATOM     15  C18 UNL     1      22.545   3.293  26.908  0.00  0.00    +0.013 A 
ATOM     16  C19 UNL     1      22.396   3.060  25.538  0.00  0.00    +0.039 A 
ATOM     17  C20 UNL     1      21.192   2.552  25.041  0.00  0.00    +0.123 A 
ATOM     18  F2  UNL     1      21.049   2.327  23.712  0.00  0.00    -0.205 F 
ATOM     19  C21 UNL     1      20.134   2.283  25.914  0.00  0.00    +0.039 A 
ATOM     20  C22 UNL     1      20.280   2.515  27.284  0.00  0.00    +0.013 A 
ENDBRANCH   5  14
BRANCH   1  21
ATOM     21  O2  UNL     1      20.594   5.897  31.531  0.00  0.00    -0.424 OA
BRANCH  21  26
ATOM     22  C2  UNL     1      21.493   9.046  33.263  0.00  0.00    +0.037 A 
ATOM     23  C3  UNL     1      22.646   9.426  32.554  0.00  0.00    +0.023 A 
ATOM     24  C4  UNL     1      23.113   8.642  31.496  0.00  0.00    +0.005 A 
ATOM     25  C5  UNL     1      22.441   7.472  31.138  0.00  0.00    +0.046 A 
ATOM     26  C6  UNL     1      21.288   7.076  31.840  0.00  0.00    +0.134 A 
ATOM     27  C23 UNL     1      20.838   7.855  32.912  0.00  0.00    +0.069 A 
BRANCH  22  30
ATOM     28  O1  UNL     1      19.950  11.480  33.120  0.00  0.00    -0.275 OA
ATOM     29  C1  UNL     1      20.400  11.117  34.239  0.00  0.00    +0.220 C 
ATOM     30  N1  UNL     1      21.008   9.817  34.375  0.00  0.00    -0.285 N 
ATOM     31  H1  UNL     1      21.006   9.353  35.311  0.00  0.00    +0.155 HD
BRANCH  29  32
ATOM     32  C24 UNL     1      20.242  12.070  35.401  0.00  0.00    +0.075 C 
ATOM     33  C25 UNL     1      19.185  11.748  36.447  0.00  0.00    +0.013 C 
ATOM     34  C26 UNL     1      18.942  12.861  35.434  0.00  0.00    +0.013 C 
ENDBRANCH  29  32
ENDBRANCH  22  30
ENDBRANCH  21  26
ENDBRANCH   1  21
TORSDOF 6
ENDMDL
MODEL 3
REMARK VINA RESULT:    -7.514     13.601     18.129
REMARK INTER + INTRA:         -11.693
REMARK INTER:                 -10.284
REMARK INTRA:                  -1.409
REMARK UNBOUND:                -1.543
REMARK  Name = /home/qwerty/github/datacon2025hack/step_04_hit_selection/docking/ligands/lig_283.pdb
REMARK  6 active torsions:
REMARK  status: ('A' for Active; 'I' for Inactive)
REMARK    1  A    between atoms: C1_2  and  C24_31
REMARK    2  A    between atoms: N1_3  and  C2_4
REMARK    3  A    between atoms: C6_8  and  O2_9
REMARK    4  A    between atoms: O2_9  and  C7_10
REMARK    5  A    between atoms: C9_13  and  C10_14
REMARK    6  A    between atoms: C16_21  and  C17_22
REMARK                            x       y       z     vdW  Elec       q    Type
REMARK                         _______ _______ _______ _____ _____    ______ ____
ROOT
ATOM      1  C7  UNL     1       9.102   9.972  25.988  0.00  0.00    +0.324 A 
ATOM      2  N2  UNL     1      10.428   9.849  26.256  0.00  0.00    -0.202 NA
ATOM      3  C8  UNL     1      11.071  10.745  27.045  0.00  0.00    +0.126 A 
ATOM      4  C9  UNL     1      10.373  11.825  27.605  0.00  0.00    +0.026 A 
ATOM      5  C16 UNL     1       8.984  11.917  27.347  0.00  0.00    +0.085 A 
ATOM      6  N3  UNL     1       8.398  10.992  26.540  0.00  0.00    -0.194 NA
ENDROOT
BRANCH   4   7
ATOM      7  C10 UNL     1      11.118  12.842  28.386  0.00  0.00    -0.014 A 
ATOM      8  C11 UNL     1      11.409  12.629  29.745  0.00  0.00    +0.011 A 
ATOM      9  C12 UNL     1      12.115  13.589  30.475  0.00  0.00    +0.039 A 
ATOM     10  C13 UNL     1      12.527  14.774  29.858  0.00  0.00    +0.123 A 
ATOM     11  F1  UNL     1      13.211  15.705  30.568  0.00  0.00    -0.205 F 
ATOM     12  C14 UNL     1      12.231  15.000  28.511  0.00  0.00    +0.039 A 
ATOM     13  C15 UNL     1      11.526  14.042  27.777  0.00  0.00    +0.011 A 
ENDBRANCH   4   7
BRANCH   5  14
ATOM     14  C17 UNL     1       8.125  12.965  27.944  0.00  0.00    +0.001 A 
ATOM     15  C18 UNL     1       7.569  13.985  27.151  0.00  0.00    +0.013 A 
ATOM     16  C19 UNL     1       6.768  14.973  27.732  0.00  0.00    +0.039 A 
ATOM     17  C20 UNL     1       6.527  14.958  29.109  0.00  0.00    +0.123 A 
ATOM     18  F2  UNL     1       5.751  15.916  29.671  0.00  0.00    -0.205 F 
ATOM     19  C21 UNL     1       7.092  13.959  29.907  0.00  0.00    +0.039 A 
ATOM     20  C22 UNL     1       7.894  12.971  29.329  0.00  0.00    +0.013 A 
ENDBRANCH   5  14
BRANCH   1  21
ATOM     21  O2  UNL     1       8.435   9.039  25.185  0.00  0.00    -0.424 OA
BRANCH  21  26
ATOM     22  C2  UNL     1       9.297   7.478  21.938  0.00  0.00    +0.037 A 
ATOM     23  C3  UNL     1       8.937   8.500  21.041  0.00  0.00    +0.023 A 
ATOM     24  C4  UNL     1       8.422   9.707  21.519  0.00  0.00    +0.005 A 
ATOM     25  C5  UNL     1       8.255   9.906  22.891  0.00  0.00    +0.046 A 
ATOM     26  C6  UNL     1       8.606   8.892  23.801  0.00  0.00    +0.134 A 
ATOM     27  C23 UNL     1       9.102   7.677  23.314  0.00  0.00    +0.069 A 
BRANCH  22  30
ATOM     28  O1  UNL     1      12.004   6.905  21.120  0.00  0.00    -0.275 OA
ATOM     29  C1  UNL     1      11.115   6.038  20.908  0.00  0.00    +0.220 C 
ATOM     30  N1  UNL     1       9.800   6.214  21.472  0.00  0.00    -0.285 N 
ATOM     31  H1  UNL     1       9.212   5.371  21.657  0.00  0.00    +0.155 HD
BRANCH  29  32
ATOM     32  C24 UNL     1      11.497   4.828  20.089  0.00  0.00    +0.075 C 
ATOM     33  C25 UNL     1      12.526   3.870  20.672  0.00  0.00    +0.013 C 
ATOM     34  C26 UNL     1      12.919   4.820  19.547  0.00  0.00    +0.013 C 
ENDBRANCH  29  32
ENDBRANCH  22  30
ENDBRANCH  21  26
ENDBRANCH   1  21
TORSDOF 6
ENDMDL
MODEL 4
REMARK VINA RESULT:    -7.392      1.254      3.675
REMARK INTER + INTRA:         -11.528
REMARK INTER:                 -10.023
REMARK INTRA:                  -1.504
REMARK UNBOUND:                -1.543
REMARK  Name = /home/qwerty/github/datacon2025hack/step_04_hit_selection/docking/ligands/lig_283.pdb
REMARK  6 active torsions:
REMARK  status: ('A' for Active; 'I' for Inactive)
REMARK    1  A    between atoms: C1_2  and  C24_31
REMARK    2  A    between atoms: N1_3  and  C2_4
REMARK    3  A    between atoms: C6_8  and  O2_9
REMARK    4  A    between atoms: O2_9  and  C7_10
REMARK    5  A    between atoms: C9_13  and  C10_14
REMARK    6  A    between atoms: C16_21  and  C17_22
REMARK                            x       y       z     vdW  Elec       q    Type
REMARK                         _______ _______ _______ _____ _____    ______ ____
ROOT
ATOM      1  C7  UNL     1      20.913   4.645  31.092  0.00  0.00    +0.324 A 
ATOM      2  N2  UNL     1      21.644   3.861  31.926  0.00  0.00    -0.202 NA
ATOM      3  C8  UNL     1      22.280   2.753  31.471  0.00  0.00    +0.126 A 
ATOM      4  C9  UNL     1      22.194   2.393  30.118  0.00  0.00    +0.026 A 
ATOM      5  C16 UNL     1      21.460   3.242  29.255  0.00  0.00    +0.085 A 
ATOM      6  N3  UNL     1      20.838   4.335  29.773  0.00  0.00    -0.194 NA
ENDROOT
BRANCH   4   7
ATOM      7  C10 UNL     1      22.819   1.128  29.665  0.00  0.00    -0.014 A 
ATOM      8  C11 UNL     1      22.025   0.009  29.355  0.00  0.00    +0.011 A 
ATOM      9  C12 UNL     1      22.618  -1.181  28.924  0.00  0.00    +0.039 A 
ATOM     10  C13 UNL     1      24.009  -1.268  28.808  0.00  0.00    +0.123 A 
ATOM     11  F1  UNL     1      24.583  -2.424  28.391  0.00  0.00    -0.205 F 
ATOM     12  C14 UNL     1      24.807  -0.166  29.126  0.00  0.00    +0.039 A 
ATOM     13  C15 UNL     1      24.217   1.026  29.557  0.00  0.00    +0.011 A 
ENDBRANCH   4   7
BRANCH   5  14
ATOM     14  C17 UNL     1      21.362   3.012  27.796  0.00  0.00    +0.001 A 
ATOM     15  C18 UNL     1      20.206   2.450  27.227  0.00  0.00    +0.013 A 
ATOM     16  C19 UNL     1      20.134   2.229  25.848  0.00  0.00    +0.039 A 
ATOM     17  C20 UNL     1      21.219   2.556  25.029  0.00  0.00    +0.123 A 
ATOM     18  F2  UNL     1      21.147   2.342  23.693  0.00  0.00    -0.205 F 
ATOM     19  C21 UNL     1      22.379   3.097  25.589  0.00  0.00    +0.039 A 
ATOM     20  C22 UNL     1      22.454   3.318  26.967  0.00  0.00    +0.013 A 
ENDBRANCH   5  14
BRANCH   1  21
ATOM     21  O2  UNL     1      20.269   5.797  31.559  0.00  0.00    -0.424 OA
BRANCH  21  26
ATOM     22  C2  UNL     1      20.940   8.346  34.164  0.00  0.00    +0.037 A 
ATOM     23  C3  UNL     1      22.109   8.945  33.662  0.00  0.00    +0.023 A 
ATOM     24  C4  UNL     1      22.663   8.509  32.457  0.00  0.00    +0.005 A 
ATOM     25  C5  UNL     1      22.061   7.470  31.742  0.00  0.00    +0.046 A 
ATOM     26  C6  UNL     1      20.894   6.858  32.232  0.00  0.00    +0.134 A 
ATOM     27  C23 UNL     1      20.356   7.286  33.451  0.00  0.00    +0.069 A 
BRANCH  22  30
ATOM     28  O1  UNL     1      21.140   6.945  36.679  0.00  0.00    -0.275 OA
ATOM     29  C1  UNL     1      20.348   7.921  36.594  0.00  0.00    +0.220 C 
ATOM     30  N1  UNL     1      20.366   8.753  35.418  0.00  0.00    -0.285 N 
ATOM     31  H1  UNL     1      20.045   9.744  35.493  0.00  0.00    +0.155 HD
BRANCH  29  32
ATOM     32  C24 UNL     1      19.433   8.185  37.768  0.00  0.00    +0.075 C 
ATOM     33  C25 UNL     1      17.952   7.879  37.599  0.00  0.00    +0.013 C 
ATOM     34  C26 UNL     1      18.440   9.323  37.587  0.00  0.00    +0.013 C 
ENDBRANCH  29  32
ENDBRANCH  22  30
ENDBRANCH  21  26
ENDBRANCH   1  21
TORSDOF 6
ENDMDL
MODEL 5
REMARK VINA RESULT:    -7.302      7.513     12.186
REMARK INTER + INTRA:         -11.407
REMARK INTER:                  -9.772
REMARK INTRA:                  -1.635
REMARK UNBOUND:                -1.543
REMARK  Name = /home/qwerty/github/datacon2025hack/step_04_hit_selection/docking/ligands/lig_283.pdb
REMARK  6 active torsions:
REMARK  status: ('A' for Active; 'I' for Inactive)
REMARK    1  A    between atoms: C1_2  and  C24_31
REMARK    2  A    between atoms: N1_3  and  C2_4
REMARK    3  A    between atoms: C6_8  and  O2_9
REMARK    4  A    between atoms: O2_9  and  C7_10
REMARK    5  A    between atoms: C9_13  and  C10_14
REMARK    6  A    between atoms: C16_21  and  C17_22
REMARK                            x       y       z     vdW  Elec       q    Type
REMARK                         _______ _______ _______ _____ _____    ______ ____
ROOT
ATOM      1  C7  UNL     1      17.509  10.990  36.953  0.00  0.00    +0.324 A 
ATOM      2  N2  UNL     1      17.858  12.039  36.165  0.00  0.00    -0.202 NA
ATOM      3  C8  UNL     1      16.947  12.655  35.371  0.00  0.00    +0.126 A 
ATOM      4  C9  UNL     1      15.615  12.216  35.348  0.00  0.00    +0.026 A 
ATOM      5  C16 UNL     1      15.260  11.146  36.204  0.00  0.00    +0.085 A 
ATOM      6  N3  UNL     1      16.220  10.564  36.971  0.00  0.00    -0.194 NA
ENDROOT
BRANCH   4   7
ATOM      7  C10 UNL     1      14.662  12.843  34.402  0.00  0.00    -0.014 A 
ATOM      8  C11 UNL     1      14.511  12.337  33.099  0.00  0.00    +0.011 A 
ATOM      9  C12 UNL     1      13.608  12.930  32.212  0.00  0.00    +0.039 A 
ATOM     10  C13 UNL     1      12.856  14.037  32.613  0.00  0.00    +0.123 A 
ATOM     11  F1  UNL     1      11.980  14.611  31.751  0.00  0.00    -0.205 F 
ATOM     12  C14 UNL     1      13.009  14.555  33.903  0.00  0.00    +0.039 A 
ATOM     13  C15 UNL     1      13.911  13.965  34.793  0.00  0.00    +0.011 A 
ENDBRANCH   4   7
BRANCH   5  14
ATOM     14  C17 UNL     1      13.872  10.645  36.328  0.00  0.00    +0.001 A 
ATOM     15  C18 UNL     1      12.936  11.300  37.147  0.00  0.00    +0.013 A 
ATOM     16  C19 UNL     1      11.632  10.809  37.261  0.00  0.00    +0.039 A 
ATOM     17  C20 UNL     1      11.256   9.654  36.569  0.00  0.00    +0.123 A 
ATOM     18  F2  UNL     1       9.992   9.178  36.680  0.00  0.00    -0.205 F 
ATOM     19  C21 UNL     1      12.186   8.986  35.768  0.00  0.00    +0.039 A 
ATOM     20  C22 UNL     1      13.491   9.474  35.653  0.00  0.00    +0.013 A 
ENDBRANCH   5  14
BRANCH   1  21
ATOM     21  O2  UNL     1      18.445  10.364  37.785  0.00  0.00    -0.424 OA
BRANCH  21  26
ATOM     22  C2  UNL     1      21.198   8.275  36.448  0.00  0.00    +0.037 A 
ATOM     23  C3  UNL     1      20.753   6.987  36.794  0.00  0.00    +0.023 A 
ATOM     24  C4  UNL     1      19.536   6.816  37.458  0.00  0.00    +0.005 A 
ATOM     25  C5  UNL     1      18.754   7.925  37.788  0.00  0.00    +0.046 A 
ATOM     26  C6  UNL     1      19.187   9.221  37.453  0.00  0.00    +0.134 A 
ATOM     27  C23 UNL     1      20.417   9.386  36.806  0.00  0.00    +0.069 A 
BRANCH  22  30
ATOM     28  O1  UNL     1      21.655   8.384  33.601  0.00  0.00    -0.275 OA
ATOM     29  C1  UNL     1      22.652   8.345  34.370  0.00  0.00    +0.220 C 
ATOM     30  N1  UNL     1      22.461   8.482  35.792  0.00  0.00    -0.285 N 
ATOM     31  H1  UNL     1      23.244   8.854  36.375  0.00  0.00    +0.155 HD
BRANCH  29  32
ATOM     32  C24 UNL     1      24.017   8.190  33.741  0.00  0.00    +0.075 C 
ATOM     33  C25 UNL     1      24.388   9.132  32.604  0.00  0.00    +0.013 C 
ATOM     34  C26 UNL     1      24.028   7.681  32.308  0.00  0.00    +0.013 C 
ENDBRANCH  29  32
ENDBRANCH  22  30
ENDBRANCH  21  26
ENDBRANCH   1  21
TORSDOF 6
ENDMDL
MODEL 6
REMARK VINA RESULT:    -7.272     12.015     15.927
REMARK INTER + INTRA:         -11.366
REMARK INTER:                  -9.786
REMARK INTRA:                  -1.580
REMARK UNBOUND:                -1.543
REMARK  Name = /home/qwerty/github/datacon2025hack/step_04_hit_selection/docking/ligands/lig_283.pdb
REMARK  6 active torsions:
REMARK  status: ('A' for Active; 'I' for Inactive)
REMARK    1  A    between atoms: C1_2  and  C24_31
REMARK    2  A    between atoms: N1_3  and  C2_4
REMARK    3  A    between atoms: C6_8  and  O2_9
REMARK    4  A    between atoms: O2_9  and  C7_10
REMARK    5  A    between atoms: C9_13  and  C10_14
REMARK    6  A    between atoms: C16_21  and  C17_22
REMARK                            x       y       z     vdW  Elec       q    Type
REMARK                         _______ _______ _______ _____ _____    ______ ____
ROOT
ATOM      1  C7  UNL     1      11.565   4.247  20.681  0.00  0.00    +0.324 A 
ATOM      2  N2  UNL     1      10.529   3.898  21.488  0.00  0.00    -0.202 NA
ATOM      3  C8  UNL     1       9.853   4.829  22.206  0.00  0.00    +0.126 A 
ATOM      4  C9  UNL     1      10.212   6.182  22.127  0.00  0.00    +0.026 A 
ATOM      5  C16 UNL     1      11.268   6.534  21.252  0.00  0.00    +0.085 A 
ATOM      6  N3  UNL     1      11.913   5.553  20.566  0.00  0.00    -0.194 NA
ENDROOT
BRANCH   4   7
ATOM      7  C10 UNL     1       9.520   7.166  22.993  0.00  0.00    -0.014 A 
ATOM      8  C11 UNL     1       8.495   7.979  22.475  0.00  0.00    +0.011 A 
ATOM      9  C12 UNL     1       7.843   8.902  23.297  0.00  0.00    +0.039 A 
ATOM     10  C13 UNL     1       8.214   9.031  24.639  0.00  0.00    +0.123 A 
ATOM     11  F1  UNL     1       7.581   9.928  25.434  0.00  0.00    -0.205 F 
ATOM     12  C14 UNL     1       9.240   8.236  25.159  0.00  0.00    +0.039 A 
ATOM     13  C15 UNL     1       9.894   7.311  24.340  0.00  0.00    +0.011 A 
ENDBRANCH   4   7
BRANCH   5  14
ATOM     14  C17 UNL     1      11.687   7.935  21.024  0.00  0.00    +0.001 A 
ATOM     15  C18 UNL     1      11.046   8.735  20.061  0.00  0.00    +0.013 A 
ATOM     16  C19 UNL     1      11.460  10.054  19.850  0.00  0.00    +0.039 A 
ATOM     17  C20 UNL     1      12.524  10.580  20.589  0.00  0.00    +0.123 A 
ATOM     18  F2  UNL     1      12.925  11.858  20.383  0.00  0.00    -0.205 F 
ATOM     19  C21 UNL     1      13.179   9.785  21.533  0.00  0.00    +0.039 A 
ATOM     20  C22 UNL     1      12.768   8.466  21.746  0.00  0.00    +0.013 A 
ENDBRANCH   5  14
BRANCH   1  21
ATOM     21  O2  UNL     1      12.253   3.288  19.929  0.00  0.00    -0.424 OA
BRANCH  21  26
ATOM     22  C2  UNL     1      14.720   0.915  21.347  0.00  0.00    +0.037 A 
ATOM     23  C3  UNL     1      15.930   1.515  20.955  0.00  0.00    +0.023 A 
ATOM     24  C4  UNL     1      15.922   2.710  20.233  0.00  0.00    +0.005 A 
ATOM     25  C5  UNL     1      14.711   3.316  19.890  0.00  0.00    +0.046 A 
ATOM     26  C6  UNL     1      13.492   2.727  20.271  0.00  0.00    +0.134 A 
ATOM     27  C23 UNL     1      13.507   1.518  20.977  0.00  0.00    +0.069 A 
BRANCH  22  30
ATOM     28  O1  UNL     1      14.771   0.584  24.213  0.00  0.00    -0.275 OA
ATOM     29  C1  UNL     1      14.908  -0.436  23.487  0.00  0.00    +0.220 C 
ATOM     30  N1  UNL     1      14.698  -0.331  22.065  0.00  0.00    -0.285 N 
ATOM     31  H1  UNL     1      14.408  -1.181  21.532  0.00  0.00    +0.155 HD
BRANCH  29  32
ATOM     32  C24 UNL     1      15.257  -1.739  24.167  0.00  0.00    +0.075 C 
ATOM     33  C25 UNL     1      14.383  -2.193  25.326  0.00  0.00    +0.013 C 
ATOM     34  C26 UNL     1      15.770  -1.622  25.595  0.00  0.00    +0.013 C 
ENDBRANCH  29  32
ENDBRANCH  22  30
ENDBRANCH  21  26
ENDBRANCH   1  21
TORSDOF 6
ENDMDL
MODEL 7
REMARK VINA RESULT:    -7.129      5.639     10.753
REMARK INTER + INTRA:         -11.173
REMARK INTER:                  -9.583
REMARK INTRA:                  -1.590
REMARK UNBOUND:                -1.543
REMARK  Name = /home/qwerty/github/datacon2025hack/step_04_hit_selection/docking/ligands/lig_283.pdb
REMARK  6 active torsions:
REMARK  status: ('A' for Active; 'I' for Inactive)
REMARK    1  A    between atoms: C1_2  and  C24_31
REMARK    2  A    between atoms: N1_3  and  C2_4
REMARK    3  A    between atoms: C6_8  and  O2_9
REMARK    4  A    between atoms: O2_9  and  C7_10
REMARK    5  A    between atoms: C9_13  and  C10_14
REMARK    6  A    between atoms: C16_21  and  C17_22
REMARK                            x       y       z     vdW  Elec       q    Type
REMARK                         _______ _______ _______ _____ _____    ______ ____
ROOT
ATOM      1  C7  UNL     1      18.986   1.389  26.052  0.00  0.00    +0.324 A 
ATOM      2  N2  UNL     1      18.087   1.973  26.887  0.00  0.00    -0.202 NA
ATOM      3  C8  UNL     1      18.333   2.086  28.216  0.00  0.00    +0.126 A 
ATOM      4  C9  UNL     1      19.530   1.598  28.759  0.00  0.00    +0.026 A 
ATOM      5  C16 UNL     1      20.472   1.026  27.869  0.00  0.00    +0.085 A 
ATOM      6  N3  UNL     1      20.164   0.934  26.548  0.00  0.00    -0.194 NA
ENDROOT
BRANCH   4   7
ATOM      7  C10 UNL     1      19.733   1.647  30.226  0.00  0.00    -0.014 A 
ATOM      8  C11 UNL     1      19.485   0.514  31.021  0.00  0.00    +0.011 A 
ATOM      9  C12 UNL     1      19.682   0.565  32.404  0.00  0.00    +0.039 A 
ATOM     10  C13 UNL     1      20.118   1.749  33.007  0.00  0.00    +0.123 A 
ATOM     11  F1  UNL     1      20.307   1.796  34.348  0.00  0.00    -0.205 F 
ATOM     12  C14 UNL     1      20.354   2.884  32.226  0.00  0.00    +0.039 A 
ATOM     13  C15 UNL     1      20.159   2.837  30.842  0.00  0.00    +0.011 A 
ENDBRANCH   4   7
BRANCH   5  14
ATOM     14  C17 UNL     1      21.802   0.548  28.309  0.00  0.00    +0.001 A 
ATOM     15  C18 UNL     1      22.861   1.448  28.527  0.00  0.00    +0.013 A 
ATOM     16  C19 UNL     1      24.114   0.979  28.933  0.00  0.00    +0.039 A 
ATOM     17  C20 UNL     1      24.324  -0.392  29.112  0.00  0.00    +0.123 A 
ATOM     18  F2  UNL     1      25.539  -0.845  29.505  0.00  0.00    -0.205 F 
ATOM     19  C21 UNL     1      23.283  -1.294  28.879  0.00  0.00    +0.039 A 
ATOM     20  C22 UNL     1      22.029  -0.828  28.472  0.00  0.00    +0.013 A 
ENDBRANCH   5  14
BRANCH   1  21
ATOM     21  O2  UNL     1      18.739   1.286  24.678  0.00  0.00    -0.424 OA
BRANCH  21  26
ATOM     22  C2  UNL     1      15.600   0.804  22.769  0.00  0.00    +0.037 A 
ATOM     23  C3  UNL     1      15.432  -0.588  22.872  0.00  0.00    +0.023 A 
ATOM     24  C4  UNL     1      16.354  -1.359  23.583  0.00  0.00    +0.005 A 
ATOM     25  C5  UNL     1      17.453  -0.753  24.195  0.00  0.00    +0.046 A 
ATOM     26  C6  UNL     1      17.638   0.638  24.099  0.00  0.00    +0.134 A 
ATOM     27  C23 UNL     1      16.722   1.401  23.366  0.00  0.00    +0.069 A 
BRANCH  22  30
ATOM     28  O1  UNL     1      15.614   1.209  19.912  0.00  0.00    -0.275 OA
ATOM     29  C1  UNL     1      14.853   1.924  20.619  0.00  0.00    +0.220 C 
ATOM     30  N1  UNL     1      14.684   1.618  22.017  0.00  0.00    -0.285 N 
ATOM     31  H1  UNL     1      13.802   1.906  22.495  0.00  0.00    +0.155 HD
BRANCH  29  32
ATOM     32  C24 UNL     1      14.124   3.058  19.937  0.00  0.00    +0.075 C 
ATOM     33  C25 UNL     1      14.666   4.467  20.123  0.00  0.00    +0.013 C 
ATOM     34  C26 UNL     1      13.406   4.030  20.860  0.00  0.00    +0.013 C 
ENDBRANCH  29  32
ENDBRANCH  22  30
ENDBRANCH  21  26
ENDBRANCH   1  21
TORSDOF 6
ENDMDL
MODEL 8
REMARK VINA RESULT:    -7.128     13.574     17.783
REMARK INTER + INTRA:         -11.171
REMARK INTER:                  -9.639
REMARK INTRA:                  -1.532
REMARK UNBOUND:                -1.543
REMARK  Name = /home/qwerty/github/datacon2025hack/step_04_hit_selection/docking/ligands/lig_283.pdb
REMARK  6 active torsions:
REMARK  status: ('A' for Active; 'I' for Inactive)
REMARK    1  A    between atoms: C1_2  and  C24_31
REMARK    2  A    between atoms: N1_3  and  C2_4
REMARK    3  A    between atoms: C6_8  and  O2_9
REMARK    4  A    between atoms: O2_9  and  C7_10
REMARK    5  A    between atoms: C9_13  and  C10_14
REMARK    6  A    between atoms: C16_21  and  C17_22
REMARK                            x       y       z     vdW  Elec       q    Type
REMARK                         _______ _______ _______ _____ _____    ______ ____
ROOT
ATOM      1  C7  UNL     1       9.022   9.958  26.073  0.00  0.00    +0.324 A 
ATOM      2  N2  UNL     1      10.359   9.847  26.285  0.00  0.00    -0.202 NA
ATOM      3  C8  UNL     1      11.031  10.761  27.028  0.00  0.00    +0.126 A 
ATOM      4  C9  UNL     1      10.352  11.848  27.598  0.00  0.00    +0.026 A 
ATOM      5  C16 UNL     1       8.952  11.928  27.400  0.00  0.00    +0.085 A 
ATOM      6  N3  UNL     1       8.337  10.985  26.638  0.00  0.00    -0.194 NA
ENDROOT
BRANCH   4   7
ATOM      7  C10 UNL     1      11.124  12.883  28.326  0.00  0.00    -0.014 A 
ATOM      8  C11 UNL     1      11.502  14.076  27.684  0.00  0.00    +0.011 A 
ATOM      9  C12 UNL     1      12.227  15.051  28.376  0.00  0.00    +0.039 A 
ATOM     10  C13 UNL     1      12.588  14.840  29.710  0.00  0.00    +0.123 A 
ATOM     11  F1  UNL     1      13.292  15.787  30.379  0.00  0.00    -0.205 F 
ATOM     12  C14 UNL     1      12.228  13.652  30.352  0.00  0.00    +0.039 A 
ATOM     13  C15 UNL     1      11.503  12.675  29.664  0.00  0.00    +0.011 A 
ENDBRANCH   4   7
BRANCH   5  14
ATOM     14  C17 UNL     1       8.114  12.982  28.015  0.00  0.00    +0.001 A 
ATOM     15  C18 UNL     1       7.833  12.972  29.393  0.00  0.00    +0.013 A 
ATOM     16  C19 UNL     1       7.031  13.969  29.957  0.00  0.00    +0.039 A 
ATOM     17  C20 UNL     1       6.494  14.976  29.148  0.00  0.00    +0.123 A 
ATOM     18  F2  UNL     1       5.717  15.942  29.696  0.00  0.00    -0.205 F 
ATOM     19  C21 UNL     1       6.753  14.981  27.775  0.00  0.00    +0.039 A 
ATOM     20  C22 UNL     1       7.553  13.985  27.209  0.00  0.00    +0.013 A 
ENDBRANCH   5  14
BRANCH   1  21
ATOM     21  O2  UNL     1       8.326   9.007  25.319  0.00  0.00    -0.424 OA
BRANCH  21  26
ATOM     22  C2  UNL     1       8.953   5.379  24.903  0.00  0.00    +0.037 A 
ATOM     23  C3  UNL     1       8.329   4.862  26.052  0.00  0.00    +0.023 A 
ATOM     24  C4  UNL     1       7.693   5.718  26.953  0.00  0.00    +0.005 A 
ATOM     25  C5  UNL     1       7.676   7.095  26.723  0.00  0.00    +0.046 A 
ATOM     26  C6  UNL     1       8.298   7.628  25.580  0.00  0.00    +0.134 A 
ATOM     27  C23 UNL     1       8.952   6.767  24.691  0.00  0.00    +0.069 A 
BRANCH  22  30
ATOM     28  O1  UNL     1       7.822   4.122  22.564  0.00  0.00    -0.275 OA
ATOM     29  C1  UNL     1       8.979   3.783  22.930  0.00  0.00    +0.220 C 
ATOM     30  N1  UNL     1       9.642   4.524  23.974  0.00  0.00    -0.285 N 
ATOM     31  H1  UNL     1      10.686   4.535  24.003  0.00  0.00    +0.155 HD
BRANCH  29  32
ATOM     32  C24 UNL     1       9.628   2.621  22.216  0.00  0.00    +0.075 C 
ATOM     33  C25 UNL     1      10.918   2.059  22.796  0.00  0.00    +0.013 C 
ATOM     34  C26 UNL     1      10.957   2.921  21.539  0.00  0.00    +0.013 C 
ENDBRANCH  29  32
ENDBRANCH  22  30
ENDBRANCH  21  26
ENDBRANCH   1  21
TORSDOF 6
ENDMDL
MODEL 9
REMARK VINA RESULT:    -7.027      5.323      9.914
REMARK INTER + INTRA:         -11.034
REMARK INTER:                  -9.373
REMARK INTRA:                  -1.661
REMARK UNBOUND:                -1.543
REMARK  Name = /home/qwerty/github/datacon2025hack/step_04_hit_selection/docking/ligands/lig_283.pdb
REMARK  6 active torsions:
REMARK  status: ('A' for Active; 'I' for Inactive)
REMARK    1  A    between atoms: C1_2  and  C24_31
REMARK    2  A    between atoms: N1_3  and  C2_4
REMARK    3  A    between atoms: C6_8  and  O2_9
REMARK    4  A    between atoms: O2_9  and  C7_10
REMARK    5  A    between atoms: C9_13  and  C10_14
REMARK    6  A    between atoms: C16_21  and  C17_22
REMARK                            x       y       z     vdW  Elec       q    Type
REMARK                         _______ _______ _______ _____ _____    ______ ____
ROOT
ATOM      1  C7  UNL     1      20.624   1.266  27.025  0.00  0.00    +0.324 A 
ATOM      2  N2  UNL     1      21.653   2.153  27.017  0.00  0.00    -0.202 NA
ATOM      3  C8  UNL     1      22.005   2.831  28.138  0.00  0.00    +0.126 A 
ATOM      4  C9  UNL     1      21.307   2.627  29.337  0.00  0.00    +0.026 A 
ATOM      5  C16 UNL     1      20.262   1.672  29.337  0.00  0.00    +0.085 A 
ATOM      6  N3  UNL     1      19.951   1.030  28.180  0.00  0.00    -0.194 NA
ENDROOT
BRANCH   4   7
ATOM      7  C10 UNL     1      21.649   3.450  30.522  0.00  0.00    -0.014 A 
ATOM      8  C11 UNL     1      22.348   2.888  31.605  0.00  0.00    +0.011 A 
ATOM      9  C12 UNL     1      22.671   3.669  32.718  0.00  0.00    +0.039 A 
ATOM     10  C13 UNL     1      22.291   5.013  32.765  0.00  0.00    +0.123 A 
ATOM     11  F1  UNL     1      22.606   5.769  33.846  0.00  0.00    -0.205 F 
ATOM     12  C14 UNL     1      21.585   5.577  31.699  0.00  0.00    +0.039 A 
ATOM     13  C15 UNL     1      21.260   4.799  30.583  0.00  0.00    +0.011 A 
ENDBRANCH   4   7
BRANCH   5  14
ATOM     14  C17 UNL     1      19.505   1.313  30.558  0.00  0.00    +0.001 A 
ATOM     15  C18 UNL     1      18.388   2.063  30.965  0.00  0.00    +0.013 A 
ATOM     16  C19 UNL     1      17.689   1.717  32.126  0.00  0.00    +0.039 A 
ATOM     17  C20 UNL     1      18.108   0.627  32.895  0.00  0.00    +0.123 A 
ATOM     18  F2  UNL     1      17.430   0.292  34.020  0.00  0.00    -0.205 F 
ATOM     19  C21 UNL     1      19.229  -0.112  32.508  0.00  0.00    +0.039 A 
ATOM     20  C22 UNL     1      19.929   0.232  31.349  0.00  0.00    +0.013 A 
ENDBRANCH   5  14
BRANCH   1  21
ATOM     21  O2  UNL     1      20.270   0.555  25.872  0.00  0.00    -0.424 OA
BRANCH  21  26
ATOM     22  C2  UNL     1      16.967   0.301  24.212  0.00  0.00    +0.037 A 
ATOM     23  C3  UNL     1      16.986   1.445  23.395  0.00  0.00    +0.023 A 
ATOM     24  C4  UNL     1      18.099   2.289  23.389  0.00  0.00    +0.005 A 
ATOM     25  C5  UNL     1      19.200   2.005  24.199  0.00  0.00    +0.046 A 
ATOM     26  C6  UNL     1      19.196   0.867  25.025  0.00  0.00    +0.134 A 
ATOM     27  C23 UNL     1      18.069   0.037  25.042  0.00  0.00    +0.069 A 
BRANCH  22  30
ATOM     28  O1  UNL     1      14.647   0.613  25.899  0.00  0.00    -0.275 OA
ATOM     29  C1  UNL     1      14.782  -0.459  25.252  0.00  0.00    +0.220 C 
ATOM     30  N1  UNL     1      15.823  -0.568  24.262  0.00  0.00    -0.285 N 
ATOM     31  H1  UNL     1      15.701  -1.239  23.470  0.00  0.00    +0.155 HD
BRANCH  29  32
ATOM     32  C24 UNL     1      13.803  -1.575  25.534  0.00  0.00    +0.075 C 
ATOM     33  C25 UNL     1      13.889  -2.274  26.884  0.00  0.00    +0.013 C 
ATOM     34  C26 UNL     1      14.402  -2.970  25.629  0.00  0.00    +0.013 C 
ENDBRANCH  29  32
ENDBRANCH  22  30
ENDBRANCH  21  26
ENDBRANCH   1  21
TORSDOF 6
ENDMDL
