REMARK  Name = /home/qwerty/github/datacon2025hack/step_04_hit_selection/docking/ligands/lig_632.pdb
REMARK  4 active torsions:
REMARK  status: ('A' for Active; 'I' for Inactive)
REMARK    1  A    between atoms: C1_1  and  N1_2
REMARK    2  A    between atoms: C8_11  and  C9_12
REMARK    3  A    between atoms: C9_12  and  N4_13
REMARK    4  A    between atoms: C10_14  and  C11_16
REMARK                            x       y       z     vdW  Elec       q    Type
REMARK                         _______ _______ _______ _____ _____    ______ ____
ROOT
ATOM      1  N4  UNL     1       0.288  -1.620  -1.107  0.00  0.00    -0.307 N 
ATOM      2  C10 UNL     1       0.917  -0.401  -0.679  0.00  0.00    +0.247 C 
ATOM      3  O1  UNL     1       0.228   0.496  -0.119  0.00  0.00    -0.270 OA
ATOM      4  H13 UNL     1       0.875  -2.415  -1.444  0.00  0.00    +0.149 HD
ENDROOT
BRANCH   2   5
ATOM      5  C11 UNL     1       2.372  -0.193  -0.854  0.00  0.00    +0.072 A 
ATOM      6  C12 UNL     1       3.093   0.500   0.131  0.00  0.00    +0.020 A 
ATOM      7  C13 UNL     1       4.470   0.726  -0.011  0.00  0.00    -0.036 A 
ATOM      8  C14 UNL     1       5.146   0.228  -1.145  0.00  0.00    +0.023 A 
ATOM      9  C15 UNL     1       4.421  -0.450  -2.137  0.00  0.00    +0.050 A 
ATOM     10  C16 UNL     1       3.046  -0.656  -1.999  0.00  0.00    +0.136 A 
ATOM     11  F1  UNL     1       2.373  -1.263  -3.009  0.00  0.00    -0.205 F 
ATOM     12  C17 UNL     1       6.604   0.454  -1.290  0.00  0.00    +0.164 C 
ATOM     13  O2  UNL     1       7.225   0.001  -2.291  0.00  0.00    -0.292 OA
ATOM     14  C18 UNL     1       7.374   1.169  -0.215  0.00  0.00    +0.080 C 
ATOM     15  C19 UNL     1       6.472   2.140   0.554  0.00  0.00    +0.012 C 
ATOM     16  C20 UNL     1       5.229   1.424   1.093  0.00  0.00    +0.036 C 
ENDBRANCH   2   5
BRANCH   1  17
ATOM     17  C9  UNL     1      -1.156  -1.826  -1.005  0.00  0.00    +0.143 C 
BRANCH  17  28
ATOM     18  C1  UNL     1      -6.528   2.182   0.119  0.00  0.00    +0.105 C 
ATOM     19  N1  UNL     1      -5.481   1.475  -0.638  0.00  0.00    -0.302 NA
ATOM     20  C2  UNL     1      -5.644   0.006  -0.503  0.00  0.00    +0.103 C 
ATOM     21  C3  UNL     1      -4.326  -0.745  -0.702  0.00  0.00    +0.122 C 
ATOM     22  N2  UNL     1      -3.352  -0.277   0.289  0.00  0.00    -0.312 N 
ATOM     23  C4  UNL     1      -2.582  -1.225   1.043  0.00  0.00    +0.126 A 
ATOM     24  N3  UNL     1      -2.854  -1.385   2.369  0.00  0.00    -0.240 NA
ATOM     25  C5  UNL     1      -2.199  -2.292   3.140  0.00  0.00    +0.113 A 
ATOM     26  C6  UNL     1      -1.219  -3.106   2.577  0.00  0.00    +0.020 A 
ATOM     27  C7  UNL     1      -0.905  -2.963   1.225  0.00  0.00    +0.010 A 
ATOM     28  C8  UNL     1      -1.566  -2.004   0.440  0.00  0.00    +0.010 A 
ATOM     29  C21 UNL     1      -3.393   1.120   0.733  0.00  0.00    +0.122 C 
ATOM     30  C22 UNL     1      -4.127   1.989  -0.300  0.00  0.00    +0.103 C 
ENDBRANCH  17  28
ENDBRANCH   1  17
TORSDOF 3
