MODEL 1
REMARK VINA RESULT:    -6.522      0.000      0.000
REMARK INTER + INTRA:          -9.834
REMARK INTER:                  -8.809
REMARK INTRA:                  -1.025
REMARK UNBOUND:                -1.025
REMARK  Name = /home/qwerty/github/datacon2025hack/step_04_hit_selection/docking/ligands/lig_670.pdb
REMARK  8 active torsions:
REMARK  status: ('A' for Active; 'I' for Inactive)
REMARK    1  A    between atoms: C1_1  and  C2_2
REMARK    2  A    between atoms: C2_2  and  C3_3
REMARK    3  A    between atoms: C2_2  and  C4_4
REMARK    4  A    between atoms: N1_6  and  C5_7
REMARK    5  A    between atoms: C8_10  and  C9_11
REMARK    6  A    between atoms: N2_13  and  C10_14
REMARK    7  A    between atoms: C10_14  and  C11_15
REMARK    8  A    between atoms: C15_20  and  C16_21
REMARK                            x       y       z     vdW  Elec       q    Type
REMARK                         _______ _______ _______ _____ _____    ______ ____
ROOT
ATOM      1  C9  UNL     1      15.812  12.629  36.185  0.00  0.00    +0.244 C 
ATOM      2  O2  UNL     1      15.834  13.288  35.110  0.00  0.00    -0.270 OA
ATOM      3  N2  UNL     1      14.686  12.751  37.071  0.00  0.00    -0.311 N 
ATOM      4  H11 UNL     1      14.692  12.268  37.996  0.00  0.00    +0.149 HD
ENDROOT
BRANCH   1   8
ATOM      5  C5  UNL     1      19.131  10.075  37.194  0.00  0.00    +0.033 A 
ATOM      6  C6  UNL     1      17.832   9.775  37.642  0.00  0.00    +0.024 A 
ATOM      7  C7  UNL     1      16.761  10.611  37.315  0.00  0.00    +0.015 A 
ATOM      8  C8  UNL     1      16.960  11.751  36.518  0.00  0.00    +0.037 A 
ATOM      9  C19 UNL     1      18.258  12.043  36.063  0.00  0.00    +0.015 A 
ATOM     10  C20 UNL     1      19.329  11.206  36.391  0.00  0.00    +0.024 A 
BRANCH   5  13
ATOM     11  C4  UNL     1      20.778   8.241  36.588  0.00  0.00    +0.220 C 
ATOM     12  O1  UNL     1      20.117   7.887  35.573  0.00  0.00    -0.275 OA
ATOM     13  N1  UNL     1      20.246   9.219  37.496  0.00  0.00    -0.285 N 
ATOM     14  H8  UNL     1      20.639   9.251  38.464  0.00  0.00    +0.155 HD
BRANCH  11  16
ATOM     15  C1  UNL     1      22.447   6.544  35.810  0.00  0.00    +0.017 C 
ATOM     16  C2  UNL     1      22.091   7.567  36.895  0.00  0.00    +0.069 C 
ATOM     17  C3  UNL     1      22.038   6.907  38.274  0.00  0.00    +0.017 C 
ENDBRANCH  11  16
ENDBRANCH   5  13
ENDBRANCH   1   8
BRANCH   3  18
ATOM     18  C10 UNL     1      13.515  13.563  36.739  0.00  0.00    +0.111 C 
BRANCH  18  19
ATOM     19  C11 UNL     1      12.281  12.674  36.456  0.00  0.00    +0.040 C 
ATOM     20  C12 UNL     1      12.323  11.402  37.326  0.00  0.00    +0.010 C 
ATOM     21  C13 UNL     1      11.205  10.440  36.931  0.00  0.00    +0.028 C 
ATOM     22  C14 UNL     1      11.234  10.205  35.421  0.00  0.00    +0.160 C 
ATOM     23  O3  UNL     1      11.082  11.427  34.725  0.00  0.00    -0.372 OA
ATOM     24  C15 UNL     1      12.197  12.272  34.957  0.00  0.00    +0.156 C 
BRANCH  24  25
ATOM     25  C16 UNL     1      12.043  13.485  34.083  0.00  0.00    +0.019 A 
ATOM     26  C17 UNL     1      12.932  13.960  33.138  0.00  0.00    +0.140 A 
ATOM     27  N3  UNL     1      12.406  15.050  32.546  0.00  0.00    -0.182 NA
ATOM     28  N4  UNL     1      11.218  15.271  33.085  0.00  0.00    -0.284 N 
ATOM     29  C18 UNL     1      10.963  14.340  34.021  0.00  0.00    +0.111 A 
ATOM     30  H23 UNL     1      10.584  16.053  32.811  0.00  0.00    +0.188 HD
ENDBRANCH  24  25
ENDBRANCH  18  19
ENDBRANCH   3  18
TORSDOF 6
ENDMDL
MODEL 2
REMARK VINA RESULT:    -6.370     15.392     17.523
REMARK INTER + INTRA:          -9.630
REMARK INTER:                  -8.554
REMARK INTRA:                  -1.076
REMARK UNBOUND:                -1.025
REMARK  Name = /home/qwerty/github/datacon2025hack/step_04_hit_selection/docking/ligands/lig_670.pdb
REMARK  8 active torsions:
REMARK  status: ('A' for Active; 'I' for Inactive)
REMARK    1  A    between atoms: C1_1  and  C2_2
REMARK    2  A    between atoms: C2_2  and  C3_3
REMARK    3  A    between atoms: C2_2  and  C4_4
REMARK    4  A    between atoms: N1_6  and  C5_7
REMARK    5  A    between atoms: C8_10  and  C9_11
REMARK    6  A    between atoms: N2_13  and  C10_14
REMARK    7  A    between atoms: C10_14  and  C11_15
REMARK    8  A    between atoms: C15_20  and  C16_21
REMARK                            x       y       z     vdW  Elec       q    Type
REMARK                         _______ _______ _______ _____ _____    ______ ____
ROOT
ATOM      1  C9  UNL     1      19.710  12.544  19.364  0.00  0.00    +0.244 C 
ATOM      2  O2  UNL     1      20.568  12.872  18.500  0.00  0.00    -0.270 OA
ATOM      3  N2  UNL     1      19.440  13.425  20.468  0.00  0.00    -0.311 N 
ATOM      4  H11 UNL     1      18.787  13.131  21.227  0.00  0.00    +0.149 HD
ENDROOT
BRANCH   1   8
ATOM      5  C5  UNL     1      17.644   8.781  19.006  0.00  0.00    +0.033 A 
ATOM      6  C6  UNL     1      16.944   9.955  19.335  0.00  0.00    +0.024 A 
ATOM      7  C7  UNL     1      17.622  11.172  19.454  0.00  0.00    +0.015 A 
ATOM      8  C8  UNL     1      19.007  11.245  19.228  0.00  0.00    +0.037 A 
ATOM      9  C19 UNL     1      19.703  10.070  18.891  0.00  0.00    +0.015 A 
ATOM     10  C20 UNL     1      19.024   8.854  18.772  0.00  0.00    +0.024 A 
BRANCH   5  13
ATOM     11  C4  UNL     1      16.790   6.570  19.918  0.00  0.00    +0.220 C 
ATOM     12  O1  UNL     1      17.464   6.669  20.981  0.00  0.00    -0.275 OA
ATOM     13  N1  UNL     1      16.968   7.521  18.855  0.00  0.00    -0.285 N 
ATOM     14  H8  UNL     1      16.661   7.242  17.895  0.00  0.00    +0.155 HD
BRANCH  11  16
ATOM     15  C1  UNL     1      14.627   5.529  20.627  0.00  0.00    +0.017 C 
ATOM     16  C2  UNL     1      15.863   5.398  19.730  0.00  0.00    +0.069 C 
ATOM     17  C3  UNL     1      16.603   4.087  20.006  0.00  0.00    +0.017 C 
ENDBRANCH  11  16
ENDBRANCH   5  13
ENDBRANCH   1   8
BRANCH   3  18
ATOM     18  C10 UNL     1      20.075  14.737  20.594  0.00  0.00    +0.111 C 
BRANCH  18  19
ATOM     19  C11 UNL     1      20.825  14.869  21.941  0.00  0.00    +0.040 C 
ATOM     20  C12 UNL     1      20.245  16.033  22.768  0.00  0.00    +0.010 C 
ATOM     21  C13 UNL     1      21.087  16.280  24.018  0.00  0.00    +0.028 C 
ATOM     22  C14 UNL     1      22.560  16.418  23.631  0.00  0.00    +0.160 C 
ATOM     23  O3  UNL     1      23.011  15.251  22.973  0.00  0.00    -0.372 OA
ATOM     24  C15 UNL     1      22.349  15.094  21.728  0.00  0.00    +0.156 C 
BRANCH  24  25
ATOM     25  C16 UNL     1      22.971  13.925  21.020  0.00  0.00    +0.019 A 
ATOM     26  C17 UNL     1      22.969  12.601  21.418  0.00  0.00    +0.140 A 
ATOM     27  N3  UNL     1      23.602  11.860  20.488  0.00  0.00    -0.182 NA
ATOM     28  N4  UNL     1      23.998  12.674  19.522  0.00  0.00    -0.284 N 
ATOM     29  C18 UNL     1      23.631  13.934  19.809  0.00  0.00    +0.111 A 
ATOM     30  H23 UNL     1      24.513  12.365  18.668  0.00  0.00    +0.188 HD
ENDBRANCH  24  25
ENDBRANCH  18  19
ENDBRANCH   3  18
TORSDOF 6
ENDMDL
MODEL 3
REMARK VINA RESULT:    -6.318     15.716     16.978
REMARK INTER + INTRA:          -9.559
REMARK INTER:                  -8.837
REMARK INTRA:                  -0.722
REMARK UNBOUND:                -1.025
REMARK  Name = /home/qwerty/github/datacon2025hack/step_04_hit_selection/docking/ligands/lig_670.pdb
REMARK  8 active torsions:
REMARK  status: ('A' for Active; 'I' for Inactive)
REMARK    1  A    between atoms: C1_1  and  C2_2
REMARK    2  A    between atoms: C2_2  and  C3_3
REMARK    3  A    between atoms: C2_2  and  C4_4
REMARK    4  A    between atoms: N1_6  and  C5_7
REMARK    5  A    between atoms: C8_10  and  C9_11
REMARK    6  A    between atoms: N2_13  and  C10_14
REMARK    7  A    between atoms: C10_14  and  C11_15
REMARK    8  A    between atoms: C15_20  and  C16_21
REMARK                            x       y       z     vdW  Elec       q    Type
REMARK                         _______ _______ _______ _____ _____    ______ ____
ROOT
ATOM      1  C9  UNL     1      12.728   3.635  20.177  0.00  0.00    +0.244 C 
ATOM      2  O2  UNL     1      13.378   4.325  19.344  0.00  0.00    -0.270 OA
ATOM      3  N2  UNL     1      11.416   4.061  20.582  0.00  0.00    -0.311 N 
ATOM      4  H11 UNL     1      10.901   3.539  21.324  0.00  0.00    +0.149 HD
ENDROOT
BRANCH   1   8
ATOM      5  C5  UNL     1      14.497   0.073  21.830  0.00  0.00    +0.033 A 
ATOM      6  C6  UNL     1      13.240   0.522  22.273  0.00  0.00    +0.024 A 
ATOM      7  C7  UNL     1      12.675   1.682  21.735  0.00  0.00    +0.015 A 
ATOM      8  C8  UNL     1      13.342   2.405  20.732  0.00  0.00    +0.037 A 
ATOM      9  C19 UNL     1      14.594   1.948  20.284  0.00  0.00    +0.015 A 
ATOM     10  C20 UNL     1      15.158   0.787  20.823  0.00  0.00    +0.024 A 
BRANCH   5  13
ATOM     11  C4  UNL     1      15.803  -1.201  23.595  0.00  0.00    +0.220 C 
ATOM     12  O1  UNL     1      16.187  -0.146  24.172  0.00  0.00    -0.275 OA
ATOM     13  N1  UNL     1      15.090  -1.130  22.349  0.00  0.00    -0.285 N 
ATOM     14  H8  UNL     1      15.076  -1.983  21.746  0.00  0.00    +0.155 HD
BRANCH  11  16
ATOM     15  C1  UNL     1      15.104  -3.031  25.154  0.00  0.00    +0.017 C 
ATOM     16  C2  UNL     1      16.175  -2.543  24.171  0.00  0.00    +0.069 C 
ATOM     17  C3  UNL     1      17.545  -2.468  24.849  0.00  0.00    +0.017 C 
ENDBRANCH  11  16
ENDBRANCH   5  13
ENDBRANCH   1   8
BRANCH   3  18
ATOM     18  C10 UNL     1      10.764   5.238  20.006  0.00  0.00    +0.111 C 
BRANCH  18  19
ATOM     19  C11 UNL     1       9.590   5.717  20.894  0.00  0.00    +0.040 C 
ATOM     20  C12 UNL     1       8.420   4.716  20.825  0.00  0.00    +0.010 C 
ATOM     21  C13 UNL     1       7.197   5.263  21.557  0.00  0.00    +0.028 C 
ATOM     22  C14 UNL     1       6.884   6.675  21.060  0.00  0.00    +0.160 C 
ATOM     23  O3  UNL     1       7.990   7.531  21.269  0.00  0.00    -0.372 OA
ATOM     24  C15 UNL     1       9.090   7.127  20.470  0.00  0.00    +0.156 C 
BRANCH  24  25
ATOM     25  C16 UNL     1      10.176   8.153  20.629  0.00  0.00    +0.019 A 
ATOM     26  C17 UNL     1      10.805   8.537  21.798  0.00  0.00    +0.140 A 
ATOM     27  N3  UNL     1      11.747   9.457  21.510  0.00  0.00    -0.182 NA
ATOM     28  N4  UNL     1      11.730   9.658  20.202  0.00  0.00    -0.284 N 
ATOM     29  C18 UNL     1      10.791   8.882  19.634  0.00  0.00    +0.111 A 
ATOM     30  H23 UNL     1      12.362  10.320  19.701  0.00  0.00    +0.188 HD
ENDBRANCH  24  25
ENDBRANCH  18  19
ENDBRANCH   3  18
TORSDOF 6
ENDMDL
MODEL 4
REMARK VINA RESULT:    -6.189      1.765      3.032
REMARK INTER + INTRA:          -9.384
REMARK INTER:                  -8.478
REMARK INTRA:                  -0.906
REMARK UNBOUND:                -1.025
REMARK  Name = /home/qwerty/github/datacon2025hack/step_04_hit_selection/docking/ligands/lig_670.pdb
REMARK  8 active torsions:
REMARK  status: ('A' for Active; 'I' for Inactive)
REMARK    1  A    between atoms: C1_1  and  C2_2
REMARK    2  A    between atoms: C2_2  and  C3_3
REMARK    3  A    between atoms: C2_2  and  C4_4
REMARK    4  A    between atoms: N1_6  and  C5_7
REMARK    5  A    between atoms: C8_10  and  C9_11
REMARK    6  A    between atoms: N2_13  and  C10_14
REMARK    7  A    between atoms: C10_14  and  C11_15
REMARK    8  A    between atoms: C15_20  and  C16_21
REMARK                            x       y       z     vdW  Elec       q    Type
REMARK                         _______ _______ _______ _____ _____    ______ ____
ROOT
ATOM      1  C9  UNL     1      16.229  12.912  36.547  0.00  0.00    +0.244 C 
ATOM      2  O2  UNL     1      16.545  13.911  35.846  0.00  0.00    -0.270 OA
ATOM      3  N2  UNL     1      14.899  12.815  37.087  0.00  0.00    -0.311 N 
ATOM      4  H11 UNL     1      14.649  12.031  37.728  0.00  0.00    +0.149 HD
ENDROOT
BRANCH   1   8
ATOM      5  C5  UNL     1      19.162   9.865  37.362  0.00  0.00    +0.033 A 
ATOM      6  C6  UNL     1      17.849   9.745  37.848  0.00  0.00    +0.024 A 
ATOM      7  C7  UNL     1      16.903  10.740  37.585  0.00  0.00    +0.015 A 
ATOM      8  C8  UNL     1      17.244  11.865  36.813  0.00  0.00    +0.037 A 
ATOM      9  C19 UNL     1      18.556  11.977  36.320  0.00  0.00    +0.015 A 
ATOM     10  C20 UNL     1      19.500  10.981  36.585  0.00  0.00    +0.024 A 
BRANCH   5  13
ATOM     11  C4  UNL     1      20.512   7.840  36.637  0.00  0.00    +0.220 C 
ATOM     12  O1  UNL     1      19.785   7.630  35.628  0.00  0.00    -0.275 OA
ATOM     13  N1  UNL     1      20.147   8.845  37.599  0.00  0.00    -0.285 N 
ATOM     14  H8  UNL     1      20.562   8.777  38.556  0.00  0.00    +0.155 HD
BRANCH  11  16
ATOM     15  C1  UNL     1      22.126   7.004  38.358  0.00  0.00    +0.017 C 
ATOM     16  C2  UNL     1      21.719   6.972  36.881  0.00  0.00    +0.069 C 
ATOM     17  C3  UNL     1      22.879   7.412  35.984  0.00  0.00    +0.017 C 
ENDBRANCH  11  16
ENDBRANCH   5  13
ENDBRANCH   1   8
BRANCH   3  18
ATOM     18  C10 UNL     1      13.862  13.804  36.791  0.00  0.00    +0.111 C 
BRANCH  18  19
ATOM     19  C11 UNL     1      13.214  13.539  35.411  0.00  0.00    +0.040 C 
ATOM     20  C12 UNL     1      13.363  14.774  34.501  0.00  0.00    +0.010 C 
ATOM     21  C13 UNL     1      12.579  14.587  33.203  0.00  0.00    +0.028 C 
ATOM     22  C14 UNL     1      11.142  14.174  33.522  0.00  0.00    +0.160 C 
ATOM     23  O3  UNL     1      11.124  12.974  34.270  0.00  0.00    -0.372 OA
ATOM     24  C15 UNL     1      11.708  13.175  35.546  0.00  0.00    +0.156 C 
BRANCH  24  25
ATOM     25  C16 UNL     1      11.530  11.910  36.337  0.00  0.00    +0.019 A 
ATOM     26  C17 UNL     1      10.894  11.762  37.555  0.00  0.00    +0.140 A 
ATOM     27  N3  UNL     1      10.918  10.462  37.910  0.00  0.00    -0.182 NA
ATOM     28  N4  UNL     1      11.545   9.793  36.955  0.00  0.00    -0.284 N 
ATOM     29  C18 UNL     1      11.929  10.639  35.983  0.00  0.00    +0.111 A 
ATOM     30  H23 UNL     1      11.704   8.762  36.968  0.00  0.00    +0.188 HD
ENDBRANCH  24  25
ENDBRANCH  18  19
ENDBRANCH   3  18
TORSDOF 6
ENDMDL
MODEL 5
REMARK VINA RESULT:    -6.156     14.650     16.458
REMARK INTER + INTRA:          -9.340
REMARK INTER:                  -8.373
REMARK INTRA:                  -0.967
REMARK UNBOUND:                -1.025
REMARK  Name = /home/qwerty/github/datacon2025hack/step_04_hit_selection/docking/ligands/lig_670.pdb
REMARK  8 active torsions:
REMARK  status: ('A' for Active; 'I' for Inactive)
REMARK    1  A    between atoms: C1_1  and  C2_2
REMARK    2  A    between atoms: C2_2  and  C3_3
REMARK    3  A    between atoms: C2_2  and  C4_4
REMARK    4  A    between atoms: N1_6  and  C5_7
REMARK    5  A    between atoms: C8_10  and  C9_11
REMARK    6  A    between atoms: N2_13  and  C10_14
REMARK    7  A    between atoms: C10_14  and  C11_15
REMARK    8  A    between atoms: C15_20  and  C16_21
REMARK                            x       y       z     vdW  Elec       q    Type
REMARK                         _______ _______ _______ _____ _____    ______ ____
ROOT
ATOM      1  C9  UNL     1      10.038   5.617  21.527  0.00  0.00    +0.244 C 
ATOM      2  O2  UNL     1       9.464   5.734  22.644  0.00  0.00    -0.270 OA
ATOM      3  N2  UNL     1       9.768   6.571  20.486  0.00  0.00    -0.311 N 
ATOM      4  H11 UNL     1      10.180   6.442  19.536  0.00  0.00    +0.149 HD
ENDROOT
BRANCH   1   8
ATOM      5  C5  UNL     1      12.738   2.330  20.846  0.00  0.00    +0.033 A 
ATOM      6  C6  UNL     1      12.758   3.459  20.010  0.00  0.00    +0.024 A 
ATOM      7  C7  UNL     1      11.875   4.520  20.234  0.00  0.00    +0.015 A 
ATOM      8  C8  UNL     1      10.970   4.484  21.308  0.00  0.00    +0.037 A 
ATOM      9  C19 UNL     1      10.958   3.356  22.148  0.00  0.00    +0.015 A 
ATOM     10  C20 UNL     1      11.842   2.296  21.923  0.00  0.00    +0.024 A 
BRANCH   5  13
ATOM     11  C4  UNL     1      14.938   1.141  21.284  0.00  0.00    +0.220 C 
ATOM     12  O1  UNL     1      15.456   2.154  21.830  0.00  0.00    -0.275 OA
ATOM     13  N1  UNL     1      13.650   1.235  20.653  0.00  0.00    -0.285 N 
ATOM     14  H8  UNL     1      13.398   0.507  19.946  0.00  0.00    +0.155 HD
BRANCH  11  16
ATOM     15  C1  UNL     1      16.713  -0.247  22.374  0.00  0.00    +0.017 C 
ATOM     16  C2  UNL     1      15.715  -0.149  21.215  0.00  0.00    +0.069 C 
ATOM     17  C3  UNL     1      16.429  -0.266  19.867  0.00  0.00    +0.017 C 
ENDBRANCH  11  16
ENDBRANCH   5  13
ENDBRANCH   1   8
BRANCH   3  18
ATOM     18  C10 UNL     1       8.900   7.731  20.695  0.00  0.00    +0.111 C 
BRANCH  18  19
ATOM     19  C11 UNL     1       9.723   9.040  20.764  0.00  0.00    +0.040 C 
ATOM     20  C12 UNL     1      11.028   8.898  19.956  0.00  0.00    +0.010 C 
ATOM     21  C13 UNL     1      11.925  10.117  20.159  0.00  0.00    +0.028 C 
ATOM     22  C14 UNL     1      12.103  10.386  21.654  0.00  0.00    +0.160 C 
ATOM     23  O3  UNL     1      10.849  10.604  22.272  0.00  0.00    -0.372 OA
ATOM     24  C15 UNL     1      10.063   9.425  22.231  0.00  0.00    +0.156 C 
BRANCH  24  25
ATOM     25  C16 UNL     1       8.812   9.679  23.024  0.00  0.00    +0.019 A 
ATOM     26  C17 UNL     1       8.480   9.162  24.261  0.00  0.00    +0.140 A 
ATOM     27  N3  UNL     1       7.289   9.664  24.644  0.00  0.00    -0.182 NA
ATOM     28  N4  UNL     1       6.867  10.479  23.689  0.00  0.00    -0.284 N 
ATOM     29  C18 UNL     1       7.767  10.515  22.691  0.00  0.00    +0.111 A 
ATOM     30  H23 UNL     1       5.970  11.010  23.725  0.00  0.00    +0.188 HD
ENDBRANCH  24  25
ENDBRANCH  18  19
ENDBRANCH   3  18
TORSDOF 6
ENDMDL
MODEL 6
REMARK VINA RESULT:    -6.124     15.585     16.844
REMARK INTER + INTRA:          -9.297
REMARK INTER:                  -8.588
REMARK INTRA:                  -0.709
REMARK UNBOUND:                -1.025
REMARK  Name = /home/qwerty/github/datacon2025hack/step_04_hit_selection/docking/ligands/lig_670.pdb
REMARK  8 active torsions:
REMARK  status: ('A' for Active; 'I' for Inactive)
REMARK    1  A    between atoms: C1_1  and  C2_2
REMARK    2  A    between atoms: C2_2  and  C3_3
REMARK    3  A    between atoms: C2_2  and  C4_4
REMARK    4  A    between atoms: N1_6  and  C5_7
REMARK    5  A    between atoms: C8_10  and  C9_11
REMARK    6  A    between atoms: N2_13  and  C10_14
REMARK    7  A    between atoms: C10_14  and  C11_15
REMARK    8  A    between atoms: C15_20  and  C16_21
REMARK                            x       y       z     vdW  Elec       q    Type
REMARK                         _______ _______ _______ _____ _____    ______ ____
ROOT
ATOM      1  C9  UNL     1      12.599   3.927  20.222  0.00  0.00    +0.244 C 
ATOM      2  O2  UNL     1      13.060   4.345  19.125  0.00  0.00    -0.270 OA
ATOM      3  N2  UNL     1      11.574   4.678  20.895  0.00  0.00    -0.311 N 
ATOM      4  H11 UNL     1      11.239   4.381  21.838  0.00  0.00    +0.149 HD
ENDROOT
BRANCH   1   8
ATOM      5  C5  UNL     1      14.153   0.299  21.948  0.00  0.00    +0.033 A 
ATOM      6  C6  UNL     1      12.858   0.746  22.263  0.00  0.00    +0.024 A 
ATOM      7  C7  UNL     1      12.362   1.928  21.704  0.00  0.00    +0.015 A 
ATOM      8  C8  UNL     1      13.140   2.675  20.803  0.00  0.00    +0.037 A 
ATOM      9  C19 UNL     1      14.432   2.219  20.482  0.00  0.00    +0.015 A 
ATOM     10  C20 UNL     1      14.926   1.037  21.042  0.00  0.00    +0.024 A 
BRANCH   5  13
ATOM     11  C4  UNL     1      15.205  -1.052  23.823  0.00  0.00    +0.220 C 
ATOM     12  O1  UNL     1      15.490  -0.024  24.497  0.00  0.00    -0.275 OA
ATOM     13  N1  UNL     1      14.678  -0.924  22.491  0.00  0.00    -0.285 N 
ATOM     14  H8  UNL     1      14.759  -1.748  21.854  0.00  0.00    +0.155 HD
BRANCH  11  16
ATOM     15  C1  UNL     1      14.486  -2.798  25.467  0.00  0.00    +0.017 C 
ATOM     16  C2  UNL     1      15.503  -2.418  24.384  0.00  0.00    +0.069 C 
ATOM     17  C3  UNL     1      16.930  -2.465  24.934  0.00  0.00    +0.017 C 
ENDBRANCH  11  16
ENDBRANCH   5  13
ENDBRANCH   1   8
BRANCH   3  18
ATOM     18  C10 UNL     1      10.981   5.884  20.316  0.00  0.00    +0.111 C 
BRANCH  18  19
ATOM     19  C11 UNL     1      10.431   6.821  21.418  0.00  0.00    +0.040 C 
ATOM     20  C12 UNL     1      11.562   7.251  22.373  0.00  0.00    +0.010 C 
ATOM     21  C13 UNL     1      11.001   8.032  23.559  0.00  0.00    +0.028 C 
ATOM     22  C14 UNL     1       9.860   7.245  24.204  0.00  0.00    +0.160 C 
ATOM     23  O3  UNL     1       8.833   6.998  23.264  0.00  0.00    -0.372 OA
ATOM     24  C15 UNL     1       9.297   6.139  22.235  0.00  0.00    +0.156 C 
BRANCH  24  25
ATOM     25  C16 UNL     1       8.127   5.803  21.354  0.00  0.00    +0.019 A 
ATOM     26  C17 UNL     1       7.091   6.636  20.979  0.00  0.00    +0.140 A 
ATOM     27  N3  UNL     1       6.263   5.966  20.153  0.00  0.00    -0.182 NA
ATOM     28  N4  UNL     1       6.748   4.744  19.997  0.00  0.00    -0.284 N 
ATOM     29  C18 UNL     1       7.880   4.610  20.710  0.00  0.00    +0.111 A 
ATOM     30  H23 UNL     1       6.308   4.008  19.403  0.00  0.00    +0.188 HD
ENDBRANCH  24  25
ENDBRANCH  18  19
ENDBRANCH   3  18
TORSDOF 6
ENDMDL
MODEL 7
REMARK VINA RESULT:    -6.089      3.347     10.371
REMARK INTER + INTRA:          -9.250
REMARK INTER:                  -8.295
REMARK INTRA:                  -0.956
REMARK UNBOUND:                -1.025
REMARK  Name = /home/qwerty/github/datacon2025hack/step_04_hit_selection/docking/ligands/lig_670.pdb
REMARK  8 active torsions:
REMARK  status: ('A' for Active; 'I' for Inactive)
REMARK    1  A    between atoms: C1_1  and  C2_2
REMARK    2  A    between atoms: C2_2  and  C3_3
REMARK    3  A    between atoms: C2_2  and  C4_4
REMARK    4  A    between atoms: N1_6  and  C5_7
REMARK    5  A    between atoms: C8_10  and  C9_11
REMARK    6  A    between atoms: N2_13  and  C10_14
REMARK    7  A    between atoms: C10_14  and  C11_15
REMARK    8  A    between atoms: C15_20  and  C16_21
REMARK                            x       y       z     vdW  Elec       q    Type
REMARK                         _______ _______ _______ _____ _____    ______ ____
ROOT
ATOM      1  C9  UNL     1      21.419   8.254  36.039  0.00  0.00    +0.244 C 
ATOM      2  O2  UNL     1      21.135   7.090  36.435  0.00  0.00    -0.270 OA
ATOM      3  N2  UNL     1      22.655   8.485  35.341  0.00  0.00    -0.311 N 
ATOM      4  H11 UNL     1      22.933   9.455  35.075  0.00  0.00    +0.149 HD
ENDROOT
BRANCH   1   8
ATOM      5  C5  UNL     1      18.710  11.504  36.846  0.00  0.00    +0.033 A 
ATOM      6  C6  UNL     1      19.738  11.646  35.898  0.00  0.00    +0.024 A 
ATOM      7  C7  UNL     1      20.618  10.589  35.645  0.00  0.00    +0.015 A 
ATOM      8  C8  UNL     1      20.475   9.363  36.317  0.00  0.00    +0.037 A 
ATOM      9  C19 UNL     1      19.439   9.221  37.258  0.00  0.00    +0.015 A 
ATOM     10  C20 UNL     1      18.561  10.279  37.510  0.00  0.00    +0.024 A 
BRANCH   5  13
ATOM     11  C4  UNL     1      16.564  12.773  36.368  0.00  0.00    +0.220 C 
ATOM     12  O1  UNL     1      16.385  12.192  35.262  0.00  0.00    -0.275 OA
ATOM     13  N1  UNL     1      17.779  12.568  37.108  0.00  0.00    -0.285 N 
ATOM     14  H8  UNL     1      18.041  13.283  37.823  0.00  0.00    +0.155 HD
BRANCH  11  16
ATOM     15  C1  UNL     1      14.128  13.156  36.803  0.00  0.00    +0.017 C 
ATOM     16  C2  UNL     1      15.537  13.757  36.868  0.00  0.00    +0.069 C 
ATOM     17  C3  UNL     1      15.615  15.058  36.066  0.00  0.00    +0.017 C 
ENDBRANCH  11  16
ENDBRANCH   5  13
ENDBRANCH   1   8
BRANCH   3  18
ATOM     18  C10 UNL     1      23.576   7.400  35.002  0.00  0.00    +0.111 C 
BRANCH  18  19
ATOM     19  C11 UNL     1      23.913   7.405  33.491  0.00  0.00    +0.040 C 
ATOM     20  C12 UNL     1      24.267   8.831  33.025  0.00  0.00    +0.010 C 
ATOM     21  C13 UNL     1      24.433   8.878  31.507  0.00  0.00    +0.028 C 
ATOM     22  C14 UNL     1      23.213   8.249  30.834  0.00  0.00    +0.160 C 
ATOM     23  O3  UNL     1      23.047   6.910  31.257  0.00  0.00    -0.372 OA
ATOM     24  C15 UNL     1      22.733   6.861  32.639  0.00  0.00    +0.156 C 
BRANCH  24  25
ATOM     25  C16 UNL     1      22.431   5.431  32.991  0.00  0.00    +0.019 A 
ATOM     26  C17 UNL     1      21.304   4.940  33.622  0.00  0.00    +0.140 A 
ATOM     27  N3  UNL     1      21.402   3.600  33.719  0.00  0.00    -0.182 NA
ATOM     28  N4  UNL     1      22.549   3.236  33.167  0.00  0.00    -0.284 N 
ATOM     29  C18 UNL     1      23.200   4.321  32.713  0.00  0.00    +0.111 A 
ATOM     30  H23 UNL     1      22.882   2.250  33.100  0.00  0.00    +0.188 HD
ENDBRANCH  24  25
ENDBRANCH  18  19
ENDBRANCH   3  18
TORSDOF 6
ENDMDL
MODEL 8
REMARK VINA RESULT:    -6.007     10.632     14.154
REMARK INTER + INTRA:          -9.139
REMARK INTER:                  -8.419
REMARK INTRA:                  -0.720
REMARK UNBOUND:                -1.025
REMARK  Name = /home/qwerty/github/datacon2025hack/step_04_hit_selection/docking/ligands/lig_670.pdb
REMARK  8 active torsions:
REMARK  status: ('A' for Active; 'I' for Inactive)
REMARK    1  A    between atoms: C1_1  and  C2_2
REMARK    2  A    between atoms: C2_2  and  C3_3
REMARK    3  A    between atoms: C2_2  and  C4_4
REMARK    4  A    between atoms: N1_6  and  C5_7
REMARK    5  A    between atoms: C8_10  and  C9_11
REMARK    6  A    between atoms: N2_13  and  C10_14
REMARK    7  A    between atoms: C10_14  and  C11_15
REMARK    8  A    between atoms: C15_20  and  C16_21
REMARK                            x       y       z     vdW  Elec       q    Type
REMARK                         _______ _______ _______ _____ _____    ______ ____
ROOT
ATOM      1  C9  UNL     1       8.918   9.851  25.371  0.00  0.00    +0.244 C 
ATOM      2  O2  UNL     1       7.719   9.496  25.202  0.00  0.00    -0.270 OA
ATOM      3  N2  UNL     1       9.942   9.327  24.508  0.00  0.00    -0.311 N 
ATOM      4  H11 UNL     1      10.944   9.556  24.685  0.00  0.00    +0.149 HD
ENDROOT
BRANCH   1   8
ATOM      5  C5  UNL     1       9.908  12.566  28.565  0.00  0.00    +0.033 A 
ATOM      6  C6  UNL     1      10.889  12.149  27.648  0.00  0.00    +0.024 A 
ATOM      7  C7  UNL     1      10.562  11.263  26.617  0.00  0.00    +0.015 A 
ATOM      8  C8  UNL     1       9.245  10.793  26.468  0.00  0.00    +0.037 A 
ATOM      9  C19 UNL     1       8.265  11.220  27.381  0.00  0.00    +0.015 A 
ATOM     10  C20 UNL     1       8.594  12.106  28.411  0.00  0.00    +0.024 A 
BRANCH   5  13
ATOM     11  C4  UNL     1      10.863  13.128  30.849  0.00  0.00    +0.220 C 
ATOM     12  O1  UNL     1      10.954  11.916  31.186  0.00  0.00    -0.275 OA
ATOM     13  N1  UNL     1      10.213  13.494  29.620  0.00  0.00    -0.285 N 
ATOM     14  H8  UNL     1       9.866  14.475  29.525  0.00  0.00    +0.155 HD
BRANCH  11  16
ATOM     15  C1  UNL     1      12.674  14.803  31.276  0.00  0.00    +0.017 C 
ATOM     16  C2  UNL     1      11.359  14.201  31.784  0.00  0.00    +0.069 C 
ATOM     17  C3  UNL     1      11.525  13.638  33.197  0.00  0.00    +0.017 C 
ENDBRANCH  11  16
ENDBRANCH   5  13
ENDBRANCH   1   8
BRANCH   3  18
ATOM     18  C10 UNL     1       9.639   8.443  23.382  0.00  0.00    +0.111 C 
BRANCH  18  19
ATOM     19  C11 UNL     1      10.587   8.713  22.189  0.00  0.00    +0.040 C 
ATOM     20  C12 UNL     1      11.134  10.153  22.252  0.00  0.00    +0.010 C 
ATOM     21  C13 UNL     1      11.930  10.484  20.991  0.00  0.00    +0.028 C 
ATOM     22  C14 UNL     1      11.100  10.150  19.752  0.00  0.00    +0.160 C 
ATOM     23  O3  UNL     1      10.743   8.781  19.747  0.00  0.00    -0.372 OA
ATOM     24  C15 UNL     1       9.870   8.492  20.827  0.00  0.00    +0.156 C 
BRANCH  24  25
ATOM     25  C16 UNL     1       9.419   7.066  20.683  0.00  0.00    +0.019 A 
ATOM     26  C17 UNL     1       8.147   6.561  20.882  0.00  0.00    +0.140 A 
ATOM     27  N3  UNL     1       8.150   5.241  20.615  0.00  0.00    -0.182 NA
ATOM     28  N4  UNL     1       9.378   4.903  20.253  0.00  0.00    -0.284 N 
ATOM     29  C18 UNL     1      10.175   5.985  20.281  0.00  0.00    +0.111 A 
ATOM     30  H23 UNL     1       9.667   3.937  19.985  0.00  0.00    +0.188 HD
ENDBRANCH  24  25
ENDBRANCH  18  19
ENDBRANCH   3  18
TORSDOF 6
ENDMDL
MODEL 9
REMARK VINA RESULT:    -5.872      2.631      4.290
REMARK INTER + INTRA:          -8.957
REMARK INTER:                  -8.166
REMARK INTRA:                  -0.791
REMARK UNBOUND:                -1.025
REMARK  Name = /home/qwerty/github/datacon2025hack/step_04_hit_selection/docking/ligands/lig_670.pdb
REMARK  8 active torsions:
REMARK  status: ('A' for Active; 'I' for Inactive)
REMARK    1  A    between atoms: C1_1  and  C2_2
REMARK    2  A    between atoms: C2_2  and  C3_3
REMARK    3  A    between atoms: C2_2  and  C4_4
REMARK    4  A    between atoms: N1_6  and  C5_7
REMARK    5  A    between atoms: C8_10  and  C9_11
REMARK    6  A    between atoms: N2_13  and  C10_14
REMARK    7  A    between atoms: C10_14  and  C11_15
REMARK    8  A    between atoms: C15_20  and  C16_21
REMARK                            x       y       z     vdW  Elec       q    Type
REMARK                         _______ _______ _______ _____ _____    ______ ____
ROOT
ATOM      1  C9  UNL     1      17.835   9.742  37.428  0.00  0.00    +0.244 C 
ATOM      2  O2  UNL     1      17.587   9.620  38.659  0.00  0.00    -0.270 OA
ATOM      3  N2  UNL     1      16.815  10.240  36.545  0.00  0.00    -0.311 N 
ATOM      4  H11 UNL     1      16.984  10.276  35.516  0.00  0.00    +0.149 HD
ENDROOT
BRANCH   1   8
ATOM      5  C5  UNL     1      21.703   8.621  35.902  0.00  0.00    +0.033 A 
ATOM      6  C6  UNL     1      21.017   9.728  35.373  0.00  0.00    +0.024 A 
ATOM      7  C7  UNL     1      19.759  10.083  35.869  0.00  0.00    +0.015 A 
ATOM      8  C8  UNL     1      19.171   9.353  36.917  0.00  0.00    +0.037 A 
ATOM      9  C19 UNL     1      19.865   8.252  37.450  0.00  0.00    +0.015 A 
ATOM     10  C20 UNL     1      21.122   7.899  36.952  0.00  0.00    +0.024 A 
BRANCH   5  13
ATOM     11  C4  UNL     1      23.236   7.424  34.269  0.00  0.00    +0.220 C 
ATOM     12  O1  UNL     1      22.293   6.752  33.768  0.00  0.00    -0.275 OA
ATOM     13  N1  UNL     1      23.007   8.248  35.425  0.00  0.00    -0.285 N 
ATOM     14  H8  UNL     1      23.836   8.522  36.000  0.00  0.00    +0.155 HD
BRANCH  11  16
ATOM     15  C1  UNL     1      25.002   8.525  32.878  0.00  0.00    +0.017 C 
ATOM     16  C2  UNL     1      24.627   7.291  33.706  0.00  0.00    +0.069 C 
ATOM     17  C3  UNL     1      24.740   6.015  32.868  0.00  0.00    +0.017 C 
ENDBRANCH  11  16
ENDBRANCH   5  13
ENDBRANCH   1   8
BRANCH   3  18
ATOM     18  C10 UNL     1      15.509  10.687  37.031  0.00  0.00    +0.111 C 
BRANCH  18  19
ATOM     19  C11 UNL     1      15.051  11.973  36.302  0.00  0.00    +0.040 C 
ATOM     20  C12 UNL     1      16.068  13.109  36.527  0.00  0.00    +0.010 C 
ATOM     21  C13 UNL     1      15.542  14.426  35.958  0.00  0.00    +0.028 C 
ATOM     22  C14 UNL     1      14.132  14.691  36.487  0.00  0.00    +0.160 C 
ATOM     23  O3  UNL     1      13.262  13.634  36.133  0.00  0.00    -0.372 OA
ATOM     24  C15 UNL     1      13.647  12.434  36.784  0.00  0.00    +0.156 C 
BRANCH  24  25
ATOM     25  C16 UNL     1      12.606  11.393  36.480  0.00  0.00    +0.019 A 
ATOM     26  C17 UNL     1      11.763  10.761  37.374  0.00  0.00    +0.140 A 
ATOM     27  N3  UNL     1      10.954   9.922  36.699  0.00  0.00    -0.182 NA
ATOM     28  N4  UNL     1      11.260  10.010  35.414  0.00  0.00    -0.284 N 
ATOM     29  C18 UNL     1      12.258  10.894  35.243  0.00  0.00    +0.111 A 
ATOM     30  H23 UNL     1      10.785   9.469  34.658  0.00  0.00    +0.188 HD
ENDBRANCH  24  25
ENDBRANCH  18  19
ENDBRANCH   3  18
TORSDOF 6
ENDMDL
