REMARK  Name = /home/qwerty/github/datacon2025hack/step_04_hit_selection/docking/ligands/lig_222.pdb
REMARK  10 active torsions:
REMARK  status: ('A' for Active; 'I' for Inactive)
REMARK    1  A    between atoms: C1_1  and  O1_2
REMARK    2  A    between atoms: O1_2  and  C2_3
REMARK    3  A    between atoms: C4_5  and  C5_6
REMARK    4  A    between atoms: C7_8  and  C8_9
REMARK    5  A    between atoms: C11_14  and  C12_16
REMARK    6  A    between atoms: C15_19  and  C16_20
REMARK    7  A    between atoms: C23_29  and  O4_30
REMARK    8  A    between atoms: O4_30  and  C24_31
REMARK    9  A    between atoms: C25_32  and  O5_33
REMARK   10  A    between atoms: O5_33  and  C26_34
REMARK                            x       y       z     vdW  Elec       q    Type
REMARK                         _______ _______ _______ _____ _____    ______ ____
ROOT
ATOM      1  C5  UNL     1      -1.709  -2.519   0.137  0.00  0.00    +0.023 A 
ATOM      2  C6  UNL     1      -2.814  -3.383   0.076  0.00  0.00    +0.016 A 
ATOM      3  C7  UNL     1      -2.781  -4.625   0.718  0.00  0.00    -0.032 A 
ATOM      4  C8  UNL     1      -3.942  -5.568   0.604  0.00  0.00    +0.045 C 
ATOM      5  C9  UNL     1      -1.623  -4.999   1.404  0.00  0.00    +0.116 A 
ATOM      6  N1  UNL     1      -0.553  -4.165   1.442  0.00  0.00    -0.239 NA
ATOM      7  C10 UNL     1      -0.554  -2.949   0.832  0.00  0.00    +0.133 A 
ATOM      8  N2  UNL     1       0.641  -2.153   0.841  0.00  0.00    -0.263 N 
ATOM      9  C11 UNL     1       1.553  -2.107   1.948  0.00  0.00    +0.285 C 
ATOM     10  O2  UNL     1       1.506  -2.979   2.857  0.00  0.00    -0.266 OA
ATOM     11  H10 UNL     1       0.819  -1.514   0.035  0.00  0.00    +0.157 HD
ENDROOT
BRANCH   1  14
ATOM     12  C2  UNL     1      -2.398   0.239  -2.386  0.00  0.00    +0.166 A 
ATOM     13  C3  UNL     1      -2.290  -1.032  -1.793  0.00  0.00    +0.058 A 
ATOM     14  C4  UNL     1      -1.800  -1.174  -0.489  0.00  0.00    -0.007 A 
ATOM     15  C22 UNL     1      -1.416  -0.026   0.225  0.00  0.00    +0.058 A 
ATOM     16  C23 UNL     1      -1.482   1.253  -0.361  0.00  0.00    +0.166 A 
ATOM     17  C25 UNL     1      -2.002   1.385  -1.674  0.00  0.00    +0.204 A 
BRANCH  12  19
ATOM     18  C1  UNL     1      -3.371  -0.646  -4.519  0.00  0.00    +0.277 C 
ATOM     19  O1  UNL     1      -2.903   0.408  -3.687  0.00  0.00    -0.491 OA
ENDBRANCH  12  19
BRANCH  16  20
ATOM     20  O4  UNL     1      -1.027   2.388   0.331  0.00  0.00    -0.491 OA
ATOM     21  C24 UNL     1      -0.417   2.369   1.618  0.00  0.00    +0.277 C 
ENDBRANCH  16  20
BRANCH  17  22
ATOM     22  O5  UNL     1      -2.150   2.623  -2.329  0.00  0.00    -0.488 OA
ATOM     23  C26 UNL     1      -2.065   3.909  -1.727  0.00  0.00    +0.277 C 
ENDBRANCH  17  22
ENDBRANCH   1  14
BRANCH   9  24
ATOM     24  C12 UNL     1       2.537  -1.018   2.034  0.00  0.00    +0.190 A 
ATOM     25  C13 UNL     1       3.515  -0.872   2.997  0.00  0.00    +0.055 A 
ATOM     26  C14 UNL     1       4.178   0.297   2.682  0.00  0.00    +0.050 A 
ATOM     27  C15 UNL     1       3.554   0.797   1.547  0.00  0.00    +0.136 A 
ATOM     28  O3  UNL     1       2.584  -0.013   1.189  0.00  0.00    -0.450 OA
BRANCH  27  29
ATOM     29  C16 UNL     1       3.883   2.042   0.821  0.00  0.00    +0.017 A 
ATOM     30  C17 UNL     1       3.045   2.478  -0.224  0.00  0.00    +0.012 A 
ATOM     31  C18 UNL     1       3.344   3.647  -0.934  0.00  0.00    +0.016 A 
ATOM     32  C19 UNL     1       4.480   4.394  -0.608  0.00  0.00    +0.018 A 
ATOM     33 BR1  UNL     1       4.879   5.995  -1.565  0.00  0.00    -0.050 Br
ATOM     34  C20 UNL     1       5.319   3.969   0.429  0.00  0.00    +0.016 A 
ATOM     35  C21 UNL     1       5.027   2.799   1.137  0.00  0.00    +0.012 A 
ENDBRANCH  27  29
ENDBRANCH   9  24
TORSDOF 6
