REMARK  Name = /home/qwerty/github/datacon2025hack/step_04_hit_selection/docking/ligands/lig_261.pdb
REMARK  6 active torsions:
REMARK  status: ('A' for Active; 'I' for Inactive)
REMARK    1  A    between atoms: C1_1  and  C2_2
REMARK    2  A    between atoms: C2_2  and  C3_3
REMARK    3  A    between atoms: C2_2  and  N5_27
REMARK    4  A    between atoms: N1_5  and  C4_6
REMARK    5  A    between atoms: C7_9  and  S1_10
REMARK    6  A    between atoms: S1_10  and  N2_13
REMARK                            x       y       z     vdW  Elec       q    Type
REMARK                         _______ _______ _______ _____ _____    ______ ____
ROOT
ATOM      1  C4  UNL     1      -2.453  -0.991  -0.162  0.00  0.00    +0.034 A 
ATOM      2  C5  UNL     1      -2.116  -0.775  -1.511  0.00  0.00    +0.025 A 
ATOM      3  C6  UNL     1      -1.163  -1.583  -2.138  0.00  0.00    +0.030 A 
ATOM      4  C7  UNL     1      -0.545  -2.623  -1.431  0.00  0.00    +0.109 A 
ATOM      5  C16 UNL     1      -0.900  -2.859  -0.097  0.00  0.00    +0.030 A 
ATOM      6  C17 UNL     1      -1.854  -2.053   0.531  0.00  0.00    +0.025 A 
ENDROOT
BRANCH   1   9
ATOM      7  C3  UNL     1      -3.648   1.213   0.230  0.00  0.00    +0.240 C 
ATOM      8  O1  UNL     1      -2.776   1.877  -0.396  0.00  0.00    -0.273 OA
ATOM      9  N1  UNL     1      -3.439  -0.182   0.502  0.00  0.00    -0.284 N 
ATOM     10  H5  UNL     1      -3.972  -0.610   1.293  0.00  0.00    +0.155 HD
BRANCH   7  12
ATOM     11  C1  UNL     1      -4.500   2.762   1.997  0.00  0.00    +0.041 C 
ATOM     12  C2  UNL     1      -4.866   1.910   0.777  0.00  0.00    +0.171 C 
BRANCH  12  13
ATOM     13  N5  UNL     1      -5.505   2.723  -0.265  0.00  0.00    -0.325 N 
ATOM     14  C18 UNL     1      -6.624   2.412  -0.942  0.00  0.00    +0.107 A 
ATOM     15  C19 UNL     1      -6.851   3.405  -1.868  0.00  0.00    +0.130 A 
ATOM     16  N6  UNL     1      -5.876   4.333  -1.786  0.00  0.00    -0.244 NA
ATOM     17  C20 UNL     1      -5.070   3.884  -0.801  0.00  0.00    +0.199 A 
ENDBRANCH  12  13
ENDBRANCH   7  12
ENDBRANCH   1   9
BRANCH   4  18
ATOM     18  S1  UNL     1       0.685  -3.623  -2.196  0.00  0.00    +0.074 S 
ATOM     19  O2  UNL     1       0.106  -4.981  -2.475  0.00  0.00    -0.150 OA
ATOM     20  O3  UNL     1       1.142  -3.012  -3.491  0.00  0.00    -0.150 OA
BRANCH  18  21
ATOM     21  N2  UNL     1       2.045  -3.783  -1.135  0.00  0.00    -0.198 N 
ATOM     22  C8  UNL     1       2.756  -2.651  -0.624  0.00  0.00    +0.163 A 
ATOM     23  C9  UNL     1       2.540  -1.322  -0.970  0.00  0.00    +0.113 A 
ATOM     24  C10 UNL     1       3.457  -0.652  -0.198  0.00  0.00    +0.215 A 
ATOM     25  N3  UNL     1       4.168  -1.526   0.532  0.00  0.00    -0.231 N 
ATOM     26  N4  UNL     1       3.746  -2.756   0.290  0.00  0.00    -0.152 NA
ATOM     27  C11 UNL     1       5.218  -1.163   1.479  0.00  0.00    +0.157 C 
ATOM     28  C12 UNL     1       5.640   0.301   1.233  0.00  0.00    +0.025 C 
ATOM     29  C13 UNL     1       6.759   0.841   2.109  0.00  0.00    +0.013 C 
ATOM     30  C14 UNL     1       7.022   0.536   0.636  0.00  0.00    +0.013 C 
ATOM     31  C15 UNL     1       4.529   1.296   0.839  0.00  0.00    +0.239 C 
ATOM     32  O4  UNL     1       3.677   0.726  -0.158  0.00  0.00    -0.476 OA
ATOM     33  H8  UNL     1       2.323  -4.739  -0.823  0.00  0.00    +0.175 HD
ENDBRANCH  18  21
ENDBRANCH   4  18
TORSDOF 5
