REMARK  Name = /home/qwerty/github/datacon2025hack/step_04_hit_selection/docking/ligands/lig_592.pdb
REMARK  10 active torsions:
REMARK  status: ('A' for Active; 'I' for Inactive)
REMARK    1  A    between atoms: C2_2  and  C3_3
REMARK    2  A    between atoms: C3_3  and  C4_4
REMARK    3  A    between atoms: C4_4  and  C5_5
REMARK    4  A    between atoms: C4_4  and  N1_6
REMARK    5  A    between atoms: N2_9  and  C7_10
REMARK    6  A    between atoms: C12_16  and  O2_17
REMARK    7  A    between atoms: O2_17  and  C13_18
REMARK    8  A    between atoms: C13_18  and  C14_19
REMARK    9  A    between atoms: C14_19  and  S1_20
REMARK   10  A    between atoms: S1_20  and  C15_21
REMARK                            x       y       z     vdW  Elec       q    Type
REMARK                         _______ _______ _______ _____ _____    ______ ____
ROOT
ATOM      1  C7  UNL     1       1.530  -1.327  -1.677  0.00  0.00    +0.078 A 
ATOM      2  C8  UNL     1       2.252  -1.796  -2.784  0.00  0.00    +0.047 A 
ATOM      3  C9  UNL     1       3.423  -2.537  -2.607  0.00  0.00    +0.043 A 
ATOM      4 CL1  UNL     1       4.306  -3.131  -4.002  0.00  0.00    -0.083 Cl
ATOM      5  C10 UNL     1       3.892  -2.802  -1.320  0.00  0.00    +0.024 A 
ATOM      6  C11 UNL     1       3.199  -2.319  -0.207  0.00  0.00    +0.049 A 
ATOM      7  C12 UNL     1       2.018  -1.567  -0.372  0.00  0.00    +0.142 A 
ENDROOT
BRANCH   1  11
ATOM      8  N1  UNL     1      -1.761   0.461  -1.081  0.00  0.00    -0.296 N 
ATOM      9  C6  UNL     1      -0.838  -0.635  -1.116  0.00  0.00    +0.304 C 
ATOM     10  O1  UNL     1      -1.077  -1.686  -0.461  0.00  0.00    -0.252 OA
ATOM     11  N2  UNL     1       0.354  -0.533  -1.905  0.00  0.00    -0.266 N 
ATOM     12  H10 UNL     1      -1.589   1.271  -1.720  0.00  0.00    +0.151 HD
ATOM     13  H11 UNL     1       0.349   0.124  -2.718  0.00  0.00    +0.156 HD
BRANCH   8  14
ATOM     14  C4  UNL     1      -2.846   0.539  -0.097  0.00  0.00    +0.075 C 
ATOM     15  C5  UNL     1      -2.263   0.897   1.278  0.00  0.00    +0.028 C 
BRANCH  14  16
ATOM     16  C3  UNL     1      -3.891   1.578  -0.552  0.00  0.00    +0.048 C 
BRANCH  16  18
ATOM     17  C1  UNL     1      -5.991   0.579   0.325  0.00  0.00    +0.004 C 
ATOM     18  C2  UNL     1      -5.114   1.587   0.328  0.00  0.00    -0.033 C 
ENDBRANCH  16  18
ENDBRANCH  14  16
ENDBRANCH   8  14
ENDBRANCH   1  11
BRANCH   7  19
ATOM     19  O2  UNL     1       1.319  -1.031   0.724  0.00  0.00    -0.488 OA
BRANCH  19  20
ATOM     20  C13 UNL     1       1.764  -1.013   2.080  0.00  0.00    +0.251 C 
BRANCH  20  21
ATOM     21  C14 UNL     1       2.860   0.035   2.287  0.00  0.00    +0.206 C 
BRANCH  21  22
ATOM     22  S1  UNL     1       2.235   1.703   2.101  0.00  0.00    -0.031 S 
ATOM     23  C15 UNL     1       1.717   2.015   0.426  0.00  0.00    +0.194 C 
ATOM     24  O3  UNL     1       3.330   2.669   2.456  0.00  0.00    -0.175 OA
ATOM     25  O4  UNL     1       1.072   1.917   3.029  0.00  0.00    -0.175 OA
ENDBRANCH  21  22
ENDBRANCH  20  21
ENDBRANCH  19  20
ENDBRANCH   7  19
TORSDOF 8
