REMARK  Name = /home/qwerty/github/datacon2025hack/step_04_hit_selection/docking/ligands/lig_355.pdb
REMARK  12 active torsions:
REMARK  status: ('A' for Active; 'I' for Inactive)
REMARK    1  A    between atoms: C1_1  and  C2_2
REMARK    2  A    between atoms: C10_10  and  N1_11
REMARK    3  A    between atoms: N2_14  and  C12_15
REMARK    4  A    between atoms: C15_18  and  C16_19
REMARK    5  A    between atoms: C17_20  and  C18_21
REMARK    6  A    between atoms: C19_23  and  C20_24
REMARK    7  A    between atoms: C22_27  and  C23_28
REMARK    8  A    between atoms: C23_28  and  N5_29
REMARK    9  A    between atoms: C26_32  and  N6_33
REMARK   10  A    between atoms: N6_33  and  C27_34
REMARK   11  A    between atoms: C27_34  and  C28_35
REMARK   12  A    between atoms: C27_34  and  C29_36
REMARK                            x       y       z     vdW  Elec       q    Type
REMARK                         _______ _______ _______ _____ _____    ______ ____
ROOT
ATOM      1  C12 UNL     1       0.903  -1.521   2.099  0.00  0.00    +0.035 A 
ATOM      2  C13 UNL     1       0.572  -1.698   3.448  0.00  0.00    +0.023 A 
ATOM      3  C14 UNL     1      -0.442  -2.585   3.819  0.00  0.00    +0.006 A 
ATOM      4  C15 UNL     1      -1.157  -3.299   2.845  0.00  0.00    -0.041 A 
ATOM      5  C16 UNL     1      -2.251  -4.242   3.270  0.00  0.00    +0.044 C 
ATOM      6  C17 UNL     1      -0.868  -3.079   1.480  0.00  0.00    +0.005 A 
ATOM      7  C32 UNL     1       0.164  -2.201   1.117  0.00  0.00    +0.033 A 
ENDROOT
BRANCH   6   8
ATOM      8  C18 UNL     1      -1.656  -3.727   0.415  0.00  0.00    +0.079 A 
ATOM      9  N3  UNL     1      -1.215  -4.905  -0.099  0.00  0.00    -0.232 NA
ATOM     10  C19 UNL     1      -1.893  -5.541  -1.089  0.00  0.00    +0.127 A 
ATOM     11  C20 UNL     1      -1.403  -6.854  -1.603  0.00  0.00    +0.088 C 
ATOM     12  N4  UNL     1      -3.047  -5.010  -1.569  0.00  0.00    -0.240 NA
ATOM     13  C21 UNL     1      -3.529  -3.834  -1.092  0.00  0.00    +0.119 A 
ATOM     14  C22 UNL     1      -2.845  -3.151  -0.078  0.00  0.00    +0.011 A 
BRANCH  14  15
ATOM     15  C23 UNL     1      -3.358  -1.824   0.425  0.00  0.00    +0.123 C 
BRANCH  15  16
ATOM     16  N5  UNL     1      -2.501  -0.732  -0.087  0.00  0.00    -0.298 NA
ATOM     17  C24 UNL     1      -2.342   0.370   0.884  0.00  0.00    +0.086 C 
ATOM     18  C25 UNL     1      -3.648   1.156   1.090  0.00  0.00    +0.034 C 
ATOM     19  C26 UNL     1      -4.445   1.328  -0.225  0.00  0.00    +0.056 C 
ATOM     20  C30 UNL     1      -3.562   1.119  -1.472  0.00  0.00    +0.034 C 
ATOM     21  C31 UNL     1      -2.893  -0.272  -1.446  0.00  0.00    +0.086 C 
BRANCH  19  22
ATOM     22  N6  UNL     1      -5.197   2.601  -0.249  0.00  0.00    -0.311 NA
ATOM     23  H30 UNL     1      -5.932   2.553  -0.994  0.00  0.00    +0.122 HD
BRANCH  22  24
ATOM     24  C27 UNL     1      -4.380   3.830  -0.374  0.00  0.00    +0.048 C 
ATOM     25  C28 UNL     1      -4.504   4.453  -1.774  0.00  0.00    +0.023 C 
ATOM     26  C29 UNL     1      -4.836   4.832   0.687  0.00  0.00    +0.023 C 
ENDBRANCH  22  24
ENDBRANCH  19  22
ENDBRANCH  15  16
ENDBRANCH  14  15
ENDBRANCH   6   8
BRANCH   1  30
ATOM     27  N1  UNL     1       3.736   0.267   0.263  0.00  0.00    -0.292 N 
ATOM     28  C11 UNL     1       2.850  -0.791   0.650  0.00  0.00    +0.304 C 
ATOM     29  O1  UNL     1       2.901  -1.903   0.057  0.00  0.00    -0.252 OA
ATOM     30  N2  UNL     1       1.942  -0.593   1.743  0.00  0.00    -0.269 N 
ATOM     31  H12 UNL     1       3.673   1.180   0.771  0.00  0.00    +0.151 HD
ATOM     32  H13 UNL     1       2.117   0.219   2.379  0.00  0.00    +0.156 HD
BRANCH  27  42
ATOM     33  C1  UNL     1       7.386   4.962  -2.336  0.00  0.00    +0.044 C 
ATOM     34  C2  UNL     1       6.649   3.725  -1.915  0.00  0.00    -0.050 A 
ATOM     35  C3  UNL     1       5.301   3.538  -2.289  0.00  0.00    +0.004 A 
ATOM     36  C4  UNL     1       4.623   2.363  -1.931  0.00  0.00    +0.006 A 
ATOM     37  C5  UNL     1       5.310   1.380  -1.214  0.00  0.00    -0.024 A 
ATOM     38  C6  UNL     1       6.627   1.547  -0.867  0.00  0.00    -0.042 A 
ATOM     39  C7  UNL     1       7.322   2.710  -1.206  0.00  0.00    +0.007 A 
ATOM     40  C8  UNL     1       7.162   0.379  -0.132  0.00  0.00    +0.037 C 
ATOM     41  C9  UNL     1       6.007  -0.640  -0.157  0.00  0.00    +0.032 C 
ATOM     42  C10 UNL     1       4.773   0.074  -0.755  0.00  0.00    +0.105 C 
ENDBRANCH  27  42
ENDBRANCH   1  30
TORSDOF 7
