REMARK  Name = /home/qwerty/github/datacon2025hack/step_04_hit_selection/docking/ligands/lig_637.pdb
REMARK  4 active torsions:
REMARK  status: ('A' for Active; 'I' for Inactive)
REMARK    1  A    between atoms: C1_2  and  O2_3
REMARK    2  A    between atoms: C1_2  and  C2_4
REMARK    3  A    between atoms: C5_7  and  C6_8
REMARK    4  A    between atoms: N1_10  and  C7_11
REMARK                            x       y       z     vdW  Elec       q    Type
REMARK                         _______ _______ _______ _____ _____    ______ ____
ROOT
ATOM      1  C6  UNL     1       0.880  -0.421  -0.361  0.00  0.00    +0.248 C 
ATOM      2  O3  UNL     1       0.335  -0.789  -1.437  0.00  0.00    -0.270 OA
ATOM      3  N1  UNL     1       0.068  -0.131   0.793  0.00  0.00    -0.281 N 
ATOM      4  H4  UNL     1       0.530   0.044   1.712  0.00  0.00    +0.155 HD
ENDROOT
BRANCH   3   5
ATOM      5  C7  UNL     1      -1.370  -0.134   0.779  0.00  0.00    +0.035 A 
ATOM      6  C8  UNL     1      -2.064  -0.616   1.895  0.00  0.00    +0.039 A 
ATOM      7  C9  UNL     1      -3.462  -0.617   1.931  0.00  0.00    +0.027 A 
ATOM      8 BR1  UNL     1      -4.307  -1.321   3.506  0.00  0.00    -0.050 Br
ATOM      9  C10 UNL     1      -4.194  -0.109   0.835  0.00  0.00    -0.004 A 
ATOM     10  C11 UNL     1      -5.603  -0.089   0.827  0.00  0.00    +0.009 A 
ATOM     11  C12 UNL     1      -6.297   0.430  -0.269  0.00  0.00    +0.001 A 
ATOM     12  C13 UNL     1      -5.602   0.938  -1.367  0.00  0.00    +0.001 A 
ATOM     13  C14 UNL     1      -4.206   0.927  -1.379  0.00  0.00    +0.008 A 
ATOM     14  C15 UNL     1      -3.493   0.405  -0.287  0.00  0.00    -0.015 A 
ATOM     15  C16 UNL     1      -2.091   0.396  -0.303  0.00  0.00    +0.032 A 
ENDBRANCH   3   5
BRANCH   1  19
ATOM     16  C2  UNL     1       5.176  -0.085  -0.264  0.00  0.00    +0.059 A 
ATOM     17  C3  UNL     1       4.464   0.126  -1.456  0.00  0.00    +0.016 A 
ATOM     18  C4  UNL     1       3.071   0.013  -1.479  0.00  0.00    +0.014 A 
ATOM     19  C5  UNL     1       2.358  -0.303  -0.311  0.00  0.00    +0.037 A 
ATOM     20  C17 UNL     1       3.072  -0.528   0.879  0.00  0.00    +0.014 A 
ATOM     21  C18 UNL     1       4.466  -0.417   0.902  0.00  0.00    +0.016 A 
BRANCH  16  23
ATOM     22  O1  UNL     1       7.292  -0.157   0.826  0.00  0.00    -0.245 OA
ATOM     23  C1  UNL     1       6.650   0.034  -0.243  0.00  0.00    +0.337 C 
BRANCH  23  24
ATOM     24  O2  UNL     1       7.345   0.359  -1.406  0.00  0.00    -0.477 OA
ATOM     25  H1  UNL     1       8.355   0.443  -1.402  0.00  0.00    +0.295 HD
ENDBRANCH  23  24
ENDBRANCH  16  23
ENDBRANCH   1  19
TORSDOF 4
