MODEL 1
REMARK VINA RESULT:    -7.208      0.000      0.000
REMARK INTER + INTRA:         -10.564
REMARK INTER:                  -9.315
REMARK INTRA:                  -1.250
REMARK UNBOUND:                -1.250
REMARK  Name = /home/qwerty/github/datacon2025hack/step_04_hit_selection/docking/ligands/lig_776.pdb
REMARK  6 active torsions:
REMARK  status: ('A' for Active; 'I' for Inactive)
REMARK    1  A    between atoms: C1_1  and  C2_2
REMARK    2  A    between atoms: C5_5  and  N1_6
REMARK    3  A    between atoms: C6_7  and  C7_9
REMARK    4  A    between atoms: N2_11  and  C8_12
REMARK    5  A    between atoms: C8_12  and  C9_13
REMARK    6  A    between atoms: C8_12  and  C15_19
REMARK                            x       y       z     vdW  Elec       q    Type
REMARK                         _______ _______ _______ _____ _____    ______ ____
ROOT
ATOM      1  C8  UNL     1      21.288   1.460  29.378  0.00  0.00    +0.134 C 
ENDROOT
BRANCH   1   2
ATOM      2  C15 UNL     1      21.179   2.397  28.191  0.00  0.00    -0.022 A 
ATOM      3  C16 UNL     1      21.488   3.760  28.333  0.00  0.00    +0.009 A 
ATOM      4  C17 UNL     1      21.382   4.627  27.242  0.00  0.00    +0.046 A 
ATOM      5  C18 UNL     1      20.970   4.143  25.998  0.00  0.00    +0.124 A 
ATOM      6  C19 UNL     1      20.680   2.775  25.835  0.00  0.00    -0.005 A 
ATOM      7  C20 UNL     1      20.772   1.912  26.935  0.00  0.00    +0.013 A 
ATOM      8  C21 UNL     1      20.209   2.256  24.499  0.00  0.00    +0.042 C 
ATOM      9  C22 UNL     1      20.648   3.174  23.350  0.00  0.00    +0.046 C 
ATOM     10  C23 UNL     1      20.289   4.627  23.669  0.00  0.00    +0.229 C 
ATOM     11  O3  UNL     1      20.872   5.020  24.911  0.00  0.00    -0.492 OA
ENDBRANCH   1   2
BRANCH   1  12
ATOM     12  C9  UNL     1      22.509   0.546  29.296  0.00  0.00    -0.023 A 
ATOM     13  C10 UNL     1      23.814   1.062  29.449  0.00  0.00    +0.006 A 
ATOM     14  C11 UNL     1      24.930   0.231  29.312  0.00  0.00    +0.000 A 
ATOM     15  C12 UNL     1      24.764  -1.116  28.988  0.00  0.00    +0.000 A 
ATOM     16  C13 UNL     1      23.483  -1.633  28.786  0.00  0.00    +0.000 A 
ATOM     17  C14 UNL     1      22.364  -0.807  28.922  0.00  0.00    +0.006 A 
ENDBRANCH   1  12
BRANCH   1  20
ATOM     18  C7  UNL     1      20.844   1.749  31.865  0.00  0.00    +0.300 C 
ATOM     19  O2  UNL     1      20.476   0.547  31.958  0.00  0.00    -0.265 OA
ATOM     20  N2  UNL     1      21.304   2.265  30.605  0.00  0.00    -0.297 N 
ATOM     21  H7  UNL     1      21.492   3.291  30.523  0.00  0.00    +0.150 HD
BRANCH  18  23
ATOM     22  N1  UNL     1      20.711   4.047  32.910  0.00  0.00    -0.276 N 
ATOM     23  C6  UNL     1      20.791   2.619  33.056  0.00  0.00    +0.303 C 
ATOM     24  O1  UNL     1      20.779   2.099  34.205  0.00  0.00    -0.265 OA
ATOM     25  H6  UNL     1      20.401   4.431  31.989  0.00  0.00    +0.155 HD
BRANCH  22  30
ATOM     26  C1  UNL     1      21.557   7.669  37.256  0.00  0.00    +0.065 C 
ATOM     27  C2  UNL     1      21.349   6.738  36.105  0.00  0.00    +0.038 A 
ATOM     28  C3  UNL     1      22.445   6.220  35.406  0.00  0.00    +0.025 A 
ATOM     29  C4  UNL     1      22.227   5.335  34.349  0.00  0.00    +0.026 A 
ATOM     30  C5  UNL     1      20.921   4.978  33.986  0.00  0.00    +0.052 A 
ATOM     31  C24 UNL     1      19.851   5.498  34.734  0.00  0.00    +0.134 A 
ATOM     32  N3  UNL     1      20.089   6.355  35.762  0.00  0.00    -0.258 NA
ENDBRANCH  22  30
ENDBRANCH  18  23
ENDBRANCH   1  20
TORSDOF 5
ENDMDL
MODEL 2
REMARK VINA RESULT:    -7.201      3.376      8.707
REMARK INTER + INTRA:         -10.556
REMARK INTER:                  -9.590
REMARK INTRA:                  -0.966
REMARK UNBOUND:                -1.250
REMARK  Name = /home/qwerty/github/datacon2025hack/step_04_hit_selection/docking/ligands/lig_776.pdb
REMARK  6 active torsions:
REMARK  status: ('A' for Active; 'I' for Inactive)
REMARK    1  A    between atoms: C1_1  and  C2_2
REMARK    2  A    between atoms: C5_5  and  N1_6
REMARK    3  A    between atoms: C6_7  and  C7_9
REMARK    4  A    between atoms: N2_11  and  C8_12
REMARK    5  A    between atoms: C8_12  and  C9_13
REMARK    6  A    between atoms: C8_12  and  C15_19
REMARK                            x       y       z     vdW  Elec       q    Type
REMARK                         _______ _______ _______ _____ _____    ______ ____
ROOT
ATOM      1  C8  UNL     1      21.971   1.804  28.769  0.00  0.00    +0.134 C 
ENDROOT
BRANCH   1   2
ATOM      2  C15 UNL     1      21.102   2.004  29.994  0.00  0.00    -0.022 A 
ATOM      3  C16 UNL     1      20.863   3.296  30.493  0.00  0.00    +0.009 A 
ATOM      4  C17 UNL     1      20.067   3.481  31.626  0.00  0.00    +0.046 A 
ATOM      5  C18 UNL     1      19.498   2.381  32.273  0.00  0.00    +0.124 A 
ATOM      6  C19 UNL     1      19.709   1.083  31.771  0.00  0.00    -0.005 A 
ATOM      7  C20 UNL     1      20.520   0.899  30.643  0.00  0.00    +0.013 A 
ATOM      8  C21 UNL     1      19.117  -0.108  32.484  0.00  0.00    +0.042 C 
ATOM      9  C22 UNL     1      17.901   0.289  33.332  0.00  0.00    +0.046 C 
ATOM     10  C23 UNL     1      18.240   1.495  34.210  0.00  0.00    +0.229 C 
ATOM     11  O3  UNL     1      18.699   2.581  33.405  0.00  0.00    -0.492 OA
ENDBRANCH   1   2
BRANCH   1  12
ATOM     12  C9  UNL     1      22.912   0.609  28.902  0.00  0.00    -0.023 A 
ATOM     13  C10 UNL     1      24.282   0.792  29.191  0.00  0.00    +0.006 A 
ATOM     14  C11 UNL     1      25.149  -0.303  29.251  0.00  0.00    +0.000 A 
ATOM     15  C12 UNL     1      24.674  -1.588  28.992  0.00  0.00    +0.000 A 
ATOM     16  C13 UNL     1      23.333  -1.783  28.658  0.00  0.00    +0.000 A 
ATOM     17  C14 UNL     1      22.460  -0.692  28.597  0.00  0.00    +0.006 A 
ENDBRANCH   1  12
BRANCH   1  20
ATOM     18  C7  UNL     1      21.445   2.214  26.314  0.00  0.00    +0.300 C 
ATOM     19  O2  UNL     1      22.564   2.772  26.149  0.00  0.00    -0.265 OA
ATOM     20  N2  UNL     1      21.097   1.669  27.597  0.00  0.00    -0.297 N 
ATOM     21  H7  UNL     1      20.123   1.317  27.744  0.00  0.00    +0.150 HD
BRANCH  18  23
ATOM     22  N1  UNL     1      19.137   1.729  25.405  0.00  0.00    -0.276 N 
ATOM     23  C6  UNL     1      20.499   2.136  25.185  0.00  0.00    +0.303 C 
ATOM     24  O1  UNL     1      20.883   2.464  24.029  0.00  0.00    -0.265 OA
ATOM     25  H6  UNL     1      18.760   1.778  26.378  0.00  0.00    +0.155 HD
BRANCH  22  30
ATOM     26  C1  UNL     1      15.593   0.307  21.146  0.00  0.00    +0.065 C 
ATOM     27  C2  UNL     1      16.507   0.662  22.274  0.00  0.00    +0.038 A 
ATOM     28  C3  UNL     1      17.270  -0.327  22.906  0.00  0.00    +0.025 A 
ATOM     29  C4  UNL     1      18.134   0.032  23.942  0.00  0.00    +0.026 A 
ATOM     30  C5  UNL     1      18.226   1.369  24.351  0.00  0.00    +0.052 A 
ATOM     31  C24 UNL     1      17.466   2.334  23.669  0.00  0.00    +0.134 A 
ATOM     32  N3  UNL     1      16.634   1.960  22.660  0.00  0.00    -0.258 NA
ENDBRANCH  22  30
ENDBRANCH  18  23
ENDBRANCH   1  20
TORSDOF 5
ENDMDL
MODEL 3
REMARK VINA RESULT:    -7.032      2.928      8.543
REMARK INTER + INTRA:         -10.337
REMARK INTER:                  -9.168
REMARK INTRA:                  -1.169
REMARK UNBOUND:                -1.250
REMARK  Name = /home/qwerty/github/datacon2025hack/step_04_hit_selection/docking/ligands/lig_776.pdb
REMARK  6 active torsions:
REMARK  status: ('A' for Active; 'I' for Inactive)
REMARK    1  A    between atoms: C1_1  and  C2_2
REMARK    2  A    between atoms: C5_5  and  N1_6
REMARK    3  A    between atoms: C6_7  and  C7_9
REMARK    4  A    between atoms: N2_11  and  C8_12
REMARK    5  A    between atoms: C8_12  and  C9_13
REMARK    6  A    between atoms: C8_12  and  C15_19
REMARK                            x       y       z     vdW  Elec       q    Type
REMARK                         _______ _______ _______ _____ _____    ______ ____
ROOT
ATOM      1  C8  UNL     1      22.186   2.090  29.220  0.00  0.00    +0.134 C 
ENDROOT
BRANCH   1   2
ATOM      2  C15 UNL     1      21.523   2.176  30.580  0.00  0.00    -0.022 A 
ATOM      3  C16 UNL     1      22.192   2.778  31.659  0.00  0.00    +0.009 A 
ATOM      4  C17 UNL     1      21.585   2.852  32.916  0.00  0.00    +0.046 A 
ATOM      5  C18 UNL     1      20.305   2.329  33.109  0.00  0.00    +0.124 A 
ATOM      6  C19 UNL     1      19.612   1.745  32.032  0.00  0.00    -0.005 A 
ATOM      7  C20 UNL     1      20.230   1.658  30.777  0.00  0.00    +0.013 A 
ATOM      8  C21 UNL     1      18.239   1.156  32.246  0.00  0.00    +0.042 C 
ATOM      9  C22 UNL     1      17.545   1.773  33.468  0.00  0.00    +0.046 C 
ATOM     10  C23 UNL     1      18.483   1.745  34.677  0.00  0.00    +0.229 C 
ATOM     11  O3  UNL     1      19.706   2.414  34.372  0.00  0.00    -0.492 OA
ENDBRANCH   1   2
BRANCH   1  12
ATOM     12  C9  UNL     1      22.979   0.799  29.031  0.00  0.00    -0.023 A 
ATOM     13  C10 UNL     1      22.326  -0.416  28.729  0.00  0.00    +0.006 A 
ATOM     14  C11 UNL     1      23.052  -1.606  28.619  0.00  0.00    +0.000 A 
ATOM     15  C12 UNL     1      24.429  -1.610  28.840  0.00  0.00    +0.000 A 
ATOM     16  C13 UNL     1      25.084  -0.427  29.186  0.00  0.00    +0.000 A 
ATOM     17  C14 UNL     1      24.364   0.766  29.297  0.00  0.00    +0.006 A 
ENDBRANCH   1  12
BRANCH   1  20
ATOM     18  C7  UNL     1      21.300   3.134  27.076  0.00  0.00    +0.300 C 
ATOM     19  O2  UNL     1      22.375   3.774  26.922  0.00  0.00    -0.265 OA
ATOM     20  N2  UNL     1      21.151   2.238  28.190  0.00  0.00    -0.297 N 
ATOM     21  H7  UNL     1      20.213   1.809  28.365  0.00  0.00    +0.150 HD
BRANCH  18  23
ATOM     22  N1  UNL     1      20.198   2.610  24.863  0.00  0.00    -0.276 N 
ATOM     23  C6  UNL     1      20.199   3.321  26.112  0.00  0.00    +0.303 C 
ATOM     24  O1  UNL     1      19.238   4.084  26.407  0.00  0.00    -0.265 OA
ATOM     25  H6  UNL     1      20.807   1.765  24.777  0.00  0.00    +0.155 HD
BRANCH  22  30
ATOM     26  C1  UNL     1      16.687   3.921  20.541  0.00  0.00    +0.065 C 
ATOM     27  C2  UNL     1      17.623   3.573  21.654  0.00  0.00    +0.038 A 
ATOM     28  C3  UNL     1      18.835   4.258  21.800  0.00  0.00    +0.025 A 
ATOM     29  C4  UNL     1      19.683   3.932  22.860  0.00  0.00    +0.026 A 
ATOM     30  C5  UNL     1      19.327   2.920  23.761  0.00  0.00    +0.052 A 
ATOM     31  C24 UNL     1      18.087   2.279  23.596  0.00  0.00    +0.134 A 
ATOM     32  N3  UNL     1      17.277   2.617  22.557  0.00  0.00    -0.258 NA
ENDBRANCH  22  30
ENDBRANCH  18  23
ENDBRANCH   1  20
TORSDOF 5
ENDMDL
MODEL 4
REMARK VINA RESULT:    -6.965      4.020      6.273
REMARK INTER + INTRA:         -10.251
REMARK INTER:                  -9.053
REMARK INTRA:                  -1.198
REMARK UNBOUND:                -1.250
REMARK  Name = /home/qwerty/github/datacon2025hack/step_04_hit_selection/docking/ligands/lig_776.pdb
REMARK  6 active torsions:
REMARK  status: ('A' for Active; 'I' for Inactive)
REMARK    1  A    between atoms: C1_1  and  C2_2
REMARK    2  A    between atoms: C5_5  and  N1_6
REMARK    3  A    between atoms: C6_7  and  C7_9
REMARK    4  A    between atoms: N2_11  and  C8_12
REMARK    5  A    between atoms: C8_12  and  C9_13
REMARK    6  A    between atoms: C8_12  and  C15_19
REMARK                            x       y       z     vdW  Elec       q    Type
REMARK                         _______ _______ _______ _____ _____    ______ ____
ROOT
ATOM      1  C8  UNL     1      20.858   4.362  30.791  0.00  0.00    +0.134 C 
ENDROOT
BRANCH   1   2
ATOM      2  C15 UNL     1      21.903   5.293  31.372  0.00  0.00    -0.022 A 
ATOM      3  C16 UNL     1      22.738   4.861  32.415  0.00  0.00    +0.009 A 
ATOM      4  C17 UNL     1      23.699   5.720  32.956  0.00  0.00    +0.046 A 
ATOM      5  C18 UNL     1      23.838   7.018  32.460  0.00  0.00    +0.124 A 
ATOM      6  C19 UNL     1      23.025   7.458  31.398  0.00  0.00    -0.005 A 
ATOM      7  C20 UNL     1      22.052   6.599  30.869  0.00  0.00    +0.013 A 
ATOM      8  C21 UNL     1      23.157   8.869  30.880  0.00  0.00    +0.042 C 
ATOM      9  C22 UNL     1      24.539   9.459  31.192  0.00  0.00    +0.046 C 
ATOM     10  C23 UNL     1      24.878   9.253  32.670  0.00  0.00    +0.229 C 
ATOM     11  O3  UNL     1      24.807   7.868  33.007  0.00  0.00    -0.492 OA
ENDBRANCH   1   2
BRANCH   1  12
ATOM     12  C9  UNL     1      21.453   3.330  29.836  0.00  0.00    -0.023 A 
ATOM     13  C10 UNL     1      21.955   2.101  30.316  0.00  0.00    +0.006 A 
ATOM     14  C11 UNL     1      22.554   1.186  29.445  0.00  0.00    +0.000 A 
ATOM     15  C12 UNL     1      22.695   1.497  28.092  0.00  0.00    +0.000 A 
ATOM     16  C13 UNL     1      22.249   2.728  27.609  0.00  0.00    +0.000 A 
ATOM     17  C14 UNL     1      21.647   3.645  28.475  0.00  0.00    +0.006 A 
ENDBRANCH   1  12
BRANCH   1  20
ATOM     18  C7  UNL     1      18.758   3.976  32.174  0.00  0.00    +0.300 C 
ATOM     19  O2  UNL     1      18.095   4.727  31.409  0.00  0.00    -0.265 OA
ATOM     20  N2  UNL     1      20.145   3.716  31.900  0.00  0.00    -0.297 N 
ATOM     21  H7  UNL     1      20.705   3.188  32.609  0.00  0.00    +0.150 HD
BRANCH  18  23
ATOM     22  N1  UNL     1      18.757   2.336  34.097  0.00  0.00    -0.276 N 
ATOM     23  C6  UNL     1      18.102   3.377  33.352  0.00  0.00    +0.303 C 
ATOM     24  O1  UNL     1      16.977   3.810  33.723  0.00  0.00    -0.265 OA
ATOM     25  H6  UNL     1      19.789   2.221  33.980  0.00  0.00    +0.155 HD
BRANCH  22  30
ATOM     26  C1  UNL     1      16.231  -0.980  38.015  0.00  0.00    +0.065 C 
ATOM     27  C2  UNL     1      16.880  -0.094  37.001  0.00  0.00    +0.038 A 
ATOM     28  C3  UNL     1      17.669   0.988  37.408  0.00  0.00    +0.025 A 
ATOM     29  C4  UNL     1      18.283   1.789  36.443  0.00  0.00    +0.026 A 
ATOM     30  C5  UNL     1      18.100   1.517  35.081  0.00  0.00    +0.052 A 
ATOM     31  C24 UNL     1      17.324   0.403  34.717  0.00  0.00    +0.134 A 
ATOM     32  N3  UNL     1      16.740  -0.365  35.675  0.00  0.00    -0.258 NA
ENDBRANCH  22  30
ENDBRANCH  18  23
ENDBRANCH   1  20
TORSDOF 5
ENDMDL
MODEL 5
REMARK VINA RESULT:    -6.958      5.024      8.907
REMARK INTER + INTRA:         -10.241
REMARK INTER:                  -8.987
REMARK INTRA:                  -1.255
REMARK UNBOUND:                -1.250
REMARK  Name = /home/qwerty/github/datacon2025hack/step_04_hit_selection/docking/ligands/lig_776.pdb
REMARK  6 active torsions:
REMARK  status: ('A' for Active; 'I' for Inactive)
REMARK    1  A    between atoms: C1_1  and  C2_2
REMARK    2  A    between atoms: C5_5  and  N1_6
REMARK    3  A    between atoms: C6_7  and  C7_9
REMARK    4  A    between atoms: N2_11  and  C8_12
REMARK    5  A    between atoms: C8_12  and  C9_13
REMARK    6  A    between atoms: C8_12  and  C15_19
REMARK                            x       y       z     vdW  Elec       q    Type
REMARK                         _______ _______ _______ _____ _____    ______ ____
ROOT
ATOM      1  C8  UNL     1      18.933   1.864  27.127  0.00  0.00    +0.134 C 
ENDROOT
BRANCH   1   2
ATOM      2  C15 UNL     1      18.136   0.717  26.537  0.00  0.00    -0.022 A 
ATOM      3  C16 UNL     1      18.693  -0.090  25.531  0.00  0.00    +0.009 A 
ATOM      4  C17 UNL     1      17.957  -1.144  24.982  0.00  0.00    +0.046 A 
ATOM      5  C18 UNL     1      16.661  -1.405  25.431  0.00  0.00    +0.124 A 
ATOM      6  C19 UNL     1      16.099  -0.620  26.455  0.00  0.00    -0.005 A 
ATOM      7  C20 UNL     1      16.833   0.446  26.993  0.00  0.00    +0.013 A 
ATOM      8  C21 UNL     1      14.689  -0.885  26.923  0.00  0.00    +0.042 C 
ATOM      9  C22 UNL     1      14.255  -2.325  26.622  0.00  0.00    +0.046 C 
ATOM     10  C23 UNL     1      14.553  -2.672  25.162  0.00  0.00    +0.229 C 
ATOM     11  O3  UNL     1      15.936  -2.467  24.876  0.00  0.00    -0.492 OA
ENDBRANCH   1   2
BRANCH   1  12
ATOM     12  C9  UNL     1      20.049   1.390  28.055  0.00  0.00    -0.023 A 
ATOM     13  C10 UNL     1      19.781   1.050  29.398  0.00  0.00    +0.006 A 
ATOM     14  C11 UNL     1      20.817   0.675  30.259  0.00  0.00    +0.000 A 
ATOM     15  C12 UNL     1      22.136   0.667  29.805  0.00  0.00    +0.000 A 
ATOM     16  C13 UNL     1      22.425   1.047  28.494  0.00  0.00    +0.000 A 
ATOM     17  C14 UNL     1      21.393   1.421  27.628  0.00  0.00    +0.006 A 
ENDBRANCH   1  12
BRANCH   1  20
ATOM     18  C7  UNL     1      18.819   3.884  25.585  0.00  0.00    +0.300 C 
ATOM     19  O2  UNL     1      17.804   4.315  26.196  0.00  0.00    -0.265 OA
ATOM     20  N2  UNL     1      19.463   2.676  26.025  0.00  0.00    -0.297 N 
ATOM     21  H7  UNL     1      20.228   2.274  25.436  0.00  0.00    +0.150 HD
BRANCH  18  23
ATOM     22  N1  UNL     1      20.500   4.158  23.717  0.00  0.00    -0.276 N 
ATOM     23  C6  UNL     1      19.331   4.622  24.416  0.00  0.00    +0.303 C 
ATOM     24  O1  UNL     1      18.716   5.646  24.009  0.00  0.00    -0.265 OA
ATOM     25  H6  UNL     1      20.794   3.165  23.857  0.00  0.00    +0.155 HD
BRANCH  22  30
ATOM     26  C1  UNL     1      23.444   7.192  19.863  0.00  0.00    +0.065 C 
ATOM     27  C2  UNL     1      22.653   6.407  20.860  0.00  0.00    +0.038 A 
ATOM     28  C3  UNL     1      21.739   5.437  20.433  0.00  0.00    +0.025 A 
ATOM     29  C4  UNL     1      21.028   4.700  21.382  0.00  0.00    +0.026 A 
ATOM     30  C5  UNL     1      21.221   4.940  22.749  0.00  0.00    +0.052 A 
ATOM     31  C24 UNL     1      22.171   5.901  23.134  0.00  0.00    +0.134 A 
ATOM     32  N3  UNL     1      22.854   6.603  22.191  0.00  0.00    -0.258 NA
ENDBRANCH  22  30
ENDBRANCH  18  23
ENDBRANCH   1  20
TORSDOF 5
ENDMDL
MODEL 6
REMARK VINA RESULT:    -6.826     13.828     14.871
REMARK INTER + INTRA:         -10.071
REMARK INTER:                  -8.998
REMARK INTRA:                  -1.073
REMARK UNBOUND:                -1.250
REMARK  Name = /home/qwerty/github/datacon2025hack/step_04_hit_selection/docking/ligands/lig_776.pdb
REMARK  6 active torsions:
REMARK  status: ('A' for Active; 'I' for Inactive)
REMARK    1  A    between atoms: C1_1  and  C2_2
REMARK    2  A    between atoms: C5_5  and  N1_6
REMARK    3  A    between atoms: C6_7  and  C7_9
REMARK    4  A    between atoms: N2_11  and  C8_12
REMARK    5  A    between atoms: C8_12  and  C9_13
REMARK    6  A    between atoms: C8_12  and  C15_19
REMARK                            x       y       z     vdW  Elec       q    Type
REMARK                         _______ _______ _______ _____ _____    ______ ____
ROOT
ATOM      1  C8  UNL     1       8.552   9.897  25.582  0.00  0.00    +0.134 C 
ENDROOT
BRANCH   1   2
ATOM      2  C15 UNL     1       8.886   9.986  24.106  0.00  0.00    -0.022 A 
ATOM      3  C16 UNL     1       7.860  10.059  23.149  0.00  0.00    +0.009 A 
ATOM      4  C17 UNL     1       8.166  10.135  21.787  0.00  0.00    +0.046 A 
ATOM      5  C18 UNL     1       9.498  10.141  21.366  0.00  0.00    +0.124 A 
ATOM      6  C19 UNL     1      10.537  10.093  22.315  0.00  0.00    -0.005 A 
ATOM      7  C20 UNL     1      10.226  10.001  23.678  0.00  0.00    +0.013 A 
ATOM      8  C21 UNL     1      11.975  10.072  21.859  0.00  0.00    +0.042 C 
ATOM      9  C22 UNL     1      12.133  10.676  20.457  0.00  0.00    +0.046 C 
ATOM     10  C23 UNL     1      11.117  10.052  19.498  0.00  0.00    +0.229 C 
ATOM     11  O3  UNL     1       9.792  10.221  20.000  0.00  0.00    -0.492 OA
ENDBRANCH   1   2
BRANCH   1  12
ATOM     12  C9  UNL     1       8.231   8.473  26.028  0.00  0.00    -0.023 A 
ATOM     13  C10 UNL     1       8.779   7.360  25.355  0.00  0.00    +0.006 A 
ATOM     14  C11 UNL     1       8.432   6.058  25.730  0.00  0.00    +0.000 A 
ATOM     15  C12 UNL     1       7.511   5.847  26.756  0.00  0.00    +0.000 A 
ATOM     16  C13 UNL     1       6.921   6.936  27.400  0.00  0.00    +0.000 A 
ATOM     17  C14 UNL     1       7.265   8.240  27.030  0.00  0.00    +0.006 A 
ENDBRANCH   1  12
BRANCH   1  20
ATOM     18  C7  UNL     1       9.521  11.601  27.202  0.00  0.00    +0.300 C 
ATOM     19  O2  UNL     1       8.382  12.115  27.372  0.00  0.00    -0.265 OA
ATOM     20  N2  UNL     1       9.673  10.457  26.346  0.00  0.00    -0.297 N 
ATOM     21  H7  UNL     1      10.639  10.121  26.126  0.00  0.00    +0.150 HD
BRANCH  18  23
ATOM     22  N1  UNL     1      11.033  13.571  27.675  0.00  0.00    -0.276 N 
ATOM     23  C6  UNL     1      10.691  12.189  27.882  0.00  0.00    +0.303 C 
ATOM     24  O1  UNL     1      11.370  11.481  28.675  0.00  0.00    -0.265 OA
ATOM     25  H6  UNL     1      10.299  14.207  27.290  0.00  0.00    +0.155 HD
BRANCH  22  30
ATOM     26  C1  UNL     1      16.052  15.805  29.269  0.00  0.00    +0.065 C 
ATOM     27  C2  UNL     1      14.738  15.240  28.835  0.00  0.00    +0.038 A 
ATOM     28  C3  UNL     1      14.530  14.875  27.500  0.00  0.00    +0.025 A 
ATOM     29  C4  UNL     1      13.302  14.328  27.123  0.00  0.00    +0.026 A 
ATOM     30  C5  UNL     1      12.285  14.157  28.072  0.00  0.00    +0.052 A 
ATOM     31  C24 UNL     1      12.547  14.508  29.407  0.00  0.00    +0.134 A 
ATOM     32  N3  UNL     1      13.753  15.035  29.751  0.00  0.00    -0.258 NA
ENDBRANCH  22  30
ENDBRANCH  18  23
ENDBRANCH   1  20
TORSDOF 5
ENDMDL
MODEL 7
REMARK VINA RESULT:    -6.807     13.581     16.950
REMARK INTER + INTRA:         -10.047
REMARK INTER:                  -8.845
REMARK INTRA:                  -1.202
REMARK UNBOUND:                -1.250
REMARK  Name = /home/qwerty/github/datacon2025hack/step_04_hit_selection/docking/ligands/lig_776.pdb
REMARK  6 active torsions:
REMARK  status: ('A' for Active; 'I' for Inactive)
REMARK    1  A    between atoms: C1_1  and  C2_2
REMARK    2  A    between atoms: C5_5  and  N1_6
REMARK    3  A    between atoms: C6_7  and  C7_9
REMARK    4  A    between atoms: N2_11  and  C8_12
REMARK    5  A    between atoms: C8_12  and  C9_13
REMARK    6  A    between atoms: C8_12  and  C15_19
REMARK                            x       y       z     vdW  Elec       q    Type
REMARK                         _______ _______ _______ _____ _____    ______ ____
ROOT
ATOM      1  C8  UNL     1       7.999  10.391  26.480  0.00  0.00    +0.134 C 
ENDROOT
BRANCH   1   2
ATOM      2  C15 UNL     1       7.659   9.327  27.504  0.00  0.00    -0.022 A 
ATOM      3  C16 UNL     1       7.409   9.680  28.840  0.00  0.00    +0.009 A 
ATOM      4  C17 UNL     1       7.102   8.699  29.787  0.00  0.00    +0.046 A 
ATOM      5  C18 UNL     1       7.037   7.356  29.410  0.00  0.00    +0.124 A 
ATOM      6  C19 UNL     1       7.260   6.988  28.070  0.00  0.00    -0.005 A 
ATOM      7  C20 UNL     1       7.584   7.973  27.127  0.00  0.00    +0.013 A 
ATOM      8  C21 UNL     1       7.216   5.535  27.667  0.00  0.00    +0.042 C 
ATOM      9  C22 UNL     1       6.380   4.702  28.648  0.00  0.00    +0.046 C 
ATOM     10  C23 UNL     1       6.816   4.986  30.087  0.00  0.00    +0.229 C 
ATOM     11  O3  UNL     1       6.723   6.383  30.367  0.00  0.00    -0.492 OA
ENDBRANCH   1   2
BRANCH   1  12
ATOM     12  C9  UNL     1       8.824  11.532  27.070  0.00  0.00    -0.023 A 
ATOM     13  C10 UNL     1       8.214  12.742  27.466  0.00  0.00    +0.006 A 
ATOM     14  C11 UNL     1       8.984  13.805  27.948  0.00  0.00    +0.000 A 
ATOM     15  C12 UNL     1      10.373  13.692  28.009  0.00  0.00    +0.000 A 
ATOM     16  C13 UNL     1      10.998  12.522  27.576  0.00  0.00    +0.000 A 
ATOM     17  C14 UNL     1      10.233  11.455  27.095  0.00  0.00    +0.006 A 
ENDBRANCH   1  12
BRANCH   1  20
ATOM     18  C7  UNL     1       8.201   9.818  24.011  0.00  0.00    +0.300 C 
ATOM     19  O2  UNL     1       7.174  10.501  23.750  0.00  0.00    -0.265 OA
ATOM     20  N2  UNL     1       8.696   9.751  25.359  0.00  0.00    -0.297 N 
ATOM     21  H7  UNL     1       9.475   9.087  25.573  0.00  0.00    +0.150 HD
BRANCH  18  23
ATOM     22  N1  UNL     1       9.212   7.694  23.085  0.00  0.00    -0.276 N 
ATOM     23  C6  UNL     1       8.880   9.084  22.926  0.00  0.00    +0.303 C 
ATOM     24  O1  UNL     1       9.137   9.676  21.842  0.00  0.00    -0.265 OA
ATOM     25  H6  UNL     1       8.717   7.152  23.829  0.00  0.00    +0.155 HD
BRANCH  22  30
ATOM     26  C1  UNL     1      12.721   4.742  19.665  0.00  0.00    +0.065 C 
ATOM     27  C2  UNL     1      11.795   5.525  20.539  0.00  0.00    +0.038 A 
ATOM     28  C3  UNL     1      10.412   5.480  20.326  0.00  0.00    +0.025 A 
ATOM     29  C4  UNL     1       9.565   6.202  21.168  0.00  0.00    +0.026 A 
ATOM     30  C5  UNL     1      10.097   6.973  22.210  0.00  0.00    +0.052 A 
ATOM     31  C24 UNL     1      11.488   6.966  22.408  0.00  0.00    +0.134 A 
ATOM     32  N3  UNL     1      12.293   6.251  21.576  0.00  0.00    -0.258 NA
ENDBRANCH  22  30
ENDBRANCH  18  23
ENDBRANCH   1  20
TORSDOF 5
ENDMDL
MODEL 8
REMARK VINA RESULT:    -6.784     14.038     17.257
REMARK INTER + INTRA:         -10.016
REMARK INTER:                  -8.876
REMARK INTRA:                  -1.141
REMARK UNBOUND:                -1.250
REMARK  Name = /home/qwerty/github/datacon2025hack/step_04_hit_selection/docking/ligands/lig_776.pdb
REMARK  6 active torsions:
REMARK  status: ('A' for Active; 'I' for Inactive)
REMARK    1  A    between atoms: C1_1  and  C2_2
REMARK    2  A    between atoms: C5_5  and  N1_6
REMARK    3  A    between atoms: C6_7  and  C7_9
REMARK    4  A    between atoms: N2_11  and  C8_12
REMARK    5  A    between atoms: C8_12  and  C9_13
REMARK    6  A    between atoms: C8_12  and  C15_19
REMARK                            x       y       z     vdW  Elec       q    Type
REMARK                         _______ _______ _______ _____ _____    ______ ____
ROOT
ATOM      1  C8  UNL     1       9.233  12.449  28.875  0.00  0.00    +0.134 C 
ENDROOT
BRANCH   1   2
ATOM      2  C15 UNL     1      10.569  13.132  29.091  0.00  0.00    -0.022 A 
ATOM      3  C16 UNL     1      10.960  13.535  30.379  0.00  0.00    +0.009 A 
ATOM      4  C17 UNL     1      12.188  14.170  30.579  0.00  0.00    +0.046 A 
ATOM      5  C18 UNL     1      13.040  14.408  29.499  0.00  0.00    +0.124 A 
ATOM      6  C19 UNL     1      12.673  13.989  28.206  0.00  0.00    -0.005 A 
ATOM      7  C20 UNL     1      11.434  13.366  28.006  0.00  0.00    +0.013 A 
ATOM      8  C21 UNL     1      13.581  14.269  27.034  0.00  0.00    +0.042 C 
ATOM      9  C22 UNL     1      15.036  14.468  27.481  0.00  0.00    +0.046 C 
ATOM     10  C23 UNL     1      15.100  15.471  28.635  0.00  0.00    +0.229 C 
ATOM     11  O3  UNL     1      14.270  15.042  29.713  0.00  0.00    -0.492 OA
ENDBRANCH   1   2
BRANCH   1  12
ATOM     12  C9  UNL     1       8.090  13.441  28.674  0.00  0.00    -0.023 A 
ATOM     13  C10 UNL     1       7.800  13.967  27.396  0.00  0.00    +0.006 A 
ATOM     14  C11 UNL     1       6.792  14.921  27.230  0.00  0.00    +0.000 A 
ATOM     15  C12 UNL     1       6.083  15.390  28.335  0.00  0.00    +0.000 A 
ATOM     16  C13 UNL     1       6.388  14.918  29.613  0.00  0.00    +0.000 A 
ATOM     17  C14 UNL     1       7.394  13.963  29.785  0.00  0.00    +0.006 A 
ENDBRANCH   1  12
BRANCH   1  20
ATOM     18  C7  UNL     1       8.490  10.406  27.554  0.00  0.00    +0.300 C 
ATOM     19  O2  UNL     1       7.541  10.208  28.360  0.00  0.00    -0.265 OA
ATOM     20  N2  UNL     1       9.358  11.538  27.730  0.00  0.00    -0.297 N 
ATOM     21  H7  UNL     1      10.206  11.617  27.124  0.00  0.00    +0.150 HD
BRANCH  18  23
ATOM     22  N1  UNL     1       9.185   9.936  25.170  0.00  0.00    -0.276 N 
ATOM     23  C6  UNL     1       8.706   9.463  26.441  0.00  0.00    +0.303 C 
ATOM     24  O1  UNL     1       8.502   8.231  26.621  0.00  0.00    -0.265 OA
ATOM     25  H6  UNL     1       9.647  10.873  25.136  0.00  0.00    +0.155 HD
BRANCH  22  30
ATOM     26  C1  UNL     1       9.087   6.742  20.425  0.00  0.00    +0.065 C 
ATOM     27  C2  UNL     1       9.108   7.597  21.651  0.00  0.00    +0.038 A 
ATOM     28  C3  UNL     1       8.002   8.389  21.982  0.00  0.00    +0.025 A 
ATOM     29  C4  UNL     1       8.036   9.162  23.144  0.00  0.00    +0.026 A 
ATOM     30  C5  UNL     1       9.172   9.153  23.964  0.00  0.00    +0.052 A 
ATOM     31  C24 UNL     1      10.248   8.320  23.611  0.00  0.00    +0.134 A 
ATOM     32  N3  UNL     1      10.189   7.573  22.476  0.00  0.00    -0.258 NA
ENDBRANCH  22  30
ENDBRANCH  18  23
ENDBRANCH   1  20
TORSDOF 5
ENDMDL
MODEL 9
REMARK VINA RESULT:    -6.780     12.136     14.318
REMARK INTER + INTRA:         -10.012
REMARK INTER:                  -8.784
REMARK INTRA:                  -1.228
REMARK UNBOUND:                -1.250
REMARK  Name = /home/qwerty/github/datacon2025hack/step_04_hit_selection/docking/ligands/lig_776.pdb
REMARK  6 active torsions:
REMARK  status: ('A' for Active; 'I' for Inactive)
REMARK    1  A    between atoms: C1_1  and  C2_2
REMARK    2  A    between atoms: C5_5  and  N1_6
REMARK    3  A    between atoms: C6_7  and  C7_9
REMARK    4  A    between atoms: N2_11  and  C8_12
REMARK    5  A    between atoms: C8_12  and  C9_13
REMARK    6  A    between atoms: C8_12  and  C15_19
REMARK                            x       y       z     vdW  Elec       q    Type
REMARK                         _______ _______ _______ _____ _____    ______ ____
ROOT
ATOM      1  C8  UNL     1      11.045  13.920  30.720  0.00  0.00    +0.134 C 
ENDROOT
BRANCH   1   2
ATOM      2  C15 UNL     1      12.107  14.335  29.720  0.00  0.00    -0.022 A 
ATOM      3  C16 UNL     1      11.779  14.502  28.365  0.00  0.00    +0.009 A 
ATOM      4  C17 UNL     1      12.757  14.878  27.441  0.00  0.00    +0.046 A 
ATOM      5  C18 UNL     1      14.072  15.095  27.859  0.00  0.00    +0.124 A 
ATOM      6  C19 UNL     1      14.411  14.955  29.219  0.00  0.00    -0.005 A 
ATOM      7  C20 UNL     1      13.430  14.562  30.140  0.00  0.00    +0.013 A 
ATOM      8  C21 UNL     1      15.836  15.163  29.667  0.00  0.00    +0.042 C 
ATOM      9  C22 UNL     1      16.615  16.048  28.685  0.00  0.00    +0.046 C 
ATOM     10  C23 UNL     1      16.430  15.537  27.254  0.00  0.00    +0.229 C 
ATOM     11  O3  UNL     1      15.043  15.475  26.925  0.00  0.00    -0.492 OA
ENDBRANCH   1   2
BRANCH   1  12
ATOM     12  C9  UNL     1      10.022  12.955  30.126  0.00  0.00    -0.023 A 
ATOM     13  C10 UNL     1       8.762  13.414  29.684  0.00  0.00    +0.006 A 
ATOM     14  C11 UNL     1       7.807  12.515  29.198  0.00  0.00    +0.000 A 
ATOM     15  C12 UNL     1       8.079  11.148  29.177  0.00  0.00    +0.000 A 
ATOM     16  C13 UNL     1       9.301  10.671  29.655  0.00  0.00    +0.000 A 
ATOM     17  C14 UNL     1      10.260  11.565  30.140  0.00  0.00    +0.006 A 
ENDBRANCH   1  12
BRANCH   1  20
ATOM     18  C7  UNL     1      11.445  13.790  33.228  0.00  0.00    +0.300 C 
ATOM     19  O2  UNL     1      10.562  14.667  33.432  0.00  0.00    -0.265 OA
ATOM     20  N2  UNL     1      11.713  13.338  31.891  0.00  0.00    -0.297 N 
ATOM     21  H7  UNL     1      12.526  12.701  31.731  0.00  0.00    +0.150 HD
BRANCH  18  23
ATOM     22  N1  UNL     1      13.633  13.110  34.296  0.00  0.00    -0.276 N 
ATOM     23  C6  UNL     1      12.203  13.243  34.370  0.00  0.00    +0.303 C 
ATOM     24  O1  UNL     1      11.591  12.926  35.427  0.00  0.00    -0.265 OA
ATOM     25  H6  UNL     1      14.141  13.662  33.569  0.00  0.00    +0.155 HD
BRANCH  22  30
ATOM     26  C1  UNL     1      16.846  10.123  37.966  0.00  0.00    +0.065 C 
ATOM     27  C2  UNL     1      15.993  10.911  37.026  0.00  0.00    +0.038 A 
ATOM     28  C3  UNL     1      15.849  12.294  37.190  0.00  0.00    +0.025 A 
ATOM     29  C4  UNL     1      15.065  13.014  36.287  0.00  0.00    +0.026 A 
ATOM     30  C5  UNL     1      14.419  12.354  35.233  0.00  0.00    +0.052 A 
ATOM     31  C24 UNL     1      14.615  10.970  35.087  0.00  0.00    +0.134 A 
ATOM     32  N3  UNL     1      15.387  10.292  35.977  0.00  0.00    -0.258 NA
ENDBRANCH  22  30
ENDBRANCH  18  23
ENDBRANCH   1  20
TORSDOF 5
ENDMDL
