REMARK  Name = /home/qwerty/github/datacon2025hack/step_04_hit_selection/docking/ligands/lig_483.pdb
REMARK  9 active torsions:
REMARK  status: ('A' for Active; 'I' for Inactive)
REMARK    1  A    between atoms: C1_1  and  O1_2
REMARK    2  A    between atoms: O1_2  and  C2_3
REMARK    3  A    between atoms: C4_5  and  C5_6
REMARK    4  A    between atoms: C7_8  and  C8_9
REMARK    5  A    between atoms: N1_11  and  C9_12
REMARK    6  A    between atoms: C9_12  and  C10_13
REMARK    7  A    between atoms: C13_16  and  N2_17
REMARK    8  A    between atoms: C14_18  and  C15_20
REMARK    9  A    between atoms: C19_26  and  C20_27
REMARK                            x       y       z     vdW  Elec       q    Type
REMARK                         _______ _______ _______ _____ _____    ______ ____
ROOT
ATOM      1  C9  UNL     1       0.500  -1.650  -0.210  0.00  0.00    +0.108 C 
ENDROOT
BRANCH   1   2
ATOM      2  C10 UNL     1       1.386  -0.586  -0.881  0.00  0.00    +0.008 C 
ATOM      3  C11 UNL     1       1.298   0.779  -0.209  0.00  0.00    +0.007 C 
ATOM      4  C12 UNL     1       2.591   1.490  -0.584  0.00  0.00    +0.022 C 
ATOM      5  C13 UNL     1       3.614   0.393  -0.912  0.00  0.00    +0.074 C 
ATOM      6  C18 UNL     1       2.868  -0.943  -0.829  0.00  0.00    +0.027 C 
BRANCH   5   7
ATOM      7  N2  UNL     1       4.733   0.421   0.037  0.00  0.00    -0.307 N 
ATOM      8  C14 UNL     1       6.104   0.281  -0.372  0.00  0.00    +0.266 C 
ATOM      9  O3  UNL     1       6.398   0.187  -1.596  0.00  0.00    -0.268 OA
ATOM     10  H18 UNL     1       4.510   0.437   1.059  0.00  0.00    +0.149 HD
BRANCH   8  11
ATOM     11  C15 UNL     1       7.179   0.244   0.634  0.00  0.00    +0.168 A 
ATOM     12  C16 UNL     1       8.531   0.126   0.377  0.00  0.00    +0.077 A 
ATOM     13  C17 UNL     1       9.106   0.141   1.629  0.00  0.00    +0.231 A 
ATOM     14  O4  UNL     1       8.151   0.257   2.525  0.00  0.00    -0.362 OA
ATOM     15  N3  UNL     1       6.978   0.323   1.963  0.00  0.00    -0.074 NA
ENDBRANCH   8  11
ENDBRANCH   5   7
ENDBRANCH   1   2
BRANCH   1  18
ATOM     16  C8  UNL     1      -1.671  -0.656   0.673  0.00  0.00    +0.244 C 
ATOM     17  O2  UNL     1      -1.148  -0.435   1.800  0.00  0.00    -0.270 OA
ATOM     18  N1  UNL     1      -0.913  -1.303  -0.362  0.00  0.00    -0.311 N 
ATOM     19  H9  UNL     1      -1.326  -1.370  -1.319  0.00  0.00    +0.149 HD
BRANCH  16  25
ATOM     20  C2  UNL     1      -5.317  -0.483  -0.453  0.00  0.00    +0.124 A 
ATOM     21  C3  UNL     1      -5.595   0.862  -0.141  0.00  0.00    +0.049 A 
ATOM     22  C4  UNL     1      -4.621   1.676   0.446  0.00  0.00    -0.046 A 
ATOM     23  C5  UNL     1      -4.945   3.097   0.810  0.00  0.00    +0.044 C 
ATOM     24  C6  UNL     1      -3.359   1.145   0.733  0.00  0.00    +0.017 A 
ATOM     25  C7  UNL     1      -3.048  -0.185   0.412  0.00  0.00    +0.043 A 
ATOM     26  C19 UNL     1      -4.046  -1.023  -0.150  0.00  0.00    +0.003 A 
ATOM     27  C20 UNL     1      -3.780  -2.482  -0.442  0.00  0.00    +0.048 C 
BRANCH  20  29
ATOM     28  C1  UNL     1      -7.596  -0.896  -1.416  0.00  0.00    +0.277 C 
ATOM     29  O1  UNL     1      -6.279  -1.308  -1.062  0.00  0.00    -0.495 OA
ENDBRANCH  20  29
ENDBRANCH  16  25
ENDBRANCH   1  18
TORSDOF 6
