REMARK  Name = /home/qwerty/github/datacon2025hack/step_04_hit_selection/docking/ligands/lig_3.pdb
REMARK  5 active torsions:
REMARK  status: ('A' for Active; 'I' for Inactive)
REMARK    1  A    between atoms: C1_1  and  C2_2
REMARK    2  A    between atoms: C2_2  and  C3_3
REMARK    3  A    between atoms: C6_7  and  N1_8
REMARK    4  A    between atoms: C7_9  and  C8_11
REMARK    5  A    between atoms: C11_15  and  C12_16
REMARK                            x       y       z     vdW  Elec       q    Type
REMARK                         _______ _______ _______ _____ _____    ______ ____
ROOT
ATOM      1  C8  UNL     1       0.849  -0.838   0.179  0.00  0.00    +0.100 A 
ATOM      2  C9  UNL     1       1.785  -1.464   1.012  0.00  0.00    +0.100 A 
ATOM      3  N2  UNL     1       3.096  -1.109   0.979  0.00  0.00    -0.360 N 
ATOM      4  C10 UNL     1       3.564  -0.139   0.135  0.00  0.00    +0.053 A 
ATOM      5  C11 UNL     1       4.937   0.224   0.116  0.00  0.00    -0.024 A 
ATOM      6  C12 UNL     1       5.943  -0.432   1.026  0.00  0.00    +0.046 C 
ATOM      7  C13 UNL     1       5.376   1.220  -0.772  0.00  0.00    +0.043 A 
ATOM      8  C14 UNL     1       4.480   1.851  -1.632  0.00  0.00    +0.124 A 
ATOM      9  F1  UNL     1       4.923   2.810  -2.483  0.00  0.00    -0.205 F 
ATOM     10  C15 UNL     1       3.131   1.503  -1.621  0.00  0.00    +0.052 A 
ATOM     11  C16 UNL     1       2.658   0.511  -0.742  0.00  0.00    +0.049 A 
ATOM     12  C17 UNL     1       1.297   0.146  -0.721  0.00  0.00    +0.202 A 
ATOM     13  O3  UNL     1       0.486   0.683  -1.527  0.00  0.00    -0.286 OA
ATOM     14  H14 UNL     1       3.736  -1.612   1.633  0.00  0.00    +0.165 HD
ENDROOT
BRANCH   1  16
ATOM     15  N1  UNL     1      -1.628  -0.281   0.107  0.00  0.00    -0.306 N 
ATOM     16  C7  UNL     1      -0.575  -1.246   0.253  0.00  0.00    +0.249 C 
ATOM     17  O2  UNL     1      -0.859  -2.454   0.479  0.00  0.00    -0.270 OA
ATOM     18  H12 UNL     1      -1.383   0.734   0.155  0.00  0.00    +0.149 HD
BRANCH  15  23
ATOM     19  C3  UNL     1      -3.993   0.513  -0.002  0.00  0.00    +0.138 C 
ATOM     20  O1  UNL     1      -5.096   0.196  -0.823  0.00  0.00    -0.375 OA
ATOM     21  C4  UNL     1      -4.771  -0.962  -1.561  0.00  0.00    +0.162 C 
ATOM     22  C5  UNL     1      -3.325  -1.335  -1.313  0.00  0.00    +0.053 C 
ATOM     23  C6  UNL     1      -3.036  -0.683   0.008  0.00  0.00    +0.104 C 
BRANCH  19  25
ATOM     24  C1  UNL     1      -3.390   1.402   2.314  0.00  0.00    +0.006 C 
ATOM     25  C2  UNL     1      -4.501   0.884   1.402  0.00  0.00    +0.030 C 
ENDBRANCH  19  25
ENDBRANCH  15  23
ENDBRANCH   1  16
TORSDOF 3
