MODEL 1
REMARK VINA RESULT:    -5.997      0.000      0.000
REMARK INTER + INTRA:          -8.815
REMARK INTER:                  -8.100
REMARK INTRA:                  -0.714
REMARK UNBOUND:                -0.714
REMARK  Name = /home/qwerty/github/datacon2025hack/step_04_hit_selection/docking/ligands/lig_70.pdb
REMARK  7 active torsions:
REMARK  status: ('A' for Active; 'I' for Inactive)
REMARK    1  A    between atoms: C1_1  and  C2_2
REMARK    2  A    between atoms: C2_2  and  C3_3
REMARK    3  A    between atoms: C5_5  and  C6_6
REMARK    4  A    between atoms: N1_8  and  C7_9
REMARK    5  A    between atoms: C7_9  and  C8_10
REMARK    6  A    between atoms: C8_10  and  N2_11
REMARK    7  A    between atoms: C9_12  and  C10_14
REMARK                            x       y       z     vdW  Elec       q    Type
REMARK                         _______ _______ _______ _____ _____    ______ ____
ROOT
ATOM      1  C8  UNL     1      21.574   0.673  30.292  0.00  0.00    +0.130 C 
ENDROOT
BRANCH   1   2
ATOM      2  C7  UNL     1      22.372   0.357  28.994  0.00  0.00    +0.050 C 
ATOM      3  C16 UNL     1      23.866   0.698  29.078  0.00  0.00    +0.027 C 
ATOM      4  C17 UNL     1      24.202  -0.784  28.906  0.00  0.00    +0.004 C 
ATOM      5  C18 UNL     1      22.715  -1.129  28.814  0.00  0.00    +0.027 C 
BRANCH   2   8
ATOM      6  C6  UNL     1      21.520   2.360  27.558  0.00  0.00    +0.217 C 
ATOM      7  O1  UNL     1      21.933   3.211  28.389  0.00  0.00    -0.275 OA
ATOM      8  N1  UNL     1      21.704   0.947  27.813  0.00  0.00    -0.308 N 
ATOM      9  H10 UNL     1      21.336   0.271  27.109  0.00  0.00    +0.149 HD
BRANCH   6  12
ATOM     10  C3  UNL     1      21.707   3.064  25.069  0.00  0.00    +0.001 C 
ATOM     11  C4  UNL     1      20.698   1.917  25.147  0.00  0.00    +0.017 C 
ATOM     12  C5  UNL     1      20.843   2.890  26.314  0.00  0.00    +0.078 C 
BRANCH  10  14
ATOM     13  C1  UNL     1      22.278   5.393  24.316  0.00  0.00    +0.004 C 
ATOM     14  C2  UNL     1      21.300   4.234  24.164  0.00  0.00    +0.001 C 
ENDBRANCH  10  14
ENDBRANCH   6  12
ENDBRANCH   2   8
ENDBRANCH   1   2
BRANCH   1  15
ATOM     15  N2  UNL     1      22.036   1.868  31.007  0.00  0.00    -0.309 N 
ATOM     16  C9  UNL     1      21.438   2.262  32.252  0.00  0.00    +0.247 C 
ATOM     17  O2  UNL     1      20.632   1.479  32.828  0.00  0.00    -0.270 OA
ATOM     18  H13 UNL     1      22.835   2.429  30.639  0.00  0.00    +0.149 HD
BRANCH  16  19
ATOM     19  C10 UNL     1      21.763   3.562  32.884  0.00  0.00    +0.071 A 
ATOM     20  C11 UNL     1      20.870   4.200  33.782  0.00  0.00    +0.129 A 
ATOM     21  N3  UNL     1      21.194   5.394  34.359  0.00  0.00    -0.219 NA
ATOM     22  C12 UNL     1      22.386   5.964  34.065  0.00  0.00    +0.235 A 
ATOM     23  N4  UNL     1      22.829   7.134  34.562  0.00  0.00    -0.219 NA
ATOM     24  C13 UNL     1      24.050   7.268  33.985  0.00  0.00    +0.133 A 
ATOM     25  C14 UNL     1      24.313   6.184  33.162  0.00  0.00    +0.114 A 
ATOM     26  N5  UNL     1      23.248   5.375  33.229  0.00  0.00    -0.290 N 
ATOM     27  C15 UNL     1      22.997   4.191  32.623  0.00  0.00    +0.108 A 
ENDBRANCH  16  19
ENDBRANCH   1  15
TORSDOF 6
ENDMDL
MODEL 2
REMARK VINA RESULT:    -5.881      3.811      8.631
REMARK INTER + INTRA:          -8.658
REMARK INTER:                  -7.852
REMARK INTRA:                  -0.807
REMARK UNBOUND:                -0.714
REMARK  Name = /home/qwerty/github/datacon2025hack/step_04_hit_selection/docking/ligands/lig_70.pdb
REMARK  7 active torsions:
REMARK  status: ('A' for Active; 'I' for Inactive)
REMARK    1  A    between atoms: C1_1  and  C2_2
REMARK    2  A    between atoms: C2_2  and  C3_3
REMARK    3  A    between atoms: C5_5  and  C6_6
REMARK    4  A    between atoms: N1_8  and  C7_9
REMARK    5  A    between atoms: C7_9  and  C8_10
REMARK    6  A    between atoms: C8_10  and  N2_11
REMARK    7  A    between atoms: C9_12  and  C10_14
REMARK                            x       y       z     vdW  Elec       q    Type
REMARK                         _______ _______ _______ _____ _____    ______ ____
ROOT
ATOM      1  C8  UNL     1      22.362   1.589  27.865  0.00  0.00    +0.130 C 
ENDROOT
BRANCH   1   2
ATOM      2  C7  UNL     1      22.803   0.693  29.059  0.00  0.00    +0.050 C 
ATOM      3  C16 UNL     1      22.806  -0.810  28.747  0.00  0.00    +0.027 C 
ATOM      4  C17 UNL     1      24.318  -0.841  28.970  0.00  0.00    +0.004 C 
ATOM      5  C18 UNL     1      24.320   0.654  29.288  0.00  0.00    +0.027 C 
BRANCH   2   8
ATOM      6  C6  UNL     1      20.596   1.029  30.407  0.00  0.00    +0.217 C 
ATOM      7  O1  UNL     1      19.875   0.726  29.421  0.00  0.00    -0.275 OA
ATOM      8  N1  UNL     1      22.038   1.035  30.279  0.00  0.00    -0.308 N 
ATOM      9  H10 UNL     1      22.603   1.303  31.114  0.00  0.00    +0.149 HD
BRANCH   6  12
ATOM     10  C3  UNL     1      18.510   0.749  31.924  0.00  0.00    +0.001 C 
ATOM     11  C4  UNL     1      19.720   0.240  32.709  0.00  0.00    +0.017 C 
ATOM     12  C5  UNL     1      19.885   1.371  31.697  0.00  0.00    +0.078 C 
BRANCH  10  14
ATOM     13  C1  UNL     1      16.842   2.625  31.803  0.00  0.00    +0.004 C 
ATOM     14  C2  UNL     1      17.534   1.624  32.720  0.00  0.00    +0.001 C 
ENDBRANCH  10  14
ENDBRANCH   6  12
ENDBRANCH   2   8
ENDBRANCH   1   2
BRANCH   1  15
ATOM     15  N2  UNL     1      21.427   0.941  26.939  0.00  0.00    -0.309 N 
ATOM     16  C9  UNL     1      20.605   1.719  26.054  0.00  0.00    +0.247 C 
ATOM     17  O2  UNL     1      20.815   2.958  25.942  0.00  0.00    -0.270 OA
ATOM     18  H13 UNL     1      21.372  -0.099  26.884  0.00  0.00    +0.149 HD
BRANCH  16  19
ATOM     19  C10 UNL     1      19.527   1.090  25.255  0.00  0.00    +0.071 A 
ATOM     20  C11 UNL     1      18.827   1.807  24.252  0.00  0.00    +0.129 A 
ATOM     21  N3  UNL     1      17.843   1.205  23.522  0.00  0.00    -0.219 NA
ATOM     22  C12 UNL     1      17.543  -0.093  23.766  0.00  0.00    +0.235 A 
ATOM     23  N4  UNL     1      16.599  -0.804  23.122  0.00  0.00    -0.219 NA
ATOM     24  C13 UNL     1      16.685  -2.024  23.709  0.00  0.00    +0.133 A 
ATOM     25  C14 UNL     1      17.671  -2.021  24.684  0.00  0.00    +0.114 A 
ATOM     26  N5  UNL     1      18.198  -0.790  24.700  0.00  0.00    -0.290 N 
ATOM     27  C15 UNL     1      19.186  -0.261  25.459  0.00  0.00    +0.108 A 
ENDBRANCH  16  19
ENDBRANCH   1  15
TORSDOF 6
ENDMDL
MODEL 3
REMARK VINA RESULT:    -5.798      2.262      7.046
REMARK INTER + INTRA:          -8.545
REMARK INTER:                  -7.689
REMARK INTRA:                  -0.856
REMARK UNBOUND:                -0.714
REMARK  Name = /home/qwerty/github/datacon2025hack/step_04_hit_selection/docking/ligands/lig_70.pdb
REMARK  7 active torsions:
REMARK  status: ('A' for Active; 'I' for Inactive)
REMARK    1  A    between atoms: C1_1  and  C2_2
REMARK    2  A    between atoms: C2_2  and  C3_3
REMARK    3  A    between atoms: C5_5  and  C6_6
REMARK    4  A    between atoms: N1_8  and  C7_9
REMARK    5  A    between atoms: C7_9  and  C8_10
REMARK    6  A    between atoms: C8_10  and  N2_11
REMARK    7  A    between atoms: C9_12  and  C10_14
REMARK                            x       y       z     vdW  Elec       q    Type
REMARK                         _______ _______ _______ _____ _____    ______ ____
ROOT
ATOM      1  C8  UNL     1      20.767   0.262  30.602  0.00  0.00    +0.130 C 
ENDROOT
BRANCH   1   2
ATOM      2  C7  UNL     1      20.113   0.989  31.811  0.00  0.00    +0.050 C 
ATOM      3  C16 UNL     1      18.810   1.725  31.470  0.00  0.00    +0.027 C 
ATOM      4  C17 UNL     1      18.050   0.793  32.413  0.00  0.00    +0.004 C 
ATOM      5  C18 UNL     1      19.346   0.061  32.763  0.00  0.00    +0.027 C 
BRANCH   2   8
ATOM      6  C6  UNL     1      21.699   3.053  31.975  0.00  0.00    +0.217 C 
ATOM      7  O1  UNL     1      21.396   3.455  30.821  0.00  0.00    -0.275 OA
ATOM      8  N1  UNL     1      21.102   1.845  32.504  0.00  0.00    -0.308 N 
ATOM      9  H10 UNL     1      21.386   1.536  33.459  0.00  0.00    +0.149 HD
BRANCH   6  12
ATOM     10  C3  UNL     1      22.655   5.399  32.537  0.00  0.00    +0.001 C 
ATOM     11  C4  UNL     1      22.118   4.798  33.837  0.00  0.00    +0.017 C 
ATOM     12  C5  UNL     1      22.690   3.889  32.754  0.00  0.00    +0.078 C 
BRANCH  10  14
ATOM     13  C1  UNL     1      23.902   7.562  32.252  0.00  0.00    +0.004 C 
ATOM     14  C2  UNL     1      24.016   6.095  32.652  0.00  0.00    +0.001 C 
ENDBRANCH  10  14
ENDBRANCH   6  12
ENDBRANCH   2   8
ENDBRANCH   1   2
BRANCH   1  15
ATOM     15  N2  UNL     1      20.577   0.941  29.315  0.00  0.00    -0.309 N 
ATOM     16  C9  UNL     1      21.646   1.026  28.359  0.00  0.00    +0.247 C 
ATOM     17  O2  UNL     1      22.701   0.360  28.547  0.00  0.00    -0.270 OA
ATOM     18  H13 UNL     1      19.648   1.340  29.060  0.00  0.00    +0.149 HD
BRANCH  16  19
ATOM     19  C10 UNL     1      21.526   1.868  27.146  0.00  0.00    +0.071 A 
ATOM     20  C11 UNL     1      20.651   1.526  26.084  0.00  0.00    +0.129 A 
ATOM     21  N3  UNL     1      20.550   2.322  24.978  0.00  0.00    -0.219 NA
ATOM     22  C12 UNL     1      21.296   3.449  24.909  0.00  0.00    +0.235 A 
ATOM     23  N4  UNL     1      21.293   4.318  23.881  0.00  0.00    -0.219 NA
ATOM     24  C13 UNL     1      22.180   5.264  24.280  0.00  0.00    +0.133 A 
ATOM     25  C14 UNL     1      22.694   4.946  25.528  0.00  0.00    +0.114 A 
ATOM     26  N5  UNL     1      22.119   3.796  25.904  0.00  0.00    -0.290 N 
ATOM     27  C15 UNL     1      22.269   3.060  27.030  0.00  0.00    +0.108 A 
ENDBRANCH  16  19
ENDBRANCH   1  15
TORSDOF 6
ENDMDL
MODEL 4
REMARK VINA RESULT:    -5.789     14.611     16.912
REMARK INTER + INTRA:          -8.533
REMARK INTER:                  -7.795
REMARK INTRA:                  -0.738
REMARK UNBOUND:                -0.714
REMARK  Name = /home/qwerty/github/datacon2025hack/step_04_hit_selection/docking/ligands/lig_70.pdb
REMARK  7 active torsions:
REMARK  status: ('A' for Active; 'I' for Inactive)
REMARK    1  A    between atoms: C1_1  and  C2_2
REMARK    2  A    between atoms: C2_2  and  C3_3
REMARK    3  A    between atoms: C5_5  and  C6_6
REMARK    4  A    between atoms: N1_8  and  C7_9
REMARK    5  A    between atoms: C7_9  and  C8_10
REMARK    6  A    between atoms: C8_10  and  N2_11
REMARK    7  A    between atoms: C9_12  and  C10_14
REMARK                            x       y       z     vdW  Elec       q    Type
REMARK                         _______ _______ _______ _____ _____    ______ ____
ROOT
ATOM      1  C8  UNL     1      10.466  14.098  28.051  0.00  0.00    +0.130 C 
ENDROOT
BRANCH   1   2
ATOM      2  C7  UNL     1      11.932  14.346  28.509  0.00  0.00    +0.050 C 
ATOM      3  C16 UNL     1      12.880  13.168  28.241  0.00  0.00    +0.027 C 
ATOM      4  C17 UNL     1      13.685  14.049  27.284  0.00  0.00    +0.004 C 
ATOM      5  C18 UNL     1      12.749  15.227  27.553  0.00  0.00    +0.027 C 
BRANCH   2   8
ATOM      6  C6  UNL     1      11.561  14.060  31.074  0.00  0.00    +0.217 C 
ATOM      7  O1  UNL     1      11.112  12.891  30.941  0.00  0.00    -0.275 OA
ATOM      8  N1  UNL     1      11.970  14.818  29.911  0.00  0.00    -0.308 N 
ATOM      9  H10 UNL     1      12.325  15.788  30.059  0.00  0.00    +0.149 HD
BRANCH   6  12
ATOM     10  C3  UNL     1      11.553  13.600  33.627  0.00  0.00    +0.001 C 
ATOM     11  C4  UNL     1      12.898  14.242  33.280  0.00  0.00    +0.017 C 
ATOM     12  C5  UNL     1      11.648  14.604  32.482  0.00  0.00    +0.078 C 
BRANCH  10  14
ATOM     13  C1  UNL     1      10.793  13.045  35.957  0.00  0.00    +0.004 C 
ATOM     14  C2  UNL     1      10.881  14.136  34.897  0.00  0.00    +0.001 C 
ENDBRANCH  10  14
ENDBRANCH   6  12
ENDBRANCH   2   8
ENDBRANCH   1   2
BRANCH   1  15
ATOM     15  N2  UNL     1      10.053  12.691  28.088  0.00  0.00    -0.309 N 
ATOM     16  C9  UNL     1       8.682  12.318  27.878  0.00  0.00    +0.247 C 
ATOM     17  O2  UNL     1       7.856  13.186  27.482  0.00  0.00    -0.270 OA
ATOM     18  H13 UNL     1      10.759  11.936  28.229  0.00  0.00    +0.149 HD
BRANCH  16  19
ATOM     19  C10 UNL     1       8.222  10.927  28.100  0.00  0.00    +0.071 A 
ATOM     20  C11 UNL     1       7.963  10.045  27.019  0.00  0.00    +0.129 A 
ATOM     21  N3  UNL     1       7.548   8.765  27.248  0.00  0.00    -0.219 NA
ATOM     22  C12 UNL     1       7.389   8.343  28.524  0.00  0.00    +0.235 A 
ATOM     23  N4  UNL     1       6.987   7.110  28.888  0.00  0.00    -0.219 NA
ATOM     24  C13 UNL     1       6.991   7.177  30.243  0.00  0.00    +0.133 A 
ATOM     25  C14 UNL     1       7.393   8.436  30.662  0.00  0.00    +0.114 A 
ATOM     26  N5  UNL     1       7.638   9.153  29.558  0.00  0.00    -0.290 N 
ATOM     27  C15 UNL     1       8.055  10.432  29.409  0.00  0.00    +0.108 A 
ENDBRANCH  16  19
ENDBRANCH   1  15
TORSDOF 6
ENDMDL
MODEL 5
REMARK VINA RESULT:    -5.713     14.639     15.666
REMARK INTER + INTRA:          -8.431
REMARK INTER:                  -7.622
REMARK INTRA:                  -0.808
REMARK UNBOUND:                -0.714
REMARK  Name = /home/qwerty/github/datacon2025hack/step_04_hit_selection/docking/ligands/lig_70.pdb
REMARK  7 active torsions:
REMARK  status: ('A' for Active; 'I' for Inactive)
REMARK    1  A    between atoms: C1_1  and  C2_2
REMARK    2  A    between atoms: C2_2  and  C3_3
REMARK    3  A    between atoms: C5_5  and  C6_6
REMARK    4  A    between atoms: N1_8  and  C7_9
REMARK    5  A    between atoms: C7_9  and  C8_10
REMARK    6  A    between atoms: C8_10  and  N2_11
REMARK    7  A    between atoms: C9_12  and  C10_14
REMARK                            x       y       z     vdW  Elec       q    Type
REMARK                         _______ _______ _______ _____ _____    ______ ____
ROOT
ATOM      1  C8  UNL     1       7.664  11.417  29.293  0.00  0.00    +0.130 C 
ENDROOT
BRANCH   1   2
ATOM      2  C7  UNL     1       7.638   9.887  29.012  0.00  0.00    +0.050 C 
ATOM      3  C16 UNL     1       8.908   9.147  29.455  0.00  0.00    +0.027 C 
ATOM      4  C17 UNL     1       8.077   8.348  30.460  0.00  0.00    +0.004 C 
ATOM      5  C18 UNL     1       6.808   9.077  30.017  0.00  0.00    +0.027 C 
BRANCH   2   8
ATOM      6  C6  UNL     1       8.070   9.939  26.440  0.00  0.00    +0.217 C 
ATOM      7  O1  UNL     1       9.186  10.507  26.577  0.00  0.00    -0.275 OA
ATOM      8  N1  UNL     1       7.269   9.621  27.603  0.00  0.00    -0.308 N 
ATOM      9  H10 UNL     1       6.345   9.162  27.451  0.00  0.00    +0.149 HD
BRANCH   6  12
ATOM     10  C3  UNL     1       8.657   9.822  23.916  0.00  0.00    +0.001 C 
ATOM     11  C4  UNL     1       8.291   8.408  24.368  0.00  0.00    +0.017 C 
ATOM     12  C5  UNL     1       7.634   9.616  25.029  0.00  0.00    +0.078 C 
BRANCH  10  14
ATOM     13  C1  UNL     1       9.162  10.413  21.527  0.00  0.00    +0.004 C 
ATOM     14  C2  UNL     1       8.063  10.253  22.570  0.00  0.00    +0.001 C 
ENDBRANCH  10  14
ENDBRANCH   6  12
ENDBRANCH   2   8
ENDBRANCH   1   2
BRANCH   1  15
ATOM     15  N2  UNL     1       9.010  11.999  29.337  0.00  0.00    -0.309 N 
ATOM     16  C9  UNL     1       9.320  13.198  28.609  0.00  0.00    +0.247 C 
ATOM     17  O2  UNL     1       8.387  13.857  28.073  0.00  0.00    -0.270 OA
ATOM     18  H13 UNL     1       9.753  11.570  29.930  0.00  0.00    +0.149 HD
BRANCH  16  19
ATOM     19  C10 UNL     1      10.715  13.687  28.492  0.00  0.00    +0.071 A 
ATOM     20  C11 UNL     1      11.313  13.941  27.232  0.00  0.00    +0.129 A 
ATOM     21  N3  UNL     1      12.596  14.399  27.148  0.00  0.00    -0.219 NA
ATOM     22  C12 UNL     1      13.294  14.612  28.289  0.00  0.00    +0.235 A 
ATOM     23  N4  UNL     1      14.562  15.060  28.348  0.00  0.00    -0.219 NA
ATOM     24  C13 UNL     1      14.804  15.112  29.682  0.00  0.00    +0.133 A 
ATOM     25  C14 UNL     1      13.685  14.699  30.390  0.00  0.00    +0.114 A 
ATOM     26  N5  UNL     1      12.746  14.389  29.488  0.00  0.00    -0.290 N 
ATOM     27  C15 UNL     1      11.480  13.939  29.648  0.00  0.00    +0.108 A 
ENDBRANCH  16  19
ENDBRANCH   1  15
TORSDOF 6
ENDMDL
MODEL 6
REMARK VINA RESULT:    -5.701      2.857      4.886
REMARK INTER + INTRA:          -8.415
REMARK INTER:                  -7.648
REMARK INTRA:                  -0.767
REMARK UNBOUND:                -0.714
REMARK  Name = /home/qwerty/github/datacon2025hack/step_04_hit_selection/docking/ligands/lig_70.pdb
REMARK  7 active torsions:
REMARK  status: ('A' for Active; 'I' for Inactive)
REMARK    1  A    between atoms: C1_1  and  C2_2
REMARK    2  A    between atoms: C2_2  and  C3_3
REMARK    3  A    between atoms: C5_5  and  C6_6
REMARK    4  A    between atoms: N1_8  and  C7_9
REMARK    5  A    between atoms: C7_9  and  C8_10
REMARK    6  A    between atoms: C8_10  and  N2_11
REMARK    7  A    between atoms: C9_12  and  C10_14
REMARK                            x       y       z     vdW  Elec       q    Type
REMARK                         _______ _______ _______ _____ _____    ______ ____
ROOT
ATOM      1  C8  UNL     1      22.764   2.300  27.404  0.00  0.00    +0.130 C 
ENDROOT
BRANCH   1   2
ATOM      2  C7  UNL     1      22.005   2.989  26.235  0.00  0.00    +0.050 C 
ATOM      3  C16 UNL     1      21.106   4.155  26.671  0.00  0.00    +0.027 C 
ATOM      4  C17 UNL     1      21.973   5.113  25.853  0.00  0.00    +0.004 C 
ATOM      5  C18 UNL     1      22.866   3.956  25.409  0.00  0.00    +0.027 C 
BRANCH   2   8
ATOM      6  C6  UNL     1      20.174   1.178  25.827  0.00  0.00    +0.217 C 
ATOM      7  O1  UNL     1      19.720   1.285  26.997  0.00  0.00    -0.275 OA
ATOM      8  N1  UNL     1      21.298   1.986  25.406  0.00  0.00    -0.308 N 
ATOM      9  H10 UNL     1      21.655   1.861  24.434  0.00  0.00    +0.149 HD
BRANCH   6  12
ATOM     10  C3  UNL     1      18.070  -0.239  25.283  0.00  0.00    +0.001 C 
ATOM     11  C4  UNL     1      18.305   0.705  24.103  0.00  0.00    +0.017 C 
ATOM     12  C5  UNL     1      19.488   0.186  24.915  0.00  0.00    +0.078 C 
BRANCH  10  14
ATOM     13  C1  UNL     1      16.243  -1.962  25.188  0.00  0.00    +0.004 C 
ATOM     14  C2  UNL     1      17.714  -1.682  24.904  0.00  0.00    +0.001 C 
ENDBRANCH  10  14
ENDBRANCH   6  12
ENDBRANCH   2   8
ENDBRANCH   1   2
BRANCH   1  15
ATOM     15  N2  UNL     1      22.115   2.445  28.712  0.00  0.00    -0.309 N 
ATOM     16  C9  UNL     1      21.974   1.321  29.596  0.00  0.00    +0.247 C 
ATOM     17  O2  UNL     1      22.569   0.241  29.326  0.00  0.00    -0.270 OA
ATOM     18  H13 UNL     1      21.781   3.378  29.036  0.00  0.00    +0.149 HD
BRANCH  16  19
ATOM     19  C10 UNL     1      21.157   1.411  30.829  0.00  0.00    +0.071 A 
ATOM     20  C11 UNL     1      20.395   0.312  31.300  0.00  0.00    +0.129 A 
ATOM     21  N3  UNL     1      19.656   0.415  32.444  0.00  0.00    -0.219 NA
ATOM     22  C12 UNL     1      19.662   1.584  33.128  0.00  0.00    +0.235 A 
ATOM     23  N4  UNL     1      18.981   1.819  34.266  0.00  0.00    -0.219 NA
ATOM     24  C13 UNL     1      19.311   3.102  34.557  0.00  0.00    +0.133 A 
ATOM     25  C14 UNL     1      20.176   3.607  33.598  0.00  0.00    +0.114 A 
ATOM     26  N5  UNL     1      20.383   2.628  32.707  0.00  0.00    -0.290 N 
ATOM     27  C15 UNL     1      21.140   2.599  31.586  0.00  0.00    +0.108 A 
ENDBRANCH  16  19
ENDBRANCH   1  15
TORSDOF 6
ENDMDL
MODEL 7
REMARK VINA RESULT:    -5.670      2.902      8.478
REMARK INTER + INTRA:          -8.373
REMARK INTER:                  -7.663
REMARK INTRA:                  -0.710
REMARK UNBOUND:                -0.714
REMARK  Name = /home/qwerty/github/datacon2025hack/step_04_hit_selection/docking/ligands/lig_70.pdb
REMARK  7 active torsions:
REMARK  status: ('A' for Active; 'I' for Inactive)
REMARK    1  A    between atoms: C1_1  and  C2_2
REMARK    2  A    between atoms: C2_2  and  C3_3
REMARK    3  A    between atoms: C5_5  and  C6_6
REMARK    4  A    between atoms: N1_8  and  C7_9
REMARK    5  A    between atoms: C7_9  and  C8_10
REMARK    6  A    between atoms: C8_10  and  N2_11
REMARK    7  A    between atoms: C9_12  and  C10_14
REMARK                            x       y       z     vdW  Elec       q    Type
REMARK                         _______ _______ _______ _____ _____    ______ ____
ROOT
ATOM      1  C8  UNL     1      22.380   1.788  28.123  0.00  0.00    +0.130 C 
ENDROOT
BRANCH   1   2
ATOM      2  C7  UNL     1      22.911   0.822  29.220  0.00  0.00    +0.050 C 
ATOM      3  C16 UNL     1      22.747  -0.666  28.878  0.00  0.00    +0.027 C 
ATOM      4  C17 UNL     1      24.268  -0.821  28.880  0.00  0.00    +0.004 C 
ATOM      5  C18 UNL     1      24.437   0.657  29.228  0.00  0.00    +0.027 C 
BRANCH   2   8
ATOM      6  C6  UNL     1      20.972   1.061  30.948  0.00  0.00    +0.217 C 
ATOM      7  O1  UNL     1      20.112   0.632  30.135  0.00  0.00    -0.275 OA
ATOM      8  N1  UNL     1      22.358   1.181  30.546  0.00  0.00    -0.308 N 
ATOM      9  H10 UNL     1      23.040   1.552  31.242  0.00  0.00    +0.149 HD
BRANCH   6  12
ATOM     10  C3  UNL     1      19.579   2.652  32.451  0.00  0.00    +0.001 C 
ATOM     11  C4  UNL     1      18.993   1.247  32.602  0.00  0.00    +0.017 C 
ATOM     12  C5  UNL     1      20.484   1.430  32.331  0.00  0.00    +0.078 C 
BRANCH  10  14
ATOM     13  C1  UNL     1      21.070   4.175  33.782  0.00  0.00    +0.004 C 
ATOM     14  C2  UNL     1      19.735   3.440  33.758  0.00  0.00    +0.001 C 
ENDBRANCH  10  14
ENDBRANCH   6  12
ENDBRANCH   2   8
ENDBRANCH   1   2
BRANCH   1  15
ATOM     15  N2  UNL     1      21.332   1.215  27.271  0.00  0.00    -0.309 N 
ATOM     16  C9  UNL     1      21.038   1.778  25.983  0.00  0.00    +0.247 C 
ATOM     17  O2  UNL     1      21.802   2.659  25.501  0.00  0.00    -0.270 OA
ATOM     18  H13 UNL     1      20.811   0.364  27.573  0.00  0.00    +0.149 HD
BRANCH  16  19
ATOM     19  C10 UNL     1      19.862   1.330  25.199  0.00  0.00    +0.071 A 
ATOM     20  C11 UNL     1      19.382  -0.002  25.271  0.00  0.00    +0.129 A 
ATOM     21  N3  UNL     1      18.291  -0.390  24.547  0.00  0.00    -0.219 NA
ATOM     22  C12 UNL     1      17.669   0.516  23.758  0.00  0.00    +0.235 A 
ATOM     23  N4  UNL     1      16.588   0.267  22.995  0.00  0.00    -0.219 NA
ATOM     24  C13 UNL     1      16.343   1.467  22.412  0.00  0.00    +0.133 A 
ATOM     25  C14 UNL     1      17.273   2.406  22.835  0.00  0.00    +0.114 A 
ATOM     26  N5  UNL     1      18.098   1.780  23.683  0.00  0.00    -0.290 N 
ATOM     27  C15 UNL     1      19.169   2.238  24.374  0.00  0.00    +0.108 A 
ENDBRANCH  16  19
ENDBRANCH   1  15
TORSDOF 6
ENDMDL
MODEL 8
REMARK VINA RESULT:    -5.667      3.595      8.449
REMARK INTER + INTRA:          -8.369
REMARK INTER:                  -7.886
REMARK INTRA:                  -0.482
REMARK UNBOUND:                -0.714
REMARK  Name = /home/qwerty/github/datacon2025hack/step_04_hit_selection/docking/ligands/lig_70.pdb
REMARK  7 active torsions:
REMARK  status: ('A' for Active; 'I' for Inactive)
REMARK    1  A    between atoms: C1_1  and  C2_2
REMARK    2  A    between atoms: C2_2  and  C3_3
REMARK    3  A    between atoms: C5_5  and  C6_6
REMARK    4  A    between atoms: N1_8  and  C7_9
REMARK    5  A    between atoms: C7_9  and  C8_10
REMARK    6  A    between atoms: C8_10  and  N2_11
REMARK    7  A    between atoms: C9_12  and  C10_14
REMARK                            x       y       z     vdW  Elec       q    Type
REMARK                         _______ _______ _______ _____ _____    ______ ____
ROOT
ATOM      1  C8  UNL     1      24.725   6.855  33.199  0.00  0.00    +0.130 C 
ENDROOT
BRANCH   1   2
ATOM      2  C7  UNL     1      24.143   8.278  32.962  0.00  0.00    +0.050 C 
ATOM      3  C16 UNL     1      25.169   9.299  32.451  0.00  0.00    +0.027 C 
ATOM      4  C17 UNL     1      24.373   9.432  31.153  0.00  0.00    +0.004 C 
ATOM      5  C18 UNL     1      23.344   8.422  31.659  0.00  0.00    +0.027 C 
BRANCH   2   8
ATOM      6  C6  UNL     1      21.961   8.870  34.263  0.00  0.00    +0.217 C 
ATOM      7  O1  UNL     1      21.226   8.585  33.282  0.00  0.00    -0.275 OA
ATOM      8  N1  UNL     1      23.400   8.744  34.154  0.00  0.00    -0.308 N 
ATOM      9  H10 UNL     1      23.978   9.001  34.983  0.00  0.00    +0.149 HD
BRANCH   6  12
ATOM     10  C3  UNL     1      19.854   9.883  35.387  0.00  0.00    +0.001 C 
ATOM     11  C4  UNL     1      20.084   8.502  36.003  0.00  0.00    +0.017 C 
ATOM     12  C5  UNL     1      21.271   9.335  35.526  0.00  0.00    +0.078 C 
BRANCH  10  14
ATOM     13  C1  UNL     1      20.183  12.297  36.001  0.00  0.00    +0.004 C 
ATOM     14  C2  UNL     1      19.495  10.992  36.383  0.00  0.00    +0.001 C 
ENDBRANCH  10  14
ENDBRANCH   6  12
ENDBRANCH   2   8
ENDBRANCH   1   2
BRANCH   1  15
ATOM     15  N2  UNL     1      23.884   5.767  32.687  0.00  0.00    -0.309 N 
ATOM     16  C9  UNL     1      22.914   5.125  33.530  0.00  0.00    +0.247 C 
ATOM     17  O2  UNL     1      22.655   5.615  34.663  0.00  0.00    -0.270 OA
ATOM     18  H13 UNL     1      23.953   5.470  31.690  0.00  0.00    +0.149 HD
BRANCH  16  19
ATOM     19  C10 UNL     1      22.198   3.906  33.085  0.00  0.00    +0.071 A 
ATOM     20  C11 UNL     1      21.192   3.300  33.881  0.00  0.00    +0.129 A 
ATOM     21  N3  UNL     1      20.539   2.182  33.447  0.00  0.00    -0.219 NA
ATOM     22  C12 UNL     1      20.861   1.659  32.241  0.00  0.00    +0.235 A 
ATOM     23  N4  UNL     1      20.297   0.564  31.696  0.00  0.00    -0.219 NA
ATOM     24  C13 UNL     1      20.939   0.451  30.506  0.00  0.00    +0.133 A 
ATOM     25  C14 UNL     1      21.867   1.472  30.361  0.00  0.00    +0.114 A 
ATOM     26  N5  UNL     1      21.798   2.220  31.470  0.00  0.00    -0.290 N 
ATOM     27  C15 UNL     1      22.484   3.329  31.832  0.00  0.00    +0.108 A 
ENDBRANCH  16  19
ENDBRANCH   1  15
TORSDOF 6
ENDMDL
MODEL 9
REMARK VINA RESULT:    -5.642     12.344     15.536
REMARK INTER + INTRA:          -8.335
REMARK INTER:                  -7.480
REMARK INTRA:                  -0.855
REMARK UNBOUND:                -0.714
REMARK  Name = /home/qwerty/github/datacon2025hack/step_04_hit_selection/docking/ligands/lig_70.pdb
REMARK  7 active torsions:
REMARK  status: ('A' for Active; 'I' for Inactive)
REMARK    1  A    between atoms: C1_1  and  C2_2
REMARK    2  A    between atoms: C2_2  and  C3_3
REMARK    3  A    between atoms: C5_5  and  C6_6
REMARK    4  A    between atoms: N1_8  and  C7_9
REMARK    5  A    between atoms: C7_9  and  C8_10
REMARK    6  A    between atoms: C8_10  and  N2_11
REMARK    7  A    between atoms: C9_12  and  C10_14
REMARK                            x       y       z     vdW  Elec       q    Type
REMARK                         _______ _______ _______ _____ _____    ______ ____
ROOT
ATOM      1  C8  UNL     1      11.343  13.038  36.049  0.00  0.00    +0.130 C 
ENDROOT
BRANCH   1   2
ATOM      2  C7  UNL     1      11.927  11.736  36.670  0.00  0.00    +0.050 C 
ATOM      3  C16 UNL     1      11.147  11.218  37.887  0.00  0.00    +0.027 C 
ATOM      4  C17 UNL     1      10.797   9.950  37.107  0.00  0.00    +0.004 C 
ATOM      5  C18 UNL     1      11.578  10.458  35.895  0.00  0.00    +0.027 C 
BRANCH   2   8
ATOM      6  C6  UNL     1      14.435  11.678  35.960  0.00  0.00    +0.217 C 
ATOM      7  O1  UNL     1      14.157  11.326  34.783  0.00  0.00    -0.275 OA
ATOM      8  N1  UNL     1      13.377  11.884  36.926  0.00  0.00    -0.308 N 
ATOM      9  H10 UNL     1      13.646  12.162  37.895  0.00  0.00    +0.149 HD
BRANCH   6  12
ATOM     10  C3  UNL     1      16.611  13.057  35.651  0.00  0.00    +0.001 C 
ATOM     11  C4  UNL     1      16.255  13.086  37.139  0.00  0.00    +0.017 C 
ATOM     12  C5  UNL     1      15.898  11.869  36.290  0.00  0.00    +0.078 C 
BRANCH  10  14
ATOM     13  C1  UNL     1      18.249  11.764  34.252  0.00  0.00    +0.004 C 
ATOM     14  C2  UNL     1      18.093  12.823  35.337  0.00  0.00    +0.001 C 
ENDBRANCH  10  14
ENDBRANCH   6  12
ENDBRANCH   2   8
ENDBRANCH   1   2
BRANCH   1  15
ATOM     15  N2  UNL     1      11.343  13.057  34.582  0.00  0.00    -0.309 N 
ATOM     16  C9  UNL     1      12.208  13.946  33.855  0.00  0.00    +0.247 C 
ATOM     17  O2  UNL     1      13.101  14.586  34.475  0.00  0.00    -0.270 OA
ATOM     18  H13 UNL     1      10.741  12.397  34.044  0.00  0.00    +0.149 HD
BRANCH  16  19
ATOM     19  C10 UNL     1      12.081  14.110  32.388  0.00  0.00    +0.071 A 
ATOM     20  C11 UNL     1      13.078  14.768  31.623  0.00  0.00    +0.129 A 
ATOM     21  N3  UNL     1      12.945  14.900  30.270  0.00  0.00    -0.219 NA
ATOM     22  C12 UNL     1      11.847  14.392  29.665  0.00  0.00    +0.235 A 
ATOM     23  N4  UNL     1      11.592  14.453  28.344  0.00  0.00    -0.219 NA
ATOM     24  C13 UNL     1      10.402  13.811  28.233  0.00  0.00    +0.133 A 
ATOM     25  C14 UNL     1       9.970  13.380  29.479  0.00  0.00    +0.114 A 
ATOM     26  N5  UNL     1      10.900  13.759  30.365  0.00  0.00    -0.290 N 
ATOM     27  C15 UNL     1      10.965  13.587  31.706  0.00  0.00    +0.108 A 
ENDBRANCH  16  19
ENDBRANCH   1  15
TORSDOF 6
ENDMDL
