REMARK  Name = /home/qwerty/github/datacon2025hack/step_04_hit_selection/docking/ligands/lig_623.pdb
REMARK  8 active torsions:
REMARK  status: ('A' for Active; 'I' for Inactive)
REMARK    1  A    between atoms: C2_2  and  C3_3
REMARK    2  A    between atoms: C3_3  and  C4_4
REMARK    3  A    between atoms: C3_3  and  C5_5
REMARK    4  A    between atoms: C3_3  and  C6_6
REMARK    5  A    between atoms: C9_11  and  N2_12
REMARK    6  A    between atoms: N2_12  and  C10_13
REMARK    7  A    between atoms: C11_14  and  C12_16
REMARK    8  A    between atoms: C12_16  and  C13_17
REMARK                            x       y       z     vdW  Elec       q    Type
REMARK                         _______ _______ _______ _____ _____    ______ ____
ROOT
ATOM      1  C6  UNL     1      -3.406   0.893   0.312  0.00  0.00    +0.225 C 
ATOM      2  O1  UNL     1      -3.928   2.040   0.378  0.00  0.00    -0.275 OA
ATOM      3  N1  UNL     1      -1.980   0.792   0.139  0.00  0.00    -0.301 N 
ATOM      4  C7  UNL     1      -1.426   0.042  -0.998  0.00  0.00    +0.109 C 
ATOM      5  C8  UNL     1       0.079   0.289  -1.156  0.00  0.00    +0.041 C 
ATOM      6  C9  UNL     1       0.807   0.085   0.189  0.00  0.00    +0.079 C 
ATOM      7  C16 UNL     1       0.153   0.857   1.369  0.00  0.00    +0.041 C 
ATOM      8  C17 UNL     1      -1.104   1.635   0.962  0.00  0.00    +0.109 C 
ENDROOT
BRANCH   6   9
ATOM      9  N2  UNL     1       2.239   0.422   0.057  0.00  0.00    -0.301 N 
ATOM     10  C10 UNL     1       2.658   1.795  -0.253  0.00  0.00    +0.132 C 
ATOM     11  C11 UNL     1       3.240  -0.594   0.282  0.00  0.00    +0.221 C 
ATOM     12  O2  UNL     1       2.999  -1.554   1.065  0.00  0.00    -0.275 OA
BRANCH  11  13
ATOM     13  C12 UNL     1       4.591  -0.530  -0.380  0.00  0.00    +0.044 C 
ATOM     14  C13 UNL     1       5.755   0.112   0.379  0.00  0.00    +0.021 C 
ATOM     15  C14 UNL     1       4.951  -1.762  -1.204  0.00  0.00    +0.017 C 
ATOM     16  C15 UNL     1       4.609  -0.452  -1.901  0.00  0.00    +0.017 C 
ENDBRANCH  11  13
ENDBRANCH   6   9
BRANCH   1  17
ATOM     17  C3  UNL     1      -4.295  -0.344   0.401  0.00  0.00    +0.059 C 
ATOM     18  C4  UNL     1      -5.515  -0.060   1.307  0.00  0.00    +0.025 C 
ATOM     19  C5  UNL     1      -4.807  -0.696  -1.008  0.00  0.00    +0.025 C 
BRANCH  17  21
ATOM     20  C1  UNL     1      -2.912  -1.485   2.163  0.00  0.00    +0.005 C 
ATOM     21  C2  UNL     1      -3.532  -1.529   0.976  0.00  0.00    -0.019 C 
ENDBRANCH  17  21
ENDBRANCH   1  17
TORSDOF 4
