REMARK  Name = /home/qwerty/github/datacon2025hack/step_04_hit_selection/docking/ligands/lig_291.pdb
REMARK  4 active torsions:
REMARK  status: ('A' for Active; 'I' for Inactive)
REMARK    1  A    between atoms: C1_1  and  C2_2
REMARK    2  A    between atoms: C4_4  and  N1_5
REMARK    3  A    between atoms: N2_8  and  C6_9
REMARK    4  A    between atoms: N3_16  and  C12_17
REMARK                            x       y       z     vdW  Elec       q    Type
REMARK                         _______ _______ _______ _____ _____    ______ ____
ROOT
ATOM      1  N1  UNL     1       0.001  -0.351  -0.009  0.00  0.00    -0.254 N 
ATOM      2  C5  UNL     1       1.342   0.159   0.038  0.00  0.00    +0.309 C 
ATOM      3  O1  UNL     1       1.554   1.360   0.359  0.00  0.00    -0.252 OA
ATOM      4  N2  UNL     1       2.444  -0.728  -0.209  0.00  0.00    -0.269 N 
ATOM      5  H5  UNL     1      -0.123  -1.384  -0.081  0.00  0.00    +0.158 HD
ATOM      6  H6  UNL     1       2.256  -1.756  -0.177  0.00  0.00    +0.156 HD
ENDROOT
BRANCH   4   7
ATOM      7  C6  UNL     1       3.803  -0.296  -0.392  0.00  0.00    +0.035 A 
ATOM      8  C7  UNL     1       4.108   0.917  -1.038  0.00  0.00    +0.026 A 
ATOM      9  C8  UNL     1       5.440   1.301  -1.224  0.00  0.00    +0.040 A 
ATOM     10  C9  UNL     1       6.477   0.476  -0.780  0.00  0.00    +0.124 A 
ATOM     11  F1  UNL     1       7.767   0.849  -0.964  0.00  0.00    -0.205 F 
ATOM     12  C10 UNL     1       6.183  -0.740  -0.158  0.00  0.00    +0.040 A 
ATOM     13  C11 UNL     1       4.852  -1.128   0.029  0.00  0.00    +0.026 A 
ENDBRANCH   4   7
BRANCH   1  17
ATOM     14  C1  UNL     1      -3.246   3.378  -0.653  0.00  0.00    +0.067 C 
ATOM     15  C2  UNL     1      -2.600   2.096  -0.248  0.00  0.00    +0.062 A 
ATOM     16  C3  UNL     1      -1.255   1.800  -0.362  0.00  0.00    +0.068 A 
ATOM     17  C4  UNL     1      -1.173   0.478   0.037  0.00  0.00    +0.125 A 
ATOM     18  N3  UNL     1      -2.408   0.033   0.355  0.00  0.00    -0.247 N 
ATOM     19  N4  UNL     1      -3.283   1.009   0.162  0.00  0.00    -0.175 NA
BRANCH  18  20
ATOM     20  C12 UNL     1      -2.764  -1.342   0.734  0.00  0.00    +0.109 C 
ATOM     21  C13 UNL     1      -4.116  -1.469   1.439  0.00  0.00    +0.027 C 
ATOM     22  C14 UNL     1      -4.656  -2.252   0.250  0.00  0.00    +0.004 C 
ATOM     23  C15 UNL     1      -3.307  -2.136  -0.449  0.00  0.00    +0.027 C 
ENDBRANCH  18  20
ENDBRANCH   1  17
TORSDOF 3
