MODEL 1
REMARK VINA RESULT:    -6.690      0.000      0.000
REMARK INTER + INTRA:          -7.907
REMARK INTER:                  -7.473
REMARK INTRA:                  -0.434
REMARK UNBOUND:                -0.434
REMARK  Name = /home/qwerty/github/datacon2025hack/step_04_hit_selection/docking/ligands/lig_644.pdb
REMARK  4 active torsions:
REMARK  status: ('A' for Active; 'I' for Inactive)
REMARK    1  A    between atoms: C1_1  and  C2_2
REMARK    2  A    between atoms: C4_4  and  C5_5
REMARK    3  A    between atoms: C8_8  and  N1_9
REMARK    4  A    between atoms: C9_10  and  C10_12
REMARK                            x       y       z     vdW  Elec       q    Type
REMARK                         _______ _______ _______ _____ _____    ______ ____
ROOT
ATOM      1  C1  UNL     1       9.433  14.750  35.419  0.00  0.00    +0.065 C 
ATOM      2  C2  UNL     1      10.664  13.982  35.787  0.00  0.00    +0.039 A 
ATOM      3  C3  UNL     1      10.564  12.806  36.534  0.00  0.00    +0.027 A 
ATOM      4  C4  UNL     1      11.722  12.090  36.880  0.00  0.00    -0.040 A 
ATOM      5  C5  UNL     1      11.586  10.823  37.684  0.00  0.00    +0.044 C 
ATOM      6  C6  UNL     1      12.984  12.580  36.460  0.00  0.00    +0.005 A 
ATOM      7  C7  UNL     1      14.192  11.922  36.767  0.00  0.00    +0.035 A 
ATOM      8  C8  UNL     1      15.425  12.434  36.325  0.00  0.00    +0.053 A 
ATOM      9  C16 UNL     1      15.450  13.634  35.589  0.00  0.00    +0.064 A 
ATOM     10 CL3  UNL     1      16.961  14.320  35.003  0.00  0.00    -0.082 Cl
ATOM     11  C17 UNL     1      14.257  14.294  35.282  0.00  0.00    +0.050 A 
ATOM     12  C18 UNL     1      13.031  13.776  35.707  0.00  0.00    +0.073 A 
ATOM     13  N2  UNL     1      11.884  14.434  35.396  0.00  0.00    -0.252 NA
ENDROOT
BRANCH   8  14
ATOM     14  N1  UNL     1      16.653  11.764  36.666  0.00  0.00    -0.280 N 
ATOM     15  C9  UNL     1      17.295  10.811  35.801  0.00  0.00    +0.248 C 
ATOM     16  O1  UNL     1      17.014  10.797  34.571  0.00  0.00    -0.270 OA
ATOM     17  H9  UNL     1      17.149  12.050  37.539  0.00  0.00    +0.155 HD
BRANCH  15  18
ATOM     18  C10 UNL     1      18.315   9.872  36.327  0.00  0.00    +0.038 A 
ATOM     19  C11 UNL     1      18.042   9.056  37.440  0.00  0.00    +0.014 A 
ATOM     20  C12 UNL     1      19.008   8.169  37.922  0.00  0.00    +0.022 A 
ATOM     21  C13 UNL     1      20.258   8.079  37.300  0.00  0.00    +0.059 A 
ATOM     22 CL1  UNL     1      21.446   6.950  37.937  0.00  0.00    -0.082 Cl
ATOM     23  C14 UNL     1      20.538   8.879  36.182  0.00  0.00    +0.060 A 
ATOM     24 CL2  UNL     1      22.095   8.792  35.368  0.00  0.00    -0.082 Cl
ATOM     25  C15 UNL     1      19.569   9.767  35.700  0.00  0.00    +0.034 A 
ENDBRANCH  15  18
ENDBRANCH   8  14
TORSDOF 2
ENDMDL
MODEL 2
REMARK VINA RESULT:    -6.585     17.306     19.279
REMARK INTER + INTRA:          -7.789
REMARK INTER:                  -7.300
REMARK INTRA:                  -0.489
REMARK UNBOUND:                -0.434
REMARK  Name = /home/qwerty/github/datacon2025hack/step_04_hit_selection/docking/ligands/lig_644.pdb
REMARK  4 active torsions:
REMARK  status: ('A' for Active; 'I' for Inactive)
REMARK    1  A    between atoms: C1_1  and  C2_2
REMARK    2  A    between atoms: C4_4  and  C5_5
REMARK    3  A    between atoms: C8_8  and  N1_9
REMARK    4  A    between atoms: C9_10  and  C10_12
REMARK                            x       y       z     vdW  Elec       q    Type
REMARK                         _______ _______ _______ _____ _____    ______ ____
ROOT
ATOM      1  C1  UNL     1      17.972  -3.020  24.788  0.00  0.00    +0.065 C 
ATOM      2  C2  UNL     1      17.010  -2.180  24.009  0.00  0.00    +0.039 A 
ATOM      3  C3  UNL     1      17.237  -1.918  22.655  0.00  0.00    +0.027 A 
ATOM      4  C4  UNL     1      16.332  -1.127  21.929  0.00  0.00    -0.040 A 
ATOM      5  C5  UNL     1      16.599  -0.863  20.469  0.00  0.00    +0.044 C 
ATOM      6  C6  UNL     1      15.194  -0.601  22.590  0.00  0.00    +0.005 A 
ATOM      7  C7  UNL     1      14.241   0.203  21.933  0.00  0.00    +0.035 A 
ATOM      8  C8  UNL     1      13.119   0.700  22.620  0.00  0.00    +0.053 A 
ATOM      9  C16 UNL     1      12.964   0.409  23.989  0.00  0.00    +0.064 A 
ATOM     10 CL3  UNL     1      11.578   0.995  24.901  0.00  0.00    -0.082 Cl
ATOM     11  C17 UNL     1      13.905  -0.387  24.648  0.00  0.00    +0.050 A 
ATOM     12  C18 UNL     1      15.011  -0.893  23.961  0.00  0.00    +0.073 A 
ATOM     13  N2  UNL     1      15.914  -1.664  24.623  0.00  0.00    -0.252 NA
ENDROOT
BRANCH   8  14
ATOM     14  N1  UNL     1      12.165   1.539  21.943  0.00  0.00    -0.280 N 
ATOM     15  C9  UNL     1      12.208   2.975  21.992  0.00  0.00    +0.248 C 
ATOM     16  O1  UNL     1      13.279   3.556  22.318  0.00  0.00    -0.270 OA
ATOM     17  H9  UNL     1      11.465   1.088  21.312  0.00  0.00    +0.155 HD
BRANCH  15  18
ATOM     18  C10 UNL     1      11.023   3.786  21.622  0.00  0.00    +0.038 A 
ATOM     19  C11 UNL     1      11.086   4.723  20.574  0.00  0.00    +0.014 A 
ATOM     20  C12 UNL     1       9.960   5.475  20.228  0.00  0.00    +0.022 A 
ATOM     21  C13 UNL     1       8.756   5.304  20.918  0.00  0.00    +0.059 A 
ATOM     22 CL1  UNL     1       7.363   6.270  20.453  0.00  0.00    -0.082 Cl
ATOM     23  C14 UNL     1       8.677   4.365  21.958  0.00  0.00    +0.060 A 
ATOM     24 CL2  UNL     1       7.180   4.114  22.847  0.00  0.00    -0.082 Cl
ATOM     25  C15 UNL     1       9.805   3.610  22.303  0.00  0.00    +0.034 A 
ENDBRANCH  15  18
ENDBRANCH   8  14
TORSDOF 2
ENDMDL
MODEL 3
REMARK VINA RESULT:    -6.549      2.742      8.519
REMARK INTER + INTRA:          -7.749
REMARK INTER:                  -7.291
REMARK INTRA:                  -0.457
REMARK UNBOUND:                -0.434
REMARK  Name = /home/qwerty/github/datacon2025hack/step_04_hit_selection/docking/ligands/lig_644.pdb
REMARK  4 active torsions:
REMARK  status: ('A' for Active; 'I' for Inactive)
REMARK    1  A    between atoms: C1_1  and  C2_2
REMARK    2  A    between atoms: C4_4  and  C5_5
REMARK    3  A    between atoms: C8_8  and  N1_9
REMARK    4  A    between atoms: C9_10  and  C10_12
REMARK                            x       y       z     vdW  Elec       q    Type
REMARK                         _______ _______ _______ _____ _____    ______ ____
ROOT
ATOM      1  C1  UNL     1      23.205   6.747  36.963  0.00  0.00    +0.065 C 
ATOM      2  C2  UNL     1      21.870   7.403  36.803  0.00  0.00    +0.039 A 
ATOM      3  C3  UNL     1      20.728   6.828  37.368  0.00  0.00    +0.027 A 
ATOM      4  C4  UNL     1      19.477   7.446  37.213  0.00  0.00    -0.040 A 
ATOM      5  C5  UNL     1      18.263   6.806  37.835  0.00  0.00    +0.044 C 
ATOM      6  C6  UNL     1      19.394   8.655  36.477  0.00  0.00    +0.005 A 
ATOM      7  C7  UNL     1      18.177   9.336  36.274  0.00  0.00    +0.035 A 
ATOM      8  C8  UNL     1      18.135  10.538  35.545  0.00  0.00    +0.053 A 
ATOM      9  C16 UNL     1      19.323  11.050  34.991  0.00  0.00    +0.064 A 
ATOM     10 CL3  UNL     1      19.336  12.553  34.075  0.00  0.00    -0.082 Cl
ATOM     11  C17 UNL     1      20.534  10.381  35.186  0.00  0.00    +0.050 A 
ATOM     12  C18 UNL     1      20.578   9.194  35.923  0.00  0.00    +0.073 A 
ATOM     13  N2  UNL     1      21.767   8.561  36.100  0.00  0.00    -0.252 NA
ENDROOT
BRANCH   8  14
ATOM     14  N1  UNL     1      16.881  11.211  35.326  0.00  0.00    -0.280 N 
ATOM     15  C9  UNL     1      16.315  12.144  36.263  0.00  0.00    +0.248 C 
ATOM     16  O1  UNL     1      17.057  12.686  37.128  0.00  0.00    -0.270 OA
ATOM     17  H9  UNL     1      16.404  11.086  34.406  0.00  0.00    +0.155 HD
BRANCH  15  18
ATOM     18  C10 UNL     1      14.880  12.512  36.199  0.00  0.00    +0.038 A 
ATOM     19  C11 UNL     1      14.451  13.622  35.449  0.00  0.00    +0.014 A 
ATOM     20  C12 UNL     1      13.096  13.955  35.390  0.00  0.00    +0.022 A 
ATOM     21  C13 UNL     1      12.148  13.186  36.073  0.00  0.00    +0.059 A 
ATOM     22 CL1  UNL     1      10.452  13.639  35.973  0.00  0.00    -0.082 Cl
ATOM     23  C14 UNL     1      12.562  12.070  36.815  0.00  0.00    +0.060 A 
ATOM     24 CL2  UNL     1      11.402  11.073  37.685  0.00  0.00    -0.082 Cl
ATOM     25  C15 UNL     1      13.921  11.736  36.874  0.00  0.00    +0.034 A 
ENDBRANCH  15  18
ENDBRANCH   8  14
TORSDOF 2
ENDMDL
MODEL 4
REMARK VINA RESULT:    -6.536     13.618     15.954
REMARK INTER + INTRA:          -7.735
REMARK INTER:                  -7.285
REMARK INTRA:                  -0.450
REMARK UNBOUND:                -0.434
REMARK  Name = /home/qwerty/github/datacon2025hack/step_04_hit_selection/docking/ligands/lig_644.pdb
REMARK  4 active torsions:
REMARK  status: ('A' for Active; 'I' for Inactive)
REMARK    1  A    between atoms: C1_1  and  C2_2
REMARK    2  A    between atoms: C4_4  and  C5_5
REMARK    3  A    between atoms: C8_8  and  N1_9
REMARK    4  A    between atoms: C9_10  and  C10_12
REMARK                            x       y       z     vdW  Elec       q    Type
REMARK                         _______ _______ _______ _____ _____    ______ ____
ROOT
ATOM      1  C1  UNL     1      19.847   0.277  31.847  0.00  0.00    +0.065 C 
ATOM      2  C2  UNL     1      20.443   0.776  30.568  0.00  0.00    +0.039 A 
ATOM      3  C3  UNL     1      21.824   0.717  30.362  0.00  0.00    +0.027 A 
ATOM      4  C4  UNL     1      22.378   1.189  29.161  0.00  0.00    -0.040 A 
ATOM      5  C5  UNL     1      23.870   1.111  28.964  0.00  0.00    +0.044 C 
ATOM      6  C6  UNL     1      21.517   1.722  28.170  0.00  0.00    +0.005 A 
ATOM      7  C7  UNL     1      21.995   2.218  26.939  0.00  0.00    +0.035 A 
ATOM      8  C8  UNL     1      21.109   2.732  25.976  0.00  0.00    +0.053 A 
ATOM      9  C16 UNL     1      19.730   2.774  26.259  0.00  0.00    +0.064 A 
ATOM     10 CL3  UNL     1      18.572   3.399  25.091  0.00  0.00    -0.082 Cl
ATOM     11  C17 UNL     1      19.249   2.287  27.476  0.00  0.00    +0.050 A 
ATOM     12  C18 UNL     1      20.128   1.761  28.428  0.00  0.00    +0.073 A 
ATOM     13  N2  UNL     1      19.637   1.293  29.605  0.00  0.00    -0.252 NA
ENDROOT
BRANCH   8  14
ATOM     14  N1  UNL     1      21.613   3.256  24.733  0.00  0.00    -0.280 N 
ATOM     15  C9  UNL     1      21.752   4.663  24.472  0.00  0.00    +0.248 C 
ATOM     16  O1  UNL     1      21.788   5.476  25.437  0.00  0.00    -0.270 OA
ATOM     17  H9  UNL     1      21.980   2.585  24.023  0.00  0.00    +0.155 HD
BRANCH  15  18
ATOM     18  C10 UNL     1      21.897   5.171  23.086  0.00  0.00    +0.038 A 
ATOM     19  C11 UNL     1      21.128   4.636  22.036  0.00  0.00    +0.014 A 
ATOM     20  C12 UNL     1      21.268   5.127  20.736  0.00  0.00    +0.022 A 
ATOM     21  C13 UNL     1      22.171   6.159  20.462  0.00  0.00    +0.059 A 
ATOM     22 CL1  UNL     1      22.317   6.749  18.813  0.00  0.00    -0.082 Cl
ATOM     23  C14 UNL     1      22.935   6.708  21.503  0.00  0.00    +0.060 A 
ATOM     24 CL2  UNL     1      24.078   8.011  21.204  0.00  0.00    -0.082 Cl
ATOM     25  C15 UNL     1      22.794   6.217  22.807  0.00  0.00    +0.034 A 
ENDBRANCH  15  18
ENDBRANCH   8  14
TORSDOF 2
ENDMDL
MODEL 5
REMARK VINA RESULT:    -6.510     16.493     17.063
REMARK INTER + INTRA:          -7.706
REMARK INTER:                  -7.291
REMARK INTRA:                  -0.415
REMARK UNBOUND:                -0.434
REMARK  Name = /home/qwerty/github/datacon2025hack/step_04_hit_selection/docking/ligands/lig_644.pdb
REMARK  4 active torsions:
REMARK  status: ('A' for Active; 'I' for Inactive)
REMARK    1  A    between atoms: C1_1  and  C2_2
REMARK    2  A    between atoms: C4_4  and  C5_5
REMARK    3  A    between atoms: C8_8  and  N1_9
REMARK    4  A    between atoms: C9_10  and  C10_12
REMARK                            x       y       z     vdW  Elec       q    Type
REMARK                         _______ _______ _______ _____ _____    ______ ____
ROOT
ATOM      1  C1  UNL     1       7.252  11.847  21.735  0.00  0.00    +0.065 C 
ATOM      2  C2  UNL     1       8.109  10.658  21.431  0.00  0.00    +0.039 A 
ATOM      3  C3  UNL     1       9.247  10.794  20.631  0.00  0.00    +0.027 A 
ATOM      4  C4  UNL     1      10.046   9.675  20.346  0.00  0.00    -0.040 A 
ATOM      5  C5  UNL     1      11.269   9.851  19.484  0.00  0.00    +0.044 C 
ATOM      6  C6  UNL     1       9.679   8.415  20.881  0.00  0.00    +0.005 A 
ATOM      7  C7  UNL     1      10.427   7.244  20.640  0.00  0.00    +0.035 A 
ATOM      8  C8  UNL     1      10.036   6.012  21.195  0.00  0.00    +0.053 A 
ATOM      9  C16 UNL     1       8.868   5.947  21.978  0.00  0.00    +0.064 A 
ATOM     10 CL3  UNL     1       8.333   4.436  22.704  0.00  0.00    -0.082 Cl
ATOM     11  C17 UNL     1       8.121   7.102  22.220  0.00  0.00    +0.050 A 
ATOM     12  C18 UNL     1       8.517   8.330  21.682  0.00  0.00    +0.073 A 
ATOM     13  N2  UNL     1       7.775   9.440  21.931  0.00  0.00    -0.252 NA
ENDROOT
BRANCH   8  14
ATOM     14  N1  UNL     1      10.796   4.820  20.922  0.00  0.00    -0.280 N 
ATOM     15  C9  UNL     1      11.808   4.312  21.808  0.00  0.00    +0.248 C 
ATOM     16  O1  UNL     1      11.816   4.674  23.017  0.00  0.00    -0.270 OA
ATOM     17  H9  UNL     1      10.539   4.246  20.088  0.00  0.00    +0.155 HD
BRANCH  15  18
ATOM     18  C10 UNL     1      12.817   3.336  21.332  0.00  0.00    +0.038 A 
ATOM     19  C11 UNL     1      12.612   1.952  21.484  0.00  0.00    +0.014 A 
ATOM     20  C12 UNL     1      13.566   1.041  21.025  0.00  0.00    +0.022 A 
ATOM     21  C13 UNL     1      14.736   1.493  20.405  0.00  0.00    +0.059 A 
ATOM     22 CL1  UNL     1      15.912   0.313  19.842  0.00  0.00    -0.082 Cl
ATOM     23  C14 UNL     1      14.947   2.870  20.238  0.00  0.00    +0.060 A 
ATOM     24 CL2  UNL     1      16.402   3.480  19.460  0.00  0.00    -0.082 Cl
ATOM     25  C15 UNL     1      13.990   3.783  20.698  0.00  0.00    +0.034 A 
ENDBRANCH  15  18
ENDBRANCH   8  14
TORSDOF 2
ENDMDL
MODEL 6
REMARK VINA RESULT:    -6.233     16.839     17.079
REMARK INTER + INTRA:          -7.396
REMARK INTER:                  -6.944
REMARK INTRA:                  -0.452
REMARK UNBOUND:                -0.434
REMARK  Name = /home/qwerty/github/datacon2025hack/step_04_hit_selection/docking/ligands/lig_644.pdb
REMARK  4 active torsions:
REMARK  status: ('A' for Active; 'I' for Inactive)
REMARK    1  A    between atoms: C1_1  and  C2_2
REMARK    2  A    between atoms: C4_4  and  C5_5
REMARK    3  A    between atoms: C8_8  and  N1_9
REMARK    4  A    between atoms: C9_10  and  C10_12
REMARK                            x       y       z     vdW  Elec       q    Type
REMARK                         _______ _______ _______ _____ _____    ______ ____
ROOT
ATOM      1  C1  UNL     1       6.412   5.972  20.691  0.00  0.00    +0.065 C 
ATOM      2  C2  UNL     1       7.624   5.255  21.197  0.00  0.00    +0.039 A 
ATOM      3  C3  UNL     1       7.549   4.469  22.351  0.00  0.00    +0.027 A 
ATOM      4  C4  UNL     1       8.690   3.800  22.823  0.00  0.00    -0.040 A 
ATOM      5  C5  UNL     1       8.581   2.957  24.067  0.00  0.00    +0.044 C 
ATOM      6  C6  UNL     1       9.910   3.936  22.114  0.00  0.00    +0.005 A 
ATOM      7  C7  UNL     1      11.099   3.299  22.523  0.00  0.00    +0.035 A 
ATOM      8  C8  UNL     1      12.289   3.452  21.789  0.00  0.00    +0.053 A 
ATOM      9  C16 UNL     1      12.294   4.272  20.645  0.00  0.00    +0.064 A 
ATOM     10 CL3  UNL     1      13.749   4.496  19.681  0.00  0.00    -0.082 Cl
ATOM     11  C17 UNL     1      11.119   4.908  20.233  0.00  0.00    +0.050 A 
ATOM     12  C18 UNL     1       9.933   4.745  20.954  0.00  0.00    +0.073 A 
ATOM     13  N2  UNL     1       8.804   5.372  20.535  0.00  0.00    -0.252 NA
ENDROOT
BRANCH   8  14
ATOM     14  N1  UNL     1      13.501   2.814  22.232  0.00  0.00    -0.280 N 
ATOM     15  C9  UNL     1      13.882   1.486  21.833  0.00  0.00    +0.248 C 
ATOM     16  O1  UNL     1      13.367   0.973  20.802  0.00  0.00    -0.270 OA
ATOM     17  H9  UNL     1      14.180   3.373  22.794  0.00  0.00    +0.155 HD
BRANCH  15  18
ATOM     18  C10 UNL     1      14.906   0.727  22.591  0.00  0.00    +0.038 A 
ATOM     19  C11 UNL     1      16.240   1.172  22.649  0.00  0.00    +0.014 A 
ATOM     20  C12 UNL     1      17.195   0.454  23.373  0.00  0.00    +0.022 A 
ATOM     21  C13 UNL     1      16.835  -0.715  24.052  0.00  0.00    +0.059 A 
ATOM     22 CL1  UNL     1      18.067  -1.591  24.951  0.00  0.00    -0.082 Cl
ATOM     23  C14 UNL     1      15.506  -1.163  24.010  0.00  0.00    +0.060 A 
ATOM     24 CL2  UNL     1      15.011  -2.625  24.854  0.00  0.00    -0.082 Cl
ATOM     25  C15 UNL     1      14.549  -0.442  23.286  0.00  0.00    +0.034 A 
ENDBRANCH  15  18
ENDBRANCH   8  14
TORSDOF 2
ENDMDL
MODEL 7
REMARK VINA RESULT:    -6.170     17.097     17.422
REMARK INTER + INTRA:          -7.326
REMARK INTER:                  -6.889
REMARK INTRA:                  -0.436
REMARK UNBOUND:                -0.434
REMARK  Name = /home/qwerty/github/datacon2025hack/step_04_hit_selection/docking/ligands/lig_644.pdb
REMARK  4 active torsions:
REMARK  status: ('A' for Active; 'I' for Inactive)
REMARK    1  A    between atoms: C1_1  and  C2_2
REMARK    2  A    between atoms: C4_4  and  C5_5
REMARK    3  A    between atoms: C8_8  and  N1_9
REMARK    4  A    between atoms: C9_10  and  C10_12
REMARK                            x       y       z     vdW  Elec       q    Type
REMARK                         _______ _______ _______ _____ _____    ______ ____
ROOT
ATOM      1  C1  UNL     1       6.622   6.618  20.678  0.00  0.00    +0.065 C 
ATOM      2  C2  UNL     1       7.931   5.966  20.996  0.00  0.00    +0.039 A 
ATOM      3  C3  UNL     1       9.133   6.598  20.664  0.00  0.00    +0.027 A 
ATOM      4  C4  UNL     1      10.359   5.981  20.962  0.00  0.00    -0.040 A 
ATOM      5  C5  UNL     1      11.640   6.686  20.596  0.00  0.00    +0.044 C 
ATOM      6  C6  UNL     1      10.354   4.716  21.600  0.00  0.00    +0.005 A 
ATOM      7  C7  UNL     1      11.541   4.030  21.931  0.00  0.00    +0.035 A 
ATOM      8  C8  UNL     1      11.497   2.779  22.572  0.00  0.00    +0.053 A 
ATOM      9  C16 UNL     1      10.249   2.196  22.861  0.00  0.00    +0.064 A 
ATOM     10 CL3  UNL     1      10.130   0.637  23.668  0.00  0.00    -0.082 Cl
ATOM     11  C17 UNL     1       9.068   2.868  22.536  0.00  0.00    +0.050 A 
ATOM     12  C18 UNL     1       9.112   4.118  21.913  0.00  0.00    +0.073 A 
ATOM     13  N2  UNL     1       7.951   4.753  21.605  0.00  0.00    -0.252 NA
ENDROOT
BRANCH   8  14
ATOM     14  N1  UNL     1      12.717   2.080  22.883  0.00  0.00    -0.280 N 
ATOM     15  C9  UNL     1      13.403   1.239  21.939  0.00  0.00    +0.248 C 
ATOM     16  O1  UNL     1      13.174   1.370  20.706  0.00  0.00    -0.270 OA
ATOM     17  H9  UNL     1      13.174   2.263  23.804  0.00  0.00    +0.155 HD
BRANCH  15  18
ATOM     18  C10 UNL     1      14.411   0.250  22.393  0.00  0.00    +0.038 A 
ATOM     19  C11 UNL     1      15.643   0.117  21.728  0.00  0.00    +0.014 A 
ATOM     20  C12 UNL     1      16.589  -0.812  22.169  0.00  0.00    +0.022 A 
ATOM     21  C13 UNL     1      16.322  -1.620  23.279  0.00  0.00    +0.059 A 
ATOM     22 CL1  UNL     1      17.538  -2.778  23.801  0.00  0.00    -0.082 Cl
ATOM     23  C14 UNL     1      15.100  -1.489  23.957  0.00  0.00    +0.060 A 
ATOM     24 CL2  UNL     1      14.728  -2.481  25.361  0.00  0.00    -0.082 Cl
ATOM     25  C15 UNL     1      14.154  -0.556  23.515  0.00  0.00    +0.034 A 
ENDBRANCH  15  18
ENDBRANCH   8  14
TORSDOF 2
ENDMDL
MODEL 8
REMARK VINA RESULT:    -6.109      3.238      5.122
REMARK INTER + INTRA:          -7.258
REMARK INTER:                  -6.876
REMARK INTRA:                  -0.382
REMARK UNBOUND:                -0.434
REMARK  Name = /home/qwerty/github/datacon2025hack/step_04_hit_selection/docking/ligands/lig_644.pdb
REMARK  4 active torsions:
REMARK  status: ('A' for Active; 'I' for Inactive)
REMARK    1  A    between atoms: C1_1  and  C2_2
REMARK    2  A    between atoms: C4_4  and  C5_5
REMARK    3  A    between atoms: C8_8  and  N1_9
REMARK    4  A    between atoms: C9_10  and  C10_12
REMARK                            x       y       z     vdW  Elec       q    Type
REMARK                         _______ _______ _______ _____ _____    ______ ____
ROOT
ATOM      1  C1  UNL     1      14.353  14.664  36.774  0.00  0.00    +0.065 C 
ATOM      2  C2  UNL     1      15.450  13.755  36.320  0.00  0.00    +0.039 A 
ATOM      3  C3  UNL     1      16.348  14.170  35.332  0.00  0.00    +0.027 A 
ATOM      4  C4  UNL     1      17.374  13.311  34.906  0.00  0.00    -0.040 A 
ATOM      5  C5  UNL     1      18.331  13.786  33.842  0.00  0.00    +0.044 C 
ATOM      6  C6  UNL     1      17.482  12.025  35.493  0.00  0.00    +0.005 A 
ATOM      7  C7  UNL     1      18.483  11.105  35.120  0.00  0.00    +0.035 A 
ATOM      8  C8  UNL     1      18.563   9.840  35.730  0.00  0.00    +0.053 A 
ATOM      9  C16 UNL     1      17.614   9.484  36.707  0.00  0.00    +0.064 A 
ATOM     10 CL3  UNL     1      17.667   7.919  37.511  0.00  0.00    -0.082 Cl
ATOM     11  C17 UNL     1      16.618  10.390  37.081  0.00  0.00    +0.050 A 
ATOM     12  C18 UNL     1      16.548  11.652  36.486  0.00  0.00    +0.073 A 
ATOM     13  N2  UNL     1      15.571  12.517  36.866  0.00  0.00    -0.252 NA
ENDROOT
BRANCH   8  14
ATOM     14  N1  UNL     1      19.576   8.901  35.323  0.00  0.00    -0.280 N 
ATOM     15  C9  UNL     1      20.799   8.699  36.051  0.00  0.00    +0.248 C 
ATOM     16  O1  UNL     1      20.872   9.059  37.258  0.00  0.00    -0.270 OA
ATOM     17  H9  UNL     1      19.374   8.272  34.514  0.00  0.00    +0.155 HD
BRANCH  15  18
ATOM     18  C10 UNL     1      21.962   8.034  35.417  0.00  0.00    +0.038 A 
ATOM     19  C11 UNL     1      22.517   6.865  35.969  0.00  0.00    +0.014 A 
ATOM     20  C12 UNL     1      23.609   6.242  35.358  0.00  0.00    +0.022 A 
ATOM     21  C13 UNL     1      24.161   6.772  34.187  0.00  0.00    +0.059 A 
ATOM     22 CL1  UNL     1      25.534   5.958  33.450  0.00  0.00    -0.082 Cl
ATOM     23  C14 UNL     1      23.610   7.931  33.621  0.00  0.00    +0.060 A 
ATOM     24 CL2  UNL     1      24.271   8.627  32.146  0.00  0.00    -0.082 Cl
ATOM     25  C15 UNL     1      22.515   8.554  34.233  0.00  0.00    +0.034 A 
ENDBRANCH  15  18
ENDBRANCH   8  14
TORSDOF 2
ENDMDL
MODEL 9
REMARK VINA RESULT:    -5.964      3.485      9.706
REMARK INTER + INTRA:          -7.096
REMARK INTER:                  -6.717
REMARK INTRA:                  -0.380
REMARK UNBOUND:                -0.434
REMARK  Name = /home/qwerty/github/datacon2025hack/step_04_hit_selection/docking/ligands/lig_644.pdb
REMARK  4 active torsions:
REMARK  status: ('A' for Active; 'I' for Inactive)
REMARK    1  A    between atoms: C1_1  and  C2_2
REMARK    2  A    between atoms: C4_4  and  C5_5
REMARK    3  A    between atoms: C8_8  and  N1_9
REMARK    4  A    between atoms: C9_10  and  C10_12
REMARK                            x       y       z     vdW  Elec       q    Type
REMARK                         _______ _______ _______ _____ _____    ______ ____
ROOT
ATOM      1  C1  UNL     1      25.537   5.664  33.023  0.00  0.00    +0.065 C 
ATOM      2  C2  UNL     1      24.460   6.615  33.440  0.00  0.00    +0.039 A 
ATOM      3  C3  UNL     1      24.203   7.764  32.687  0.00  0.00    +0.027 A 
ATOM      4  C4  UNL     1      23.193   8.656  33.083  0.00  0.00    -0.040 A 
ATOM      5  C5  UNL     1      22.934   9.885  32.251  0.00  0.00    +0.044 C 
ATOM      6  C6  UNL     1      22.445   8.371  34.253  0.00  0.00    +0.005 A 
ATOM      7  C7  UNL     1      21.417   9.215  34.719  0.00  0.00    +0.035 A 
ATOM      8  C8  UNL     1      20.691   8.895  35.880  0.00  0.00    +0.053 A 
ATOM      9  C16 UNL     1      21.016   7.728  36.598  0.00  0.00    +0.064 A 
ATOM     10 CL3  UNL     1      20.139   7.271  38.053  0.00  0.00    -0.082 Cl
ATOM     11  C17 UNL     1      22.035   6.887  36.144  0.00  0.00    +0.050 A 
ATOM     12  C18 UNL     1      22.746   7.197  34.981  0.00  0.00    +0.073 A 
ATOM     13  N2  UNL     1      23.732   6.363  34.559  0.00  0.00    -0.252 NA
ENDROOT
BRANCH   8  14
ATOM     14  N1  UNL     1      19.659   9.778  36.357  0.00  0.00    -0.280 N 
ATOM     15  C9  UNL     1      18.259   9.557  36.113  0.00  0.00    +0.248 C 
ATOM     16  O1  UNL     1      17.857   8.404  35.795  0.00  0.00    -0.270 OA
ATOM     17  H9  UNL     1      19.930  10.566  36.986  0.00  0.00    +0.155 HD
BRANCH  15  18
ATOM     18  C10 UNL     1      17.275  10.655  36.271  0.00  0.00    +0.038 A 
ATOM     19  C11 UNL     1      16.107  10.474  37.034  0.00  0.00    +0.014 A 
ATOM     20  C12 UNL     1      15.190  11.518  37.184  0.00  0.00    +0.022 A 
ATOM     21  C13 UNL     1      15.425  12.757  36.579  0.00  0.00    +0.059 A 
ATOM     22 CL1  UNL     1      14.247  14.044  36.791  0.00  0.00    -0.082 Cl
ATOM     23  C14 UNL     1      16.592  12.953  35.825  0.00  0.00    +0.060 A 
ATOM     24 CL2  UNL     1      16.927  14.497  35.052  0.00  0.00    -0.082 Cl
ATOM     25  C15 UNL     1      17.510  11.907  35.676  0.00  0.00    +0.034 A 
ENDBRANCH  15  18
ENDBRANCH   8  14
TORSDOF 2
ENDMDL
