REMARK  Name = /home/qwerty/github/datacon2025hack/step_04_hit_selection/docking/ligands/lig_131.pdb
REMARK  5 active torsions:
REMARK  status: ('A' for Active; 'I' for Inactive)
REMARK    1  A    between atoms: C1_1  and  C2_2
REMARK    2  A    between atoms: C5_6  and  C6_7
REMARK    3  A    between atoms: C9_12  and  N3_13
REMARK    4  A    between atoms: C10_14  and  C11_16
REMARK    5  A    between atoms: C15_22  and  C16_23
REMARK                            x       y       z     vdW  Elec       q    Type
REMARK                         _______ _______ _______ _____ _____    ______ ____
ROOT
ATOM      1  C6  UNL     1      -1.324  -0.223  -2.919  0.00  0.00    +0.248 C 
ATOM      2  O1  UNL     1      -1.620  -0.306  -4.142  0.00  0.00    -0.270 OA
ATOM      3  N2  UNL     1       0.030  -0.480  -2.504  0.00  0.00    -0.293 N 
ATOM      4  C7  UNL     1       0.891  -1.407  -3.217  0.00  0.00    +0.110 C 
ATOM      5  C8  UNL     1       2.143  -1.540  -2.364  0.00  0.00    +0.043 C 
ATOM      6  C9  UNL     1       2.176  -0.281  -1.492  0.00  0.00    +0.095 C 
ATOM      7  C15 UNL     1       0.717   0.197  -1.406  0.00  0.00    +0.093 C 
ATOM      8  C16 UNL     1       0.621   1.723  -1.543  0.00  0.00    +0.030 C 
ENDROOT
BRANCH   1  14
ATOM      9  C1  UNL     1      -5.575  -0.078   3.034  0.00  0.00    +0.086 C 
ATOM     10  C2  UNL     1      -4.847   0.125   1.747  0.00  0.00    +0.106 A 
ATOM     11  N1  UNL     1      -3.742  -0.592   1.401  0.00  0.00    -0.231 NA
ATOM     12  C3  UNL     1      -3.467  -0.127   0.170  0.00  0.00    +0.109 A 
ATOM     13  C4  UNL     1      -2.443  -0.507  -0.689  0.00  0.00    +0.046 A 
ATOM     14  C5  UNL     1      -2.379   0.130  -1.948  0.00  0.00    +0.057 A 
ATOM     15  C17 UNL     1      -3.369   1.091  -2.289  0.00  0.00    +0.126 A 
ATOM     16  N6  UNL     1      -4.357   1.421  -1.402  0.00  0.00    -0.235 NA
ATOM     17  C18 UNL     1      -4.377   0.809  -0.194  0.00  0.00    +0.158 A 
ATOM     18  N7  UNL     1      -5.269   0.985   0.785  0.00  0.00    -0.327 N 
ATOM     19  H19 UNL     1      -6.097   1.621   0.798  0.00  0.00    +0.168 HD
ENDBRANCH   1  14
BRANCH   6  20
ATOM     20  N3  UNL     1       2.719  -0.566  -0.160  0.00  0.00    -0.305 N 
ATOM     21  C10 UNL     1       3.537   0.374   0.556  0.00  0.00    +0.263 C 
ATOM     22  O2  UNL     1       3.893   1.449  -0.002  0.00  0.00    -0.269 OA
ATOM     23  H10 UNL     1       2.364  -1.410   0.344  0.00  0.00    +0.149 HD
BRANCH  21  24
ATOM     24  C11 UNL     1       3.967   0.093   1.943  0.00  0.00    +0.129 A 
ATOM     25  C12 UNL     1       4.752   1.010   2.659  0.00  0.00    +0.053 A 
ATOM     26  C13 UNL     1       5.129   0.693   3.964  0.00  0.00    +0.115 A 
ATOM     27  N4  UNL     1       4.736  -0.483   4.518  0.00  0.00    -0.244 NA
ATOM     28  C14 UNL     1       3.977  -1.362   3.816  0.00  0.00    +0.221 A 
ATOM     29  N5  UNL     1       3.599  -1.072   2.544  0.00  0.00    -0.231 NA
ENDBRANCH  21  24
ENDBRANCH   6  20
TORSDOF 3
