MODEL 1
REMARK VINA RESULT:    -7.742      0.000      0.000
REMARK INTER + INTRA:         -11.346
REMARK INTER:                 -10.457
REMARK INTRA:                  -0.889
REMARK UNBOUND:                -0.889
REMARK  Name = /home/qwerty/github/datacon2025hack/step_04_hit_selection/docking/ligands/lig_217.pdb
REMARK  9 active torsions:
REMARK  status: ('A' for Active; 'I' for Inactive)
REMARK    1  A    between atoms: C1_1  and  C2_2
REMARK    2  A    between atoms: C2_2  and  C3_3
REMARK    3  A    between atoms: C2_2  and  C4_4
REMARK    4  A    between atoms: C2_2  and  C5_5
REMARK    5  A    between atoms: N1_7  and  C6_8
REMARK    6  A    between atoms: C9_11  and  S1_12
REMARK    7  A    between atoms: S1_12  and  N2_15
REMARK    8  A    between atoms: N2_15  and  C10_16
REMARK    9  A    between atoms: C14_21  and  C15_22
REMARK                            x       y       z     vdW  Elec       q    Type
REMARK                         _______ _______ _______ _____ _____    ______ ____
ROOT
ATOM      1  N2  UNL     1      24.083   6.993  35.301  0.00  0.00    -0.216 N 
ATOM      2  H13 UNL     1      24.947   6.875  35.878  0.00  0.00    +0.174 HD
ENDROOT
BRANCH   1   3
ATOM      3  C10 UNL     1      22.887   7.485  35.934  0.00  0.00    +0.050 A 
ATOM      4  C11 UNL     1      22.411   6.840  37.105  0.00  0.00    +0.026 A 
ATOM      5  C12 UNL     1      21.246   7.289  37.756  0.00  0.00    +0.029 A 
ATOM      6  C13 UNL     1      20.585   8.386  37.210  0.00  0.00    +0.067 A 
ATOM      7  N3  UNL     1      19.472   8.992  37.646  0.00  0.00    -0.338 N 
ATOM      8  C14 UNL     1      19.277  10.001  36.755  0.00  0.00    +0.141 A 
ATOM      9  N5  UNL     1      20.227  10.047  35.784  0.00  0.00    -0.228 NA
ATOM     10  C20 UNL     1      21.034   9.018  36.095  0.00  0.00    +0.091 A 
ATOM     11  C21 UNL     1      22.181   8.605  35.426  0.00  0.00    +0.054 A 
ATOM     12  H16 UNL     1      18.911   8.742  38.487  0.00  0.00    +0.167 HD
BRANCH   8  13
ATOM     13  C15 UNL     1      18.157  10.972  36.822  0.00  0.00    +0.035 A 
ATOM     14  C16 UNL     1      16.978  10.636  37.508  0.00  0.00    +0.014 A 
ATOM     15  C17 UNL     1      15.922  11.543  37.573  0.00  0.00    +0.020 A 
ATOM     16  C18 UNL     1      16.051  12.786  36.956  0.00  0.00    +0.111 A 
ATOM     17  N4  UNL     1      17.196  13.107  36.301  0.00  0.00    -0.263 NA
ATOM     18  C19 UNL     1      18.240  12.240  36.219  0.00  0.00    +0.122 A 
ENDBRANCH   8  13
ENDBRANCH   1   3
BRANCH   1  19
ATOM     19  S1  UNL     1      24.153   6.430  33.660  0.00  0.00    +0.072 S 
ATOM     20  O2  UNL     1      23.025   5.468  33.420  0.00  0.00    -0.150 OA
ATOM     21  O3  UNL     1      25.448   5.706  33.424  0.00  0.00    -0.150 OA
BRANCH  19  25
ATOM     22  C6  UNL     1      23.753   9.963  30.778  0.00  0.00    +0.034 A 
ATOM     23  C7  UNL     1      24.741   9.960  31.778  0.00  0.00    +0.025 A 
ATOM     24  C8  UNL     1      24.852   8.881  32.659  0.00  0.00    +0.030 A 
ATOM     25  C9  UNL     1      23.977   7.792  32.556  0.00  0.00    +0.109 A 
ATOM     26  C22 UNL     1      22.995   7.788  31.555  0.00  0.00    +0.030 A 
ATOM     27  C23 UNL     1      22.894   8.860  30.663  0.00  0.00    +0.025 A 
BRANCH  22  30
ATOM     28  C5  UNL     1      22.546  11.980  29.848  0.00  0.00    +0.223 C 
ATOM     29  O1  UNL     1      21.455  11.648  30.391  0.00  0.00    -0.275 OA
ATOM     30  N1  UNL     1      23.643  11.049  29.844  0.00  0.00    -0.285 N 
ATOM     31  H10 UNL     1      24.343  11.101  29.069  0.00  0.00    +0.155 HD
BRANCH  28  33
ATOM     32  C1  UNL     1      24.064  13.443  28.503  0.00  0.00    +0.020 C 
ATOM     33  C2  UNL     1      22.669  13.327  29.145  0.00  0.00    +0.039 C 
ATOM     34  C3  UNL     1      21.598  13.469  28.038  0.00  0.00    +0.020 C 
ATOM     35  C4  UNL     1      22.471  14.463  30.170  0.00  0.00    +0.020 C 
ENDBRANCH  28  33
ENDBRANCH  22  30
ENDBRANCH  19  25
ENDBRANCH   1  19
TORSDOF 6
ENDMDL
MODEL 2
REMARK VINA RESULT:    -7.402      7.348     12.091
REMARK INTER + INTRA:         -10.888
REMARK INTER:                  -9.993
REMARK INTRA:                  -0.895
REMARK UNBOUND:                -0.889
REMARK  Name = /home/qwerty/github/datacon2025hack/step_04_hit_selection/docking/ligands/lig_217.pdb
REMARK  9 active torsions:
REMARK  status: ('A' for Active; 'I' for Inactive)
REMARK    1  A    between atoms: C1_1  and  C2_2
REMARK    2  A    between atoms: C2_2  and  C3_3
REMARK    3  A    between atoms: C2_2  and  C4_4
REMARK    4  A    between atoms: C2_2  and  C5_5
REMARK    5  A    between atoms: N1_7  and  C6_8
REMARK    6  A    between atoms: C9_11  and  S1_12
REMARK    7  A    between atoms: S1_12  and  N2_15
REMARK    8  A    between atoms: N2_15  and  C10_16
REMARK    9  A    between atoms: C14_21  and  C15_22
REMARK                            x       y       z     vdW  Elec       q    Type
REMARK                         _______ _______ _______ _____ _____    ______ ____
ROOT
ATOM      1  N2  UNL     1      21.411   0.988  27.584  0.00  0.00    -0.216 N 
ATOM      2  H13 UNL     1      20.864   0.241  27.099  0.00  0.00    +0.174 HD
ENDROOT
BRANCH   1   3
ATOM      3  C10 UNL     1      21.404   2.319  27.036  0.00  0.00    +0.050 A 
ATOM      4  C11 UNL     1      21.231   3.423  27.911  0.00  0.00    +0.026 A 
ATOM      5  C12 UNL     1      21.219   4.743  27.418  0.00  0.00    +0.029 A 
ATOM      6  C13 UNL     1      21.386   4.920  26.047  0.00  0.00    +0.067 A 
ATOM      7  N3  UNL     1      21.414   6.064  25.351  0.00  0.00    -0.338 N 
ATOM      8  C14 UNL     1      21.611   5.662  24.066  0.00  0.00    +0.141 A 
ATOM      9  N5  UNL     1      21.709   4.312  23.938  0.00  0.00    -0.228 NA
ATOM     10  C20 UNL     1      21.561   3.873  25.200  0.00  0.00    +0.091 A 
ATOM     11  C21 UNL     1      21.579   2.557  25.650  0.00  0.00    +0.054 A 
ATOM     12  H16 UNL     1      21.321   7.031  25.729  0.00  0.00    +0.167 HD
BRANCH   8  13
ATOM     13  C15 UNL     1      21.722   6.583  22.908  0.00  0.00    +0.035 A 
ATOM     14  C16 UNL     1      22.916   6.640  22.170  0.00  0.00    +0.014 A 
ATOM     15  C17 UNL     1      23.027   7.503  21.082  0.00  0.00    +0.020 A 
ATOM     16  C18 UNL     1      21.941   8.304  20.732  0.00  0.00    +0.111 A 
ATOM     17  N4  UNL     1      20.788   8.238  21.446  0.00  0.00    -0.263 NA
ATOM     18  C19 UNL     1      20.653   7.407  22.513  0.00  0.00    +0.122 A 
ENDBRANCH   8  13
ENDBRANCH   1   3
BRANCH   1  19
ATOM     19  S1  UNL     1      22.399   0.493  28.923  0.00  0.00    +0.072 S 
ATOM     20  O2  UNL     1      23.754   1.129  28.798  0.00  0.00    -0.150 OA
ATOM     21  O3  UNL     1      22.574  -0.999  28.904  0.00  0.00    -0.150 OA
BRANCH  19  25
ATOM     22  C6  UNL     1      20.497   1.824  32.868  0.00  0.00    +0.034 A 
ATOM     23  C7  UNL     1      20.025   0.686  32.190  0.00  0.00    +0.025 A 
ATOM     24  C8  UNL     1      20.605   0.290  30.983  0.00  0.00    +0.030 A 
ATOM     25  C9  UNL     1      21.663   1.026  30.434  0.00  0.00    +0.109 A 
ATOM     26  C22 UNL     1      22.143   2.157  31.111  0.00  0.00    +0.030 A 
ATOM     27  C23 UNL     1      21.572   2.543  32.327  0.00  0.00    +0.025 A 
BRANCH  22  30
ATOM     28  C5  UNL     1      18.660   2.889  34.239  0.00  0.00    +0.223 C 
ATOM     29  O1  UNL     1      18.188   3.497  33.238  0.00  0.00    -0.275 OA
ATOM     30  N1  UNL     1      19.933   2.227  34.126  0.00  0.00    -0.285 N 
ATOM     31  H10 UNL     1      20.521   2.120  34.983  0.00  0.00    +0.155 HD
BRANCH  28  33
ATOM     32  C1  UNL     1      16.410   2.730  35.319  0.00  0.00    +0.020 C 
ATOM     33  C2  UNL     1      17.917   2.921  35.570  0.00  0.00    +0.039 C 
ATOM     34  C3  UNL     1      18.413   1.790  36.502  0.00  0.00    +0.020 C 
ATOM     35  C4  UNL     1      18.163   4.276  36.265  0.00  0.00    +0.020 C 
ENDBRANCH  28  33
ENDBRANCH  22  30
ENDBRANCH  19  25
ENDBRANCH   1  19
TORSDOF 6
ENDMDL
MODEL 3
REMARK VINA RESULT:    -7.388      4.733      9.261
REMARK INTER + INTRA:         -10.869
REMARK INTER:                 -10.020
REMARK INTRA:                  -0.849
REMARK UNBOUND:                -0.889
REMARK  Name = /home/qwerty/github/datacon2025hack/step_04_hit_selection/docking/ligands/lig_217.pdb
REMARK  9 active torsions:
REMARK  status: ('A' for Active; 'I' for Inactive)
REMARK    1  A    between atoms: C1_1  and  C2_2
REMARK    2  A    between atoms: C2_2  and  C3_3
REMARK    3  A    between atoms: C2_2  and  C4_4
REMARK    4  A    between atoms: C2_2  and  C5_5
REMARK    5  A    between atoms: N1_7  and  C6_8
REMARK    6  A    between atoms: C9_11  and  S1_12
REMARK    7  A    between atoms: S1_12  and  N2_15
REMARK    8  A    between atoms: N2_15  and  C10_16
REMARK    9  A    between atoms: C14_21  and  C15_22
REMARK                            x       y       z     vdW  Elec       q    Type
REMARK                         _______ _______ _______ _____ _____    ______ ____
ROOT
ATOM      1  N2  UNL     1      21.093   9.383  36.509  0.00  0.00    -0.216 N 
ATOM      2  H13 UNL     1      21.374   9.604  37.491  0.00  0.00    +0.174 HD
ENDROOT
BRANCH   1   3
ATOM      3  C10 UNL     1      21.552   8.155  35.915  0.00  0.00    +0.050 A 
ATOM      4  C11 UNL     1      22.923   7.805  36.027  0.00  0.00    +0.026 A 
ATOM      5  C12 UNL     1      23.415   6.613  35.462  0.00  0.00    +0.029 A 
ATOM      6  C13 UNL     1      22.508   5.794  34.795  0.00  0.00    +0.067 A 
ATOM      7  N3  UNL     1      22.733   4.622  34.186  0.00  0.00    -0.338 N 
ATOM      8  C14 UNL     1      21.510   4.257  33.715  0.00  0.00    +0.141 A 
ATOM      9  N5  UNL     1      20.534   5.156  34.010  0.00  0.00    -0.228 NA
ATOM     10  C20 UNL     1      21.192   6.112  34.687  0.00  0.00    +0.091 A 
ATOM     11  C21 UNL     1      20.670   7.280  35.233  0.00  0.00    +0.054 A 
ATOM     12  H16 UNL     1      23.641   4.116  34.116  0.00  0.00    +0.167 HD
BRANCH   8  13
ATOM     13  C15 UNL     1      21.242   3.006  32.963  0.00  0.00    +0.035 A 
ATOM     14  C16 UNL     1      20.286   2.093  33.439  0.00  0.00    +0.014 A 
ATOM     15  C17 UNL     1      20.030   0.917  32.739  0.00  0.00    +0.020 A 
ATOM     16  C18 UNL     1      20.727   0.658  31.559  0.00  0.00    +0.111 A 
ATOM     17  N4  UNL     1      21.644   1.549  31.101  0.00  0.00    -0.263 NA
ATOM     18  C19 UNL     1      21.915   2.703  31.766  0.00  0.00    +0.122 A 
ENDBRANCH   8  13
ENDBRANCH   1   3
BRANCH   1  19
ATOM     19  S1  UNL     1      20.220  10.612  35.647  0.00  0.00    +0.072 S 
ATOM     20  O2  UNL     1      20.441  10.431  34.172  0.00  0.00    -0.150 OA
ATOM     21  O3  UNL     1      20.732  11.970  36.037  0.00  0.00    -0.150 OA
BRANCH  19  25
ATOM     22  C6  UNL     1      15.741  10.179  36.483  0.00  0.00    +0.034 A 
ATOM     23  C7  UNL     1      16.224  10.229  35.164  0.00  0.00    +0.025 A 
ATOM     24  C8  UNL     1      17.592  10.369  34.916  0.00  0.00    +0.030 A 
ATOM     25  C9  UNL     1      18.496  10.464  35.982  0.00  0.00    +0.109 A 
ATOM     26  C22 UNL     1      18.019  10.406  37.300  0.00  0.00    +0.030 A 
ATOM     27  C23 UNL     1      16.653  10.250  37.547  0.00  0.00    +0.025 A 
BRANCH  22  30
ATOM     28  C5  UNL     1      13.395  11.088  36.726  0.00  0.00    +0.223 C 
ATOM     29  O1  UNL     1      13.807  12.274  36.860  0.00  0.00    -0.275 OA
ATOM     30  N1  UNL     1      14.342  10.004  36.756  0.00  0.00    -0.285 N 
ATOM     31  H10 UNL     1      14.021   9.066  37.086  0.00  0.00    +0.155 HD
BRANCH  28  33
ATOM     32  C1  UNL     1      11.315  11.654  35.457  0.00  0.00    +0.020 C 
ATOM     33  C2  UNL     1      11.901  10.809  36.604  0.00  0.00    +0.039 C 
ATOM     34  C3  UNL     1      11.644   9.314  36.302  0.00  0.00    +0.020 C 
ATOM     35  C4  UNL     1      11.200  11.172  37.930  0.00  0.00    +0.020 C 
ENDBRANCH  28  33
ENDBRANCH  22  30
ENDBRANCH  19  25
ENDBRANCH   1  19
TORSDOF 6
ENDMDL
MODEL 4
REMARK VINA RESULT:    -7.239      8.870      9.746
REMARK INTER + INTRA:         -10.668
REMARK INTER:                  -9.698
REMARK INTRA:                  -0.970
REMARK UNBOUND:                -0.889
REMARK  Name = /home/qwerty/github/datacon2025hack/step_04_hit_selection/docking/ligands/lig_217.pdb
REMARK  9 active torsions:
REMARK  status: ('A' for Active; 'I' for Inactive)
REMARK    1  A    between atoms: C1_1  and  C2_2
REMARK    2  A    between atoms: C2_2  and  C3_3
REMARK    3  A    between atoms: C2_2  and  C4_4
REMARK    4  A    between atoms: C2_2  and  C5_5
REMARK    5  A    between atoms: N1_7  and  C6_8
REMARK    6  A    between atoms: C9_11  and  S1_12
REMARK    7  A    between atoms: S1_12  and  N2_15
REMARK    8  A    between atoms: N2_15  and  C10_16
REMARK    9  A    between atoms: C14_21  and  C15_22
REMARK                            x       y       z     vdW  Elec       q    Type
REMARK                         _______ _______ _______ _____ _____    ______ ____
ROOT
ATOM      1  N2  UNL     1      22.013   1.989  30.443  0.00  0.00    -0.216 N 
ATOM      2  H13 UNL     1      22.674   2.655  30.902  0.00  0.00    +0.174 HD
ENDROOT
BRANCH   1   3
ATOM      3  C10 UNL     1      20.687   1.842  30.985  0.00  0.00    +0.050 A 
ATOM      4  C11 UNL     1      19.568   2.028  30.132  0.00  0.00    +0.026 A 
ATOM      5  C12 UNL     1      18.255   1.892  30.621  0.00  0.00    +0.029 A 
ATOM      6  C13 UNL     1      18.097   1.567  31.965  0.00  0.00    +0.067 A 
ATOM      7  N3  UNL     1      16.963   1.383  32.652  0.00  0.00    -0.338 N 
ATOM      8  C14 UNL     1      17.385   1.078  33.909  0.00  0.00    +0.141 A 
ATOM      9  N5  UNL     1      18.739   1.065  34.028  0.00  0.00    -0.228 NA
ATOM     10  C20 UNL     1      19.159   1.378  32.791  0.00  0.00    +0.091 A 
ATOM     11  C21 UNL     1      20.470   1.502  32.344  0.00  0.00    +0.054 A 
ATOM     12  H16 UNL     1      15.990   1.445  32.285  0.00  0.00    +0.167 HD
BRANCH   8  13
ATOM     13  C15 UNL     1      16.481   0.777  35.047  0.00  0.00    +0.035 A 
ATOM     14  C16 UNL     1      16.593  -0.446  35.727  0.00  0.00    +0.014 A 
ATOM     15  C17 UNL     1      15.747  -0.735  36.795  0.00  0.00    +0.020 A 
ATOM     16  C18 UNL     1      14.793   0.205  37.184  0.00  0.00    +0.111 A 
ATOM     17  N4  UNL     1      14.696   1.389  36.527  0.00  0.00    -0.263 NA
ATOM     18  C19 UNL     1      15.506   1.694  35.480  0.00  0.00    +0.122 A 
ENDBRANCH   8  13
ENDBRANCH   1   3
BRANCH   1  19
ATOM     19  S1  UNL     1      22.649   1.014  29.155  0.00  0.00    +0.072 S 
ATOM     20  O2  UNL     1      22.147  -0.394  29.307  0.00  0.00    -0.150 OA
ATOM     21  O3  UNL     1      24.150   0.989  29.228  0.00  0.00    -0.150 OA
BRANCH  19  25
ATOM     22  C6  UNL     1      21.278   2.648  25.106  0.00  0.00    +0.034 A 
ATOM     23  C7  UNL     1      22.329   3.261  25.809  0.00  0.00    +0.025 A 
ATOM     24  C8  UNL     1      22.738   2.761  27.048  0.00  0.00    +0.030 A 
ATOM     25  C9  UNL     1      22.100   1.644  27.603  0.00  0.00    +0.109 A 
ATOM     26  C22 UNL     1      21.056   1.024  26.901  0.00  0.00    +0.030 A 
ATOM     27  C23 UNL     1      20.658   1.515  25.654  0.00  0.00    +0.025 A 
BRANCH  22  30
ATOM     28  C5  UNL     1      19.894   4.177  23.643  0.00  0.00    +0.223 C 
ATOM     29  O1  UNL     1      19.081   4.427  24.577  0.00  0.00    -0.275 OA
ATOM     30  N1  UNL     1      20.865   3.129  23.816  0.00  0.00    -0.285 N 
ATOM     31  H10 UNL     1      21.217   2.626  22.970  0.00  0.00    +0.155 HD
BRANCH  28  33
ATOM     32  C1  UNL     1      18.525   4.492  21.575  0.00  0.00    +0.020 C 
ATOM     33  C2  UNL     1      19.796   4.934  22.324  0.00  0.00    +0.039 C 
ATOM     34  C3  UNL     1      19.723   6.459  22.570  0.00  0.00    +0.020 C 
ATOM     35  C4  UNL     1      21.040   4.632  21.464  0.00  0.00    +0.020 C 
ENDBRANCH  28  33
ENDBRANCH  22  30
ENDBRANCH  19  25
ENDBRANCH   1  19
TORSDOF 6
ENDMDL
MODEL 5
REMARK VINA RESULT:    -7.178      3.658      6.003
REMARK INTER + INTRA:         -10.585
REMARK INTER:                  -9.795
REMARK INTRA:                  -0.791
REMARK UNBOUND:                -0.889
REMARK  Name = /home/qwerty/github/datacon2025hack/step_04_hit_selection/docking/ligands/lig_217.pdb
REMARK  9 active torsions:
REMARK  status: ('A' for Active; 'I' for Inactive)
REMARK    1  A    between atoms: C1_1  and  C2_2
REMARK    2  A    between atoms: C2_2  and  C3_3
REMARK    3  A    between atoms: C2_2  and  C4_4
REMARK    4  A    between atoms: C2_2  and  C5_5
REMARK    5  A    between atoms: N1_7  and  C6_8
REMARK    6  A    between atoms: C9_11  and  S1_12
REMARK    7  A    between atoms: S1_12  and  N2_15
REMARK    8  A    between atoms: N2_15  and  C10_16
REMARK    9  A    between atoms: C14_21  and  C15_22
REMARK                            x       y       z     vdW  Elec       q    Type
REMARK                         _______ _______ _______ _____ _____    ______ ____
ROOT
ATOM      1  N2  UNL     1      23.300   8.077  35.272  0.00  0.00    -0.216 N 
ATOM      2  H13 UNL     1      24.068   7.770  35.911  0.00  0.00    +0.174 HD
ENDROOT
BRANCH   1   3
ATOM      3  C10 UNL     1      21.995   8.330  35.825  0.00  0.00    +0.050 A 
ATOM      4  C11 UNL     1      21.453   7.412  36.761  0.00  0.00    +0.026 A 
ATOM      5  C12 UNL     1      20.180   7.622  37.327  0.00  0.00    +0.029 A 
ATOM      6  C13 UNL     1      19.481   8.761  36.936  0.00  0.00    +0.067 A 
ATOM      7  N3  UNL     1      18.270   9.174  37.333  0.00  0.00    -0.338 N 
ATOM      8  C14 UNL     1      18.080  10.336  36.653  0.00  0.00    +0.141 A 
ATOM      9  N5  UNL     1      19.128  10.662  35.850  0.00  0.00    -0.228 NA
ATOM     10  C20 UNL     1      19.992   9.652  36.048  0.00  0.00    +0.091 A 
ATOM     11  C21 UNL     1      21.244   9.479  35.469  0.00  0.00    +0.054 A 
ATOM     12  H16 UNL     1      17.642   8.705  38.020  0.00  0.00    +0.167 HD
BRANCH   8  13
ATOM     13  C15 UNL     1      16.868  11.185  36.767  0.00  0.00    +0.035 A 
ATOM     14  C16 UNL     1      15.607  10.588  36.925  0.00  0.00    +0.014 A 
ATOM     15  C17 UNL     1      14.465  11.378  37.031  0.00  0.00    +0.020 A 
ATOM     16  C18 UNL     1      14.589  12.767  36.985  0.00  0.00    +0.111 A 
ATOM     17  N4  UNL     1      15.812  13.337  36.840  0.00  0.00    -0.263 NA
ATOM     18  C19 UNL     1      16.942  12.589  36.731  0.00  0.00    +0.122 A 
ENDBRANCH   8  13
ENDBRANCH   1   3
BRANCH   1  19
ATOM     19  S1  UNL     1      23.656   8.097  33.572  0.00  0.00    +0.072 S 
ATOM     20  O2  UNL     1      25.142   7.996  33.377  0.00  0.00    -0.150 OA
ATOM     21  O3  UNL     1      23.188   9.392  32.969  0.00  0.00    -0.150 OA
BRANCH  19  25
ATOM     22  C6  UNL     1      21.624   4.514  31.577  0.00  0.00    +0.034 A 
ATOM     23  C7  UNL     1      22.016   4.458  32.926  0.00  0.00    +0.025 A 
ATOM     24  C8  UNL     1      22.642   5.553  33.526  0.00  0.00    +0.030 A 
ATOM     25  C9  UNL     1      22.889   6.718  32.788  0.00  0.00    +0.109 A 
ATOM     26  C22 UNL     1      22.492   6.780  31.444  0.00  0.00    +0.030 A 
ATOM     27  C23 UNL     1      21.851   5.690  30.848  0.00  0.00    +0.025 A 
BRANCH  22  30
ATOM     28  C5  UNL     1      21.579   2.134  30.725  0.00  0.00    +0.223 C 
ATOM     29  O1  UNL     1      22.839   2.063  30.691  0.00  0.00    -0.275 OA
ATOM     30  N1  UNL     1      20.951   3.410  30.952  0.00  0.00    -0.285 N 
ATOM     31  H10 UNL     1      19.997   3.576  30.560  0.00  0.00    +0.155 HD
BRANCH  28  33
ATOM     32  C1  UNL     1      19.508   1.278  29.615  0.00  0.00    +0.020 C 
ATOM     33  C2  UNL     1      20.737   0.891  30.459  0.00  0.00    +0.039 C 
ATOM     34  C3  UNL     1      21.555  -0.171  29.687  0.00  0.00    +0.020 C 
ATOM     35  C4  UNL     1      20.279   0.283  31.800  0.00  0.00    +0.020 C 
ENDBRANCH  28  33
ENDBRANCH  22  30
ENDBRANCH  19  25
ENDBRANCH   1  19
TORSDOF 6
ENDMDL
MODEL 6
REMARK VINA RESULT:    -7.126     14.749     18.272
REMARK INTER + INTRA:         -10.515
REMARK INTER:                  -9.989
REMARK INTRA:                  -0.526
REMARK UNBOUND:                -0.889
REMARK  Name = /home/qwerty/github/datacon2025hack/step_04_hit_selection/docking/ligands/lig_217.pdb
REMARK  9 active torsions:
REMARK  status: ('A' for Active; 'I' for Inactive)
REMARK    1  A    between atoms: C1_1  and  C2_2
REMARK    2  A    between atoms: C2_2  and  C3_3
REMARK    3  A    between atoms: C2_2  and  C4_4
REMARK    4  A    between atoms: C2_2  and  C5_5
REMARK    5  A    between atoms: N1_7  and  C6_8
REMARK    6  A    between atoms: C9_11  and  S1_12
REMARK    7  A    between atoms: S1_12  and  N2_15
REMARK    8  A    between atoms: N2_15  and  C10_16
REMARK    9  A    between atoms: C14_21  and  C15_22
REMARK                            x       y       z     vdW  Elec       q    Type
REMARK                         _______ _______ _______ _____ _____    ______ ____
ROOT
ATOM      1  N2  UNL     1       9.058   8.166  20.416  0.00  0.00    -0.216 N 
ATOM      2  H13 UNL     1       8.093   8.258  20.026  0.00  0.00    +0.174 HD
ENDROOT
BRANCH   1   3
ATOM      3  C10 UNL     1       9.654   6.858  20.496  0.00  0.00    +0.050 A 
ATOM      4  C11 UNL     1       8.824   5.738  20.762  0.00  0.00    +0.026 A 
ATOM      5  C12 UNL     1       9.366   4.441  20.848  0.00  0.00    +0.029 A 
ATOM      6  C13 UNL     1      10.738   4.301  20.660  0.00  0.00    +0.067 A 
ATOM      7  N3  UNL     1      11.475   3.183  20.689  0.00  0.00    -0.338 N 
ATOM      8  C14 UNL     1      12.739   3.616  20.435  0.00  0.00    +0.141 A 
ATOM      9  N5  UNL     1      12.815   4.960  20.246  0.00  0.00    -0.228 NA
ATOM     10  C20 UNL     1      11.542   5.363  20.396  0.00  0.00    +0.091 A 
ATOM     11  C21 UNL     1      11.044   6.658  20.303  0.00  0.00    +0.054 A 
ATOM     12  H16 UNL     1      11.135   2.212  20.854  0.00  0.00    +0.167 HD
BRANCH   8  13
ATOM     13  C15 UNL     1      13.927   2.731  20.355  0.00  0.00    +0.035 A 
ATOM     14  C16 UNL     1      15.172   3.259  19.974  0.00  0.00    +0.014 A 
ATOM     15  C17 UNL     1      16.291   2.434  19.896  0.00  0.00    +0.020 A 
ATOM     16  C18 UNL     1      16.164   1.080  20.207  0.00  0.00    +0.111 A 
ATOM     17  N4  UNL     1      14.959   0.578  20.582  0.00  0.00    -0.263 NA
ATOM     18  C19 UNL     1      13.851   1.360  20.663  0.00  0.00    +0.122 A 
ENDBRANCH   8  13
ENDBRANCH   1   3
BRANCH   1  19
ATOM     19  S1  UNL     1       9.778   9.604  21.072  0.00  0.00    +0.072 S 
ATOM     20  O2  UNL     1       9.317  10.794  20.279  0.00  0.00    -0.150 OA
ATOM     21  O3  UNL     1      11.275   9.518  20.965  0.00  0.00    -0.150 OA
BRANCH  19  25
ATOM     22  C6  UNL     1       8.497  10.192  25.426  0.00  0.00    +0.034 A 
ATOM     23  C7  UNL     1       9.858  10.180  25.073  0.00  0.00    +0.025 A 
ATOM     24  C8  UNL     1      10.242   9.992  23.743  0.00  0.00    +0.030 A 
ATOM     25  C9  UNL     1       9.273   9.811  22.748  0.00  0.00    +0.109 A 
ATOM     26  C22 UNL     1       7.914   9.831  23.094  0.00  0.00    +0.030 A 
ATOM     27  C23 UNL     1       7.530  10.034  24.423  0.00  0.00    +0.025 A 
BRANCH  22  30
ATOM     28  C5  UNL     1       8.079   9.379  27.783  0.00  0.00    +0.223 C 
ATOM     29  O1  UNL     1       8.045   8.169  27.420  0.00  0.00    -0.275 OA
ATOM     30  N1  UNL     1       8.083  10.415  26.784  0.00  0.00    -0.285 N 
ATOM     31  H10 UNL     1       7.676  11.347  27.025  0.00  0.00    +0.155 HD
BRANCH  28  33
ATOM     32  C1  UNL     1       9.309   9.183  29.952  0.00  0.00    +0.020 C 
ATOM     33  C2  UNL     1       8.043   9.731  29.266  0.00  0.00    +0.039 C 
ATOM     34  C3  UNL     1       7.994  11.264  29.465  0.00  0.00    +0.020 C 
ATOM     35  C4  UNL     1       6.788   9.109  29.913  0.00  0.00    +0.020 C 
ENDBRANCH  28  33
ENDBRANCH  22  30
ENDBRANCH  19  25
ENDBRANCH   1  19
TORSDOF 6
ENDMDL
MODEL 7
REMARK VINA RESULT:    -7.108     13.300     15.692
REMARK INTER + INTRA:         -10.491
REMARK INTER:                  -9.768
REMARK INTRA:                  -0.722
REMARK UNBOUND:                -0.889
REMARK  Name = /home/qwerty/github/datacon2025hack/step_04_hit_selection/docking/ligands/lig_217.pdb
REMARK  9 active torsions:
REMARK  status: ('A' for Active; 'I' for Inactive)
REMARK    1  A    between atoms: C1_1  and  C2_2
REMARK    2  A    between atoms: C2_2  and  C3_3
REMARK    3  A    between atoms: C2_2  and  C4_4
REMARK    4  A    between atoms: C2_2  and  C5_5
REMARK    5  A    between atoms: N1_7  and  C6_8
REMARK    6  A    between atoms: C9_11  and  S1_12
REMARK    7  A    between atoms: S1_12  and  N2_15
REMARK    8  A    between atoms: N2_15  and  C10_16
REMARK    9  A    between atoms: C14_21  and  C15_22
REMARK                            x       y       z     vdW  Elec       q    Type
REMARK                         _______ _______ _______ _____ _____    ______ ____
ROOT
ATOM      1  N2  UNL     1      15.655  -1.546  22.231  0.00  0.00    -0.216 N 
ATOM      2  H13 UNL     1      15.850  -2.377  21.630  0.00  0.00    +0.174 HD
ENDROOT
BRANCH   1   3
ATOM      3  C10 UNL     1      15.193  -0.332  21.609  0.00  0.00    +0.050 A 
ATOM      4  C11 UNL     1      15.927   0.208  20.522  0.00  0.00    +0.026 A 
ATOM      5  C12 UNL     1      15.510   1.393  19.885  0.00  0.00    +0.029 A 
ATOM      6  C13 UNL     1      14.355   2.008  20.358  0.00  0.00    +0.067 A 
ATOM      7  N3  UNL     1      13.765   3.127  19.919  0.00  0.00    -0.338 N 
ATOM      8  C14 UNL     1      12.677   3.263  20.725  0.00  0.00    +0.141 A 
ATOM      9  N5  UNL     1      12.568   2.270  21.646  0.00  0.00    -0.228 NA
ATOM     10  C20 UNL     1      13.638   1.497  21.393  0.00  0.00    +0.091 A 
ATOM     11  C21 UNL     1      14.018   0.330  22.046  0.00  0.00    +0.054 A 
ATOM     12  H16 UNL     1      14.075   3.731  19.128  0.00  0.00    +0.167 HD
BRANCH   8  13
ATOM     13  C15 UNL     1      11.691   4.367  20.621  0.00  0.00    +0.035 A 
ATOM     14  C16 UNL     1      12.129   5.678  20.372  0.00  0.00    +0.014 A 
ATOM     15  C17 UNL     1      11.208   6.719  20.275  0.00  0.00    +0.020 A 
ATOM     16  C18 UNL     1       9.849   6.444  20.420  0.00  0.00    +0.111 A 
ATOM     17  N4  UNL     1       9.432   5.173  20.652  0.00  0.00    -0.263 NA
ATOM     18  C19 UNL     1      10.309   4.140  20.755  0.00  0.00    +0.122 A 
ENDBRANCH   8  13
ENDBRANCH   1   3
BRANCH   1  19
ATOM     19  S1  UNL     1      16.062  -1.681  23.914  0.00  0.00    +0.072 S 
ATOM     20  O2  UNL     1      16.514  -3.085  24.201  0.00  0.00    -0.150 OA
ATOM     21  O3  UNL     1      14.851  -1.394  24.756  0.00  0.00    -0.150 OA
BRANCH  19  25
ATOM     22  C6  UNL     1      19.521   1.151  24.896  0.00  0.00    +0.034 A 
ATOM     23  C7  UNL     1      19.464  -0.136  25.459  0.00  0.00    +0.025 A 
ATOM     24  C8  UNL     1      18.401  -0.992  25.160  0.00  0.00    +0.030 A 
ATOM     25  C9  UNL     1      17.379  -0.575  24.298  0.00  0.00    +0.109 A 
ATOM     26  C22 UNL     1      17.436   0.705  23.728  0.00  0.00    +0.030 A 
ATOM     27  C23 UNL     1      18.508   1.556  24.014  0.00  0.00    +0.025 A 
BRANCH  22  30
ATOM     28  C5  UNL     1      20.631   2.961  26.267  0.00  0.00    +0.223 C 
ATOM     29  O1  UNL     1      19.536   3.322  26.782  0.00  0.00    -0.275 OA
ATOM     30  N1  UNL     1      20.622   2.033  25.166  0.00  0.00    -0.285 N 
ATOM     31  H10 UNL     1      21.404   2.067  24.475  0.00  0.00    +0.155 HD
BRANCH  28  33
ATOM     32  C1  UNL     1      22.759   2.472  27.487  0.00  0.00    +0.020 C 
ATOM     33  C2  UNL     1      21.942   3.560  26.765  0.00  0.00    +0.039 C 
ATOM     34  C3  UNL     1      22.778   4.110  25.586  0.00  0.00    +0.020 C 
ATOM     35  C4  UNL     1      21.641   4.718  27.739  0.00  0.00    +0.020 C 
ENDBRANCH  28  33
ENDBRANCH  22  30
ENDBRANCH  19  25
ENDBRANCH   1  19
TORSDOF 6
ENDMDL
MODEL 8
REMARK VINA RESULT:    -7.089      9.453     13.075
REMARK INTER + INTRA:         -10.464
REMARK INTER:                  -9.720
REMARK INTRA:                  -0.745
REMARK UNBOUND:                -0.889
REMARK  Name = /home/qwerty/github/datacon2025hack/step_04_hit_selection/docking/ligands/lig_217.pdb
REMARK  9 active torsions:
REMARK  status: ('A' for Active; 'I' for Inactive)
REMARK    1  A    between atoms: C1_1  and  C2_2
REMARK    2  A    between atoms: C2_2  and  C3_3
REMARK    3  A    between atoms: C2_2  and  C4_4
REMARK    4  A    between atoms: C2_2  and  C5_5
REMARK    5  A    between atoms: N1_7  and  C6_8
REMARK    6  A    between atoms: C9_11  and  S1_12
REMARK    7  A    between atoms: S1_12  and  N2_15
REMARK    8  A    between atoms: N2_15  and  C10_16
REMARK    9  A    between atoms: C14_21  and  C15_22
REMARK                            x       y       z     vdW  Elec       q    Type
REMARK                         _______ _______ _______ _____ _____    ______ ____
ROOT
ATOM      1  N2  UNL     1      22.631   2.250  27.832  0.00  0.00    -0.216 N 
ATOM      2  H13 UNL     1      23.123   3.151  28.024  0.00  0.00    +0.174 HD
ENDROOT
BRANCH   1   3
ATOM      3  C10 UNL     1      21.674   2.196  26.758  0.00  0.00    +0.050 A 
ATOM      4  C11 UNL     1      21.966   2.862  25.540  0.00  0.00    +0.026 A 
ATOM      5  C12 UNL     1      21.058   2.834  24.464  0.00  0.00    +0.029 A 
ATOM      6  C13 UNL     1      19.871   2.130  24.640  0.00  0.00    +0.067 A 
ATOM      7  N3  UNL     1      18.865   1.958  23.772  0.00  0.00    -0.338 N 
ATOM      8  C14 UNL     1      17.973   1.188  24.451  0.00  0.00    +0.141 A 
ATOM      9  N5  UNL     1      18.387   0.873  25.707  0.00  0.00    -0.228 NA
ATOM     10  C20 UNL     1      19.582   1.481  25.798  0.00  0.00    +0.091 A 
ATOM     11  C21 UNL     1      20.453   1.485  26.881  0.00  0.00    +0.054 A 
ATOM     12  H16 UNL     1      18.808   2.324  22.798  0.00  0.00    +0.167 HD
BRANCH   8  13
ATOM     13  C15 UNL     1      16.679   0.718  23.896  0.00  0.00    +0.035 A 
ATOM     14  C16 UNL     1      15.808  -0.042  24.694  0.00  0.00    +0.014 A 
ATOM     15  C17 UNL     1      14.593  -0.487  24.179  0.00  0.00    +0.020 A 
ATOM     16  C18 UNL     1      14.249  -0.165  22.867  0.00  0.00    +0.111 A 
ATOM     17  N4  UNL     1      15.092   0.577  22.104  0.00  0.00    -0.263 NA
ATOM     18  C19 UNL     1      16.285   1.020  22.580  0.00  0.00    +0.122 A 
ENDBRANCH   8  13
ENDBRANCH   1   3
BRANCH   1  19
ATOM     19  S1  UNL     1      22.918   0.947  28.944  0.00  0.00    +0.072 S 
ATOM     20  O2  UNL     1      24.369   0.942  29.335  0.00  0.00    -0.150 OA
ATOM     21  O3  UNL     1      22.604  -0.366  28.283  0.00  0.00    -0.150 OA
BRANCH  19  25
ATOM     22  C6  UNL     1      20.401   1.490  32.727  0.00  0.00    +0.034 A 
ATOM     23  C7  UNL     1      20.186   0.394  31.873  0.00  0.00    +0.025 A 
ATOM     24  C8  UNL     1      20.954   0.239  30.715  0.00  0.00    +0.030 A 
ATOM     25  C9  UNL     1      21.944   1.177  30.394  0.00  0.00    +0.109 A 
ATOM     26  C22 UNL     1      22.167   2.267  31.248  0.00  0.00    +0.030 A 
ATOM     27  C23 UNL     1      21.409   2.413  32.414  0.00  0.00    +0.025 A 
BRANCH  22  30
ATOM     28  C5  UNL     1      18.218   1.855  33.950  0.00  0.00    +0.223 C 
ATOM     29  O1  UNL     1      17.650   2.306  32.916  0.00  0.00    -0.275 OA
ATOM     30  N1  UNL     1      19.643   1.648  33.938  0.00  0.00    -0.285 N 
ATOM     31  H10 UNL     1      20.168   1.713  34.839  0.00  0.00    +0.155 HD
BRANCH  28  33
ATOM     32  C1  UNL     1      16.222   2.582  35.270  0.00  0.00    +0.020 C 
ATOM     33  C2  UNL     1      17.409   1.601  35.216  0.00  0.00    +0.039 C 
ATOM     34  C3  UNL     1      16.860   0.155  35.237  0.00  0.00    +0.020 C 
ATOM     35  C4  UNL     1      18.310   1.804  36.452  0.00  0.00    +0.020 C 
ENDBRANCH  28  33
ENDBRANCH  22  30
ENDBRANCH  19  25
ENDBRANCH   1  19
TORSDOF 6
ENDMDL
MODEL 9
REMARK VINA RESULT:    -7.019      6.249     10.096
REMARK INTER + INTRA:         -10.370
REMARK INTER:                  -9.614
REMARK INTRA:                  -0.757
REMARK UNBOUND:                -0.889
REMARK  Name = /home/qwerty/github/datacon2025hack/step_04_hit_selection/docking/ligands/lig_217.pdb
REMARK  9 active torsions:
REMARK  status: ('A' for Active; 'I' for Inactive)
REMARK    1  A    between atoms: C1_1  and  C2_2
REMARK    2  A    between atoms: C2_2  and  C3_3
REMARK    3  A    between atoms: C2_2  and  C4_4
REMARK    4  A    between atoms: C2_2  and  C5_5
REMARK    5  A    between atoms: N1_7  and  C6_8
REMARK    6  A    between atoms: C9_11  and  S1_12
REMARK    7  A    between atoms: S1_12  and  N2_15
REMARK    8  A    between atoms: N2_15  and  C10_16
REMARK    9  A    between atoms: C14_21  and  C15_22
REMARK                            x       y       z     vdW  Elec       q    Type
REMARK                         _______ _______ _______ _____ _____    ______ ____
ROOT
ATOM      1  N2  UNL     1      14.821  11.332  35.573  0.00  0.00    -0.216 N 
ATOM      2  H13 UNL     1      14.037  10.687  35.325  0.00  0.00    +0.174 HD
ENDROOT
BRANCH   1   3
ATOM      3  C10 UNL     1      15.991  10.790  36.212  0.00  0.00    +0.050 A 
ATOM      4  C11 UNL     1      16.124  10.906  37.620  0.00  0.00    +0.026 A 
ATOM      5  C12 UNL     1      17.253  10.390  38.286  0.00  0.00    +0.029 A 
ATOM      6  C13 UNL     1      18.225   9.761  37.514  0.00  0.00    +0.067 A 
ATOM      7  N3  UNL     1      19.371   9.194  37.914  0.00  0.00    -0.338 N 
ATOM      8  C14 UNL     1      19.927   8.728  36.763  0.00  0.00    +0.141 A 
ATOM      9  N5  UNL     1      19.168   8.983  35.663  0.00  0.00    -0.228 NA
ATOM     10  C20 UNL     1      18.107   9.635  36.167  0.00  0.00    +0.091 A 
ATOM     11  C21 UNL     1      17.007  10.131  35.474  0.00  0.00    +0.054 A 
ATOM     12  H16 UNL     1      19.727   9.121  38.890  0.00  0.00    +0.167 HD
BRANCH   8  13
ATOM     13  C15 UNL     1      21.220   8.005  36.690  0.00  0.00    +0.035 A 
ATOM     14  C16 UNL     1      21.673   7.266  37.795  0.00  0.00    +0.014 A 
ATOM     15  C17 UNL     1      22.887   6.585  37.733  0.00  0.00    +0.020 A 
ATOM     16  C18 UNL     1      23.643   6.641  36.563  0.00  0.00    +0.111 A 
ATOM     17  N4  UNL     1      23.195   7.352  35.496  0.00  0.00    -0.263 NA
ATOM     18  C19 UNL     1      22.016   8.028  35.531  0.00  0.00    +0.122 A 
ENDBRANCH   8  13
ENDBRANCH   1   3
BRANCH   1  19
ATOM     19  S1  UNL     1      14.551  13.028  35.318  0.00  0.00    +0.072 S 
ATOM     20  O2  UNL     1      15.806  13.652  34.776  0.00  0.00    -0.150 OA
ATOM     21  O3  UNL     1      14.221  13.694  36.625  0.00  0.00    -0.150 OA
BRANCH  19  25
ATOM     22  C6  UNL     1      11.225  13.645  32.236  0.00  0.00    +0.034 A 
ATOM     23  C7  UNL     1      11.998  14.730  32.685  0.00  0.00    +0.025 A 
ATOM     24  C8  UNL     1      13.007  14.535  33.632  0.00  0.00    +0.030 A 
ATOM     25  C9  UNL     1      13.256  13.256  34.145  0.00  0.00    +0.109 A 
ATOM     26  C22 UNL     1      12.492  12.169  33.694  0.00  0.00    +0.030 A 
ATOM     27  C23 UNL     1      11.494  12.362  32.735  0.00  0.00    +0.025 A 
BRANCH  22  30
ATOM     28  C5  UNL     1      10.340  13.348  29.886  0.00  0.00    +0.223 C 
ATOM     29  O1  UNL     1      11.493  13.133  29.419  0.00  0.00    -0.275 OA
ATOM     30  N1  UNL     1      10.205  13.820  31.240  0.00  0.00    -0.285 N 
ATOM     31  H10 UNL     1       9.372  14.401  31.488  0.00  0.00    +0.155 HD
BRANCH  28  33
ATOM     32  C1  UNL     1       9.369  13.847  27.636  0.00  0.00    +0.020 C 
ATOM     33  C2  UNL     1       9.113  13.176  28.999  0.00  0.00    +0.039 C 
ATOM     34  C3  UNL     1       8.810  11.677  28.765  0.00  0.00    +0.020 C 
ATOM     35  C4  UNL     1       7.890  13.826  29.679  0.00  0.00    +0.020 C 
ENDBRANCH  28  33
ENDBRANCH  22  30
ENDBRANCH  19  25
ENDBRANCH   1  19
TORSDOF 6
ENDMDL
