REMARK  Name = /home/qwerty/github/datacon2025hack/step_04_hit_selection/docking/ligands/lig_541.pdb
REMARK  7 active torsions:
REMARK  status: ('A' for Active; 'I' for Inactive)
REMARK    1  A    between atoms: C1_1  and  C2_2
REMARK    2  A    between atoms: C5_5  and  N1_6
REMARK    3  A    between atoms: C9_10  and  N2_11
REMARK    4  A    between atoms: N3_14  and  C11_15
REMARK    5  A    between atoms: C14_18  and  N4_19
REMARK    6  A    between atoms: N5_22  and  C16_23
REMARK    7  A    between atoms: C16_23  and  C17_24
REMARK                            x       y       z     vdW  Elec       q    Type
REMARK                         _______ _______ _______ _____ _____    ______ ____
ROOT
ATOM      1  N2  UNL     1      -2.531   0.421  -0.307  0.00  0.00    -0.295 N 
ATOM      2  C10 UNL     1      -1.214  -0.144  -0.378  0.00  0.00    +0.304 C 
ATOM      3  O1  UNL     1      -1.007  -1.320   0.029  0.00  0.00    -0.253 OA
ATOM      4  N3  UNL     1      -0.146   0.621  -0.957  0.00  0.00    -0.269 N 
ATOM      5  H13 UNL     1      -2.649   1.425  -0.575  0.00  0.00    +0.151 HD
ATOM      6  H14 UNL     1      -0.404   1.469  -1.511  0.00  0.00    +0.156 HD
ENDROOT
BRANCH   1  11
ATOM      7  N1  UNL     1      -6.152  -0.438   0.210  0.00  0.00    -0.328 N 
ATOM      8  C6  UNL     1      -6.015  -1.209   1.453  0.00  0.00    +0.105 C 
ATOM      9  C7  UNL     1      -5.076  -0.488   2.432  0.00  0.00    +0.021 C 
ATOM     10  C8  UNL     1      -3.871   0.193   1.743  0.00  0.00    +0.025 C 
ATOM     11  C9  UNL     1      -3.666  -0.283   0.295  0.00  0.00    +0.092 C 
ATOM     12  C23 UNL     1      -4.945  -0.030  -0.528  0.00  0.00    +0.127 C 
BRANCH   7  17
ATOM     13  C1  UNL     1     -11.336   1.145  -1.734  0.00  0.00    +0.044 C 
ATOM     14  C2  UNL     1      -9.995   0.707  -1.225  0.00  0.00    -0.050 A 
ATOM     15  C3  UNL     1      -9.659   0.893   0.124  0.00  0.00    +0.005 A 
ATOM     16  C4  UNL     1      -8.399   0.514   0.595  0.00  0.00    +0.023 A 
ATOM     17  C5  UNL     1      -7.452  -0.051  -0.277  0.00  0.00    +0.030 A 
ATOM     18  C24 UNL     1      -7.783  -0.208  -1.634  0.00  0.00    +0.023 A 
ATOM     19  C25 UNL     1      -9.043   0.171  -2.104  0.00  0.00    +0.005 A 
ENDBRANCH   7  17
ENDBRANCH   1  11
BRANCH   4  20
ATOM     20  C11 UNL     1       1.233   0.214  -0.950  0.00  0.00    +0.035 A 
ATOM     21  C12 UNL     1       1.799  -0.442   0.158  0.00  0.00    +0.025 A 
ATOM     22  C13 UNL     1       3.147  -0.815   0.145  0.00  0.00    +0.025 A 
ATOM     23  C14 UNL     1       3.956  -0.520  -0.965  0.00  0.00    +0.035 A 
ATOM     24  C21 UNL     1       3.390   0.137  -2.067  0.00  0.00    +0.025 A 
ATOM     25  C22 UNL     1       2.044   0.515  -2.053  0.00  0.00    +0.025 A 
BRANCH  23  26
ATOM     26  N4  UNL     1       5.335  -0.921  -1.016  0.00  0.00    -0.269 N 
ATOM     27  C15 UNL     1       6.218  -0.917   0.116  0.00  0.00    +0.304 C 
ATOM     28  O2  UNL     1       5.868  -0.365   1.195  0.00  0.00    -0.253 OA
ATOM     29  N5  UNL     1       7.517  -1.511   0.002  0.00  0.00    -0.297 N 
ATOM     30  H17 UNL     1       5.750  -1.135  -1.951  0.00  0.00    +0.156 HD
ATOM     31  H18 UNL     1       7.751  -2.049  -0.863  0.00  0.00    +0.150 HD
BRANCH  29  32
ATOM     32  C16 UNL     1       8.521  -1.429   1.063  0.00  0.00    +0.137 C 
BRANCH  32  33
ATOM     33  C17 UNL     1       9.121  -0.018   1.144  0.00  0.00    +0.135 C 
ATOM     34  C18 UNL     1       9.796   0.398  -0.154  0.00  0.00    +0.035 C 
ATOM     35  C19 UNL     1      10.863   1.331   0.324  0.00  0.00    +0.031 C 
ATOM     36  C20 UNL     1      11.147   0.839   1.732  0.00  0.00    +0.160 C 
ATOM     37  O3  UNL     1      10.076   0.036   2.180  0.00  0.00    -0.375 OA
ENDBRANCH  32  33
ENDBRANCH  29  32
ENDBRANCH  23  26
ENDBRANCH   4  20
TORSDOF 6
