REMARK  Name = /home/qwerty/github/datacon2025hack/step_04_hit_selection/docking/ligands/lig_673.pdb
REMARK  5 active torsions:
REMARK  status: ('A' for Active; 'I' for Inactive)
REMARK    1  A    between atoms: C1_2  and  C19_27
REMARK    2  A    between atoms: N1_3  and  C2_4
REMARK    3  A    between atoms: C7_9  and  N2_10
REMARK    4  A    between atoms: N2_10  and  C8_11
REMARK    5  A    between atoms: N3_15  and  C11_16
REMARK                            x       y       z     vdW  Elec       q    Type
REMARK                         _______ _______ _______ _____ _____    ______ ____
ROOT
ATOM      1  N2  UNL     1       0.763  -1.180  -0.196  0.00  0.00    -0.309 N 
ATOM      2  H6  UNL     1       1.063  -0.930  -1.169  0.00  0.00    +0.152 HD
ENDROOT
BRANCH   1   3
ATOM      3  C8  UNL     1      -0.423  -0.566   0.321  0.00  0.00    +0.100 C 
ATOM      4  C9  UNL     1      -0.633  -0.251   1.595  0.00  0.00    +0.096 C 
ATOM      5  C10 UNL     1      -1.954   0.372   1.667  0.00  0.00    +0.252 C 
ATOM      6  O2  UNL     1      -2.464   0.836   2.720  0.00  0.00    -0.270 OA
ATOM      7  N3  UNL     1      -2.569   0.429   0.378  0.00  0.00    -0.202 N 
ATOM      8  C18 UNL     1      -1.584  -0.169  -0.467  0.00  0.00    +0.272 C 
ATOM      9  O3  UNL     1      -1.759  -0.453  -1.683  0.00  0.00    -0.268 OA
BRANCH   7  10
ATOM     10  C11 UNL     1      -3.917   0.820   0.034  0.00  0.00    +0.045 A 
ATOM     11  C12 UNL     1      -4.225   1.255  -1.289  0.00  0.00    +0.026 A 
ATOM     12  C13 UNL     1      -5.541   1.609  -1.651  0.00  0.00    +0.029 A 
ATOM     13  C14 UNL     1      -6.522   1.534  -0.670  0.00  0.00    +0.066 A 
ATOM     14  N4  UNL     1      -7.824   1.855  -0.767  0.00  0.00    -0.277 N 
ATOM     15  N5  UNL     1      -8.383   1.693   0.428  0.00  0.00    -0.181 NA
ATOM     16  C15 UNL     1      -7.429   1.252   1.292  0.00  0.00    +0.142 A 
ATOM     17  C16 UNL     1      -6.237   1.145   0.605  0.00  0.00    +0.021 A 
ATOM     18  C17 UNL     1      -4.953   0.767   1.000  0.00  0.00    +0.035 A 
ATOM     19  H10 UNL     1      -8.329   2.197  -1.618  0.00  0.00    +0.189 HD
ENDBRANCH   7  10
ENDBRANCH   1   3
BRANCH   1  25
ATOM     20  C2  UNL     1       2.857  -2.385   0.362  0.00  0.00    +0.055 A 
ATOM     21  C3  UNL     1       3.491  -3.523   0.897  0.00  0.00    +0.025 A 
ATOM     22  C4  UNL     1       2.754  -4.487   1.595  0.00  0.00    +0.002 A 
ATOM     23  C5  UNL     1       1.377  -4.323   1.766  0.00  0.00    +0.002 A 
ATOM     24  C6  UNL     1       0.729  -3.210   1.214  0.00  0.00    +0.025 A 
ATOM     25  C7  UNL     1       1.455  -2.238   0.496  0.00  0.00    +0.053 A 
BRANCH  20  28
ATOM     26  O1  UNL     1       2.930   0.362   1.089  0.00  0.00    -0.270 OA
ATOM     27  C1  UNL     1       3.621   0.005   0.094  0.00  0.00    +0.248 C 
ATOM     28  N1  UNL     1       3.656  -1.385  -0.293  0.00  0.00    -0.280 N 
ATOM     29  H1  UNL     1       4.465  -1.716  -0.865  0.00  0.00    +0.155 HD
BRANCH  27  30
ATOM     30  C19 UNL     1       4.436   1.017  -0.621  0.00  0.00    +0.037 A 
ATOM     31  C20 UNL     1       4.847   2.193   0.042  0.00  0.00    +0.013 A 
ATOM     32  C21 UNL     1       5.636   3.140  -0.618  0.00  0.00    +0.001 A 
ATOM     33  C22 UNL     1       6.010   2.932  -1.949  0.00  0.00    +0.000 A 
ATOM     34  C23 UNL     1       5.591   1.778  -2.625  0.00  0.00    +0.001 A 
ATOM     35  C24 UNL     1       4.810   0.823  -1.966  0.00  0.00    +0.013 A 
ENDBRANCH  27  30
ENDBRANCH  20  28
ENDBRANCH   1  25
TORSDOF 5
