MODEL 1
REMARK VINA RESULT:    -6.618      0.000      0.000
REMARK INTER + INTRA:          -8.799
REMARK INTER:                  -8.166
REMARK INTRA:                  -0.633
REMARK UNBOUND:                -0.633
REMARK  Name = /home/qwerty/github/datacon2025hack/step_04_hit_selection/docking/ligands/lig_11.pdb
REMARK  7 active torsions:
REMARK  status: ('A' for Active; 'I' for Inactive)
REMARK    1  A    between atoms: C1_1  and  C2_2
REMARK    2  A    between atoms: C2_2  and  C3_3
REMARK    3  A    between atoms: C2_2  and  C4_4
REMARK    4  A    between atoms: C10_10  and  N1_11
REMARK    5  A    between atoms: N2_14  and  C12_15
REMARK    6  A    between atoms: N4_18  and  C14_19
REMARK    7  A    between atoms: C15_20  and  C16_21
REMARK                            x       y       z     vdW  Elec       q    Type
REMARK                         _______ _______ _______ _____ _____    ______ ____
ROOT
ATOM      1  N1  UNL     1      10.903   7.454  19.966  0.00  0.00    -0.292 N 
ATOM      2  C11 UNL     1      11.597   6.313  20.481  0.00  0.00    +0.304 C 
ATOM      3  O1  UNL     1      12.412   6.445  21.434  0.00  0.00    -0.252 OA
ATOM      4  N2  UNL     1      11.342   5.015  19.926  0.00  0.00    -0.266 N 
ATOM      5  H12 UNL     1      10.224   7.312  19.183  0.00  0.00    +0.151 HD
ATOM      6  H13 UNL     1      10.475   4.885  19.357  0.00  0.00    +0.156 HD
ENDROOT
BRANCH   1  13
ATOM      7  C4  UNL     1       8.544   9.223  23.271  0.00  0.00    -0.044 A 
ATOM      8  C5  UNL     1       7.889  10.359  22.741  0.00  0.00    +0.004 A 
ATOM      9  C6  UNL     1       8.313  10.927  21.530  0.00  0.00    +0.004 A 
ATOM     10  C7  UNL     1       9.390  10.352  20.857  0.00  0.00    -0.042 A 
ATOM     11  C8  UNL     1      10.030   9.248  21.356  0.00  0.00    -0.024 A 
ATOM     12  C9  UNL     1       9.632   8.666  22.562  0.00  0.00    +0.009 A 
ATOM     13  C10 UNL     1      11.146   8.805  20.482  0.00  0.00    +0.105 C 
ATOM     14  C17 UNL     1      11.156   9.845  19.337  0.00  0.00    +0.032 C 
ATOM     15  C18 UNL     1       9.977  10.809  19.576  0.00  0.00    +0.037 C 
BRANCH   7  17
ATOM     16  C1  UNL     1       8.976   7.456  25.007  0.00  0.00    +0.012 C 
ATOM     17  C2  UNL     1       8.073   8.619  24.579  0.00  0.00    +0.013 C 
ATOM     18  C3  UNL     1       7.986   9.684  25.678  0.00  0.00    +0.012 C 
ENDBRANCH   7  17
ENDBRANCH   1  13
BRANCH   4  19
ATOM     19  C12 UNL     1      12.060   3.844  20.332  0.00  0.00    +0.084 A 
ATOM     20  C13 UNL     1      13.323   3.495  19.905  0.00  0.00    +0.158 A 
ATOM     21  N3  UNL     1      13.669   2.326  20.479  0.00  0.00    -0.177 NA
ATOM     22  N4  UNL     1      12.671   1.941  21.262  0.00  0.00    -0.261 N 
ATOM     23  C14 UNL     1      12.716   0.719  22.059  0.00  0.00    +0.173 C 
ATOM     24  C15 UNL     1      11.677   2.861  21.231  0.00  0.00    +0.163 A 
BRANCH  24  25
ATOM     25  C16 UNL     1      10.411   2.802  22.051  0.00  0.00    +0.436 C 
ATOM     26  F1  UNL     1       9.492   3.721  21.581  0.00  0.00    -0.164 F 
ATOM     27  F2  UNL     1       9.835   1.548  21.974  0.00  0.00    -0.164 F 
ATOM     28  F3  UNL     1      10.703   3.091  23.371  0.00  0.00    -0.164 F 
ENDBRANCH  24  25
ENDBRANCH   4  19
TORSDOF 4
ENDMDL
MODEL 2
REMARK VINA RESULT:    -6.593      1.828      2.222
REMARK INTER + INTRA:          -8.767
REMARK INTER:                  -8.282
REMARK INTRA:                  -0.485
REMARK UNBOUND:                -0.633
REMARK  Name = /home/qwerty/github/datacon2025hack/step_04_hit_selection/docking/ligands/lig_11.pdb
REMARK  7 active torsions:
REMARK  status: ('A' for Active; 'I' for Inactive)
REMARK    1  A    between atoms: C1_1  and  C2_2
REMARK    2  A    between atoms: C2_2  and  C3_3
REMARK    3  A    between atoms: C2_2  and  C4_4
REMARK    4  A    between atoms: C10_10  and  N1_11
REMARK    5  A    between atoms: N2_14  and  C12_15
REMARK    6  A    between atoms: N4_18  and  C14_19
REMARK    7  A    between atoms: C15_20  and  C16_21
REMARK                            x       y       z     vdW  Elec       q    Type
REMARK                         _______ _______ _______ _____ _____    ______ ____
ROOT
ATOM      1  N1  UNL     1      10.693   7.441  19.975  0.00  0.00    -0.292 N 
ATOM      2  C11 UNL     1      11.161   6.263  20.642  0.00  0.00    +0.304 C 
ATOM      3  O1  UNL     1      11.836   6.362  21.702  0.00  0.00    -0.252 OA
ATOM      4  N2  UNL     1      10.836   4.970  20.112  0.00  0.00    -0.266 N 
ATOM      5  H12 UNL     1      10.126   7.327  19.104  0.00  0.00    +0.151 HD
ATOM      6  H13 UNL     1      10.054   4.904  19.423  0.00  0.00    +0.156 HD
ENDROOT
BRANCH   1  13
ATOM      7  C4  UNL     1       8.417   9.441  23.206  0.00  0.00    -0.044 A 
ATOM      8  C5  UNL     1       7.844  10.604  22.640  0.00  0.00    +0.004 A 
ATOM      9  C6  UNL     1       8.318  11.113  21.422  0.00  0.00    +0.004 A 
ATOM     10  C7  UNL     1       9.363  10.452  20.777  0.00  0.00    -0.042 A 
ATOM     11  C8  UNL     1       9.924   9.322  21.311  0.00  0.00    -0.024 A 
ATOM     12  C9  UNL     1       9.474   8.797  22.525  0.00  0.00    +0.009 A 
ATOM     13  C10 UNL     1      11.018   8.785  20.462  0.00  0.00    +0.105 C 
ATOM     14  C17 UNL     1      11.110   9.794  19.293  0.00  0.00    +0.032 C 
ATOM     15  C18 UNL     1       9.994  10.839  19.494  0.00  0.00    +0.037 C 
BRANCH   7  17
ATOM     16  C1  UNL     1       8.660   7.644  24.948  0.00  0.00    +0.012 C 
ATOM     17  C2  UNL     1       7.892   8.901  24.522  0.00  0.00    +0.013 C 
ATOM     18  C3  UNL     1       7.939   9.975  25.616  0.00  0.00    +0.012 C 
ENDBRANCH   7  17
ENDBRANCH   1  13
BRANCH   4  19
ATOM     19  C12 UNL     1      11.341   3.753  20.676  0.00  0.00    +0.084 A 
ATOM     20  C13 UNL     1      10.602   2.846  21.404  0.00  0.00    +0.158 A 
ATOM     21  N3  UNL     1      11.409   1.837  21.787  0.00  0.00    -0.177 NA
ATOM     22  N4  UNL     1      12.622   2.076  21.310  0.00  0.00    -0.261 N 
ATOM     23  C14 UNL     1      13.748   1.170  21.518  0.00  0.00    +0.173 C 
ATOM     24  C15 UNL     1      12.619   3.224  20.590  0.00  0.00    +0.163 A 
BRANCH  24  25
ATOM     25  C16 UNL     1      13.801   3.781  19.835  0.00  0.00    +0.436 C 
ATOM     26  F1  UNL     1      14.510   4.658  20.634  0.00  0.00    -0.164 F 
ATOM     27  F2  UNL     1      14.660   2.767  19.452  0.00  0.00    -0.164 F 
ATOM     28  F3  UNL     1      13.355   4.452  18.712  0.00  0.00    -0.164 F 
ENDBRANCH  24  25
ENDBRANCH   4  19
TORSDOF 4
ENDMDL
MODEL 3
REMARK VINA RESULT:    -6.419      8.473     10.936
REMARK INTER + INTRA:          -8.553
REMARK INTER:                  -8.009
REMARK INTRA:                  -0.544
REMARK UNBOUND:                -0.633
REMARK  Name = /home/qwerty/github/datacon2025hack/step_04_hit_selection/docking/ligands/lig_11.pdb
REMARK  7 active torsions:
REMARK  status: ('A' for Active; 'I' for Inactive)
REMARK    1  A    between atoms: C1_1  and  C2_2
REMARK    2  A    between atoms: C2_2  and  C3_3
REMARK    3  A    between atoms: C2_2  and  C4_4
REMARK    4  A    between atoms: C10_10  and  N1_11
REMARK    5  A    between atoms: N2_14  and  C12_15
REMARK    6  A    between atoms: N4_18  and  C14_19
REMARK    7  A    between atoms: C15_20  and  C16_21
REMARK                            x       y       z     vdW  Elec       q    Type
REMARK                         _______ _______ _______ _____ _____    ______ ____
ROOT
ATOM      1  N1  UNL     1      21.094   4.412  22.095  0.00  0.00    -0.292 N 
ATOM      2  C11 UNL     1      20.682   3.861  23.351  0.00  0.00    +0.304 C 
ATOM      3  O1  UNL     1      20.043   4.573  24.173  0.00  0.00    -0.252 OA
ATOM      4  N2  UNL     1      20.975   2.491  23.658  0.00  0.00    -0.266 N 
ATOM      5  H12 UNL     1      21.612   3.794  21.428  0.00  0.00    +0.151 HD
ATOM      6  H13 UNL     1      21.235   1.856  22.871  0.00  0.00    +0.156 HD
ENDROOT
BRANCH   1  13
ATOM      7  C4  UNL     1      17.639   5.681  19.633  0.00  0.00    -0.044 A 
ATOM      8  C5  UNL     1      18.168   6.269  18.460  0.00  0.00    +0.004 A 
ATOM      9  C6  UNL     1      19.510   6.675  18.409  0.00  0.00    +0.004 A 
ATOM     10  C7  UNL     1      20.314   6.487  19.533  0.00  0.00    -0.042 A 
ATOM     11  C8  UNL     1      19.815   5.914  20.673  0.00  0.00    -0.024 A 
ATOM     12  C9  UNL     1      18.481   5.506  20.753  0.00  0.00    +0.009 A 
ATOM     13  C10 UNL     1      20.840   5.812  21.743  0.00  0.00    +0.105 C 
ATOM     14  C17 UNL     1      22.095   6.466  21.119  0.00  0.00    +0.032 C 
ATOM     15  C18 UNL     1      21.743   6.851  19.668  0.00  0.00    +0.037 C 
BRANCH   7  17
ATOM     16  C1  UNL     1      16.071   3.717  19.725  0.00  0.00    +0.012 C 
ATOM     17  C2  UNL     1      16.187   5.245  19.671  0.00  0.00    +0.013 C 
ATOM     18  C3  UNL     1      15.447   5.896  20.846  0.00  0.00    +0.012 C 
ENDBRANCH   7  17
ENDBRANCH   1  13
BRANCH   4  19
ATOM     19  C12 UNL     1      20.670   1.900  24.926  0.00  0.00    +0.084 A 
ATOM     20  C13 UNL     1      19.700   0.946  25.149  0.00  0.00    +0.158 A 
ATOM     21  N3  UNL     1      19.685   0.639  26.460  0.00  0.00    -0.177 NA
ATOM     22  N4  UNL     1      20.622   1.358  27.062  0.00  0.00    -0.261 N 
ATOM     23  C14 UNL     1      20.897   1.261  28.492  0.00  0.00    +0.173 C 
ATOM     24  C15 UNL     1      21.276   2.119  26.153  0.00  0.00    +0.163 A 
BRANCH  24  25
ATOM     25  C16 UNL     1      22.454   3.013  26.454  0.00  0.00    +0.436 C 
ATOM     26  F1  UNL     1      23.259   2.437  27.419  0.00  0.00    -0.164 F 
ATOM     27  F2  UNL     1      23.223   3.210  25.322  0.00  0.00    -0.164 F 
ATOM     28  F3  UNL     1      22.000   4.234  26.917  0.00  0.00    -0.164 F 
ENDBRANCH  24  25
ENDBRANCH   4  19
TORSDOF 4
ENDMDL
MODEL 4
REMARK VINA RESULT:    -6.408      4.116      7.028
REMARK INTER + INTRA:          -8.539
REMARK INTER:                  -7.952
REMARK INTRA:                  -0.587
REMARK UNBOUND:                -0.633
REMARK  Name = /home/qwerty/github/datacon2025hack/step_04_hit_selection/docking/ligands/lig_11.pdb
REMARK  7 active torsions:
REMARK  status: ('A' for Active; 'I' for Inactive)
REMARK    1  A    between atoms: C1_1  and  C2_2
REMARK    2  A    between atoms: C2_2  and  C3_3
REMARK    3  A    between atoms: C2_2  and  C4_4
REMARK    4  A    between atoms: C10_10  and  N1_11
REMARK    5  A    between atoms: N2_14  and  C12_15
REMARK    6  A    between atoms: N4_18  and  C14_19
REMARK    7  A    between atoms: C15_20  and  C16_21
REMARK                            x       y       z     vdW  Elec       q    Type
REMARK                         _______ _______ _______ _____ _____    ______ ____
ROOT
ATOM      1  N1  UNL     1       8.768   7.819  26.102  0.00  0.00    -0.292 N 
ATOM      2  C11 UNL     1       8.982   8.074  24.710  0.00  0.00    +0.304 C 
ATOM      3  O1  UNL     1       8.125   8.721  24.047  0.00  0.00    -0.252 OA
ATOM      4  N2  UNL     1      10.185   7.615  24.078  0.00  0.00    -0.266 N 
ATOM      5  H12 UNL     1       9.502   7.291  26.629  0.00  0.00    +0.151 HD
ATOM      6  H13 UNL     1      10.990   7.350  24.689  0.00  0.00    +0.156 HD
ENDROOT
BRANCH   1  13
ATOM      7  C4  UNL     1       8.334  11.808  27.977  0.00  0.00    -0.044 A 
ATOM      8  C5  UNL     1       8.132  11.589  29.360  0.00  0.00    +0.004 A 
ATOM      9  C6  UNL     1       7.755  10.324  29.833  0.00  0.00    +0.004 A 
ATOM     10  C7  UNL     1       7.585   9.285  28.918  0.00  0.00    -0.042 A 
ATOM     11  C8  UNL     1       7.782   9.483  27.577  0.00  0.00    -0.024 A 
ATOM     12  C9  UNL     1       8.152  10.734  27.078  0.00  0.00    +0.009 A 
ATOM     13  C10 UNL     1       7.545   8.246  26.788  0.00  0.00    +0.105 C 
ATOM     14  C17 UNL     1       7.109   7.207  27.848  0.00  0.00    +0.032 C 
ATOM     15  C18 UNL     1       7.190   7.891  29.228  0.00  0.00    +0.037 C 
BRANCH   7  17
ATOM     16  C1  UNL     1       7.564  14.160  27.527  0.00  0.00    +0.012 C 
ATOM     17  C2  UNL     1       8.743  13.181  27.480  0.00  0.00    +0.013 C 
ATOM     18  C3  UNL     1       9.940  13.720  28.274  0.00  0.00    +0.012 C 
ENDBRANCH   7  17
ENDBRANCH   1  13
BRANCH   4  19
ATOM     19  C12 UNL     1      10.426   7.759  22.674  0.00  0.00    +0.084 A 
ATOM     20  C13 UNL     1      10.344   6.747  21.743  0.00  0.00    +0.158 A 
ATOM     21  N3  UNL     1      10.653   7.245  20.530  0.00  0.00    -0.177 NA
ATOM     22  N4  UNL     1      10.912   8.538  20.670  0.00  0.00    -0.261 N 
ATOM     23  C14 UNL     1      11.265   9.400  19.547  0.00  0.00    +0.173 C 
ATOM     24  C15 UNL     1      10.750   8.905  21.963  0.00  0.00    +0.163 A 
BRANCH  24  25
ATOM     25  C16 UNL     1      10.885  10.312  22.492  0.00  0.00    +0.436 C 
ATOM     26  F1  UNL     1       9.704  11.007  22.310  0.00  0.00    -0.164 F 
ATOM     27  F2  UNL     1      11.168  10.303  23.845  0.00  0.00    -0.164 F 
ATOM     28  F3  UNL     1      11.900  10.962  21.816  0.00  0.00    -0.164 F 
ENDBRANCH  24  25
ENDBRANCH   4  19
TORSDOF 4
ENDMDL
MODEL 5
REMARK VINA RESULT:    -6.339     14.588     16.664
REMARK INTER + INTRA:          -8.454
REMARK INTER:                  -7.783
REMARK INTRA:                  -0.671
REMARK UNBOUND:                -0.633
REMARK  Name = /home/qwerty/github/datacon2025hack/step_04_hit_selection/docking/ligands/lig_11.pdb
REMARK  7 active torsions:
REMARK  status: ('A' for Active; 'I' for Inactive)
REMARK    1  A    between atoms: C1_1  and  C2_2
REMARK    2  A    between atoms: C2_2  and  C3_3
REMARK    3  A    between atoms: C2_2  and  C4_4
REMARK    4  A    between atoms: C10_10  and  N1_11
REMARK    5  A    between atoms: N2_14  and  C12_15
REMARK    6  A    between atoms: N4_18  and  C14_19
REMARK    7  A    between atoms: C15_20  and  C16_21
REMARK                            x       y       z     vdW  Elec       q    Type
REMARK                         _______ _______ _______ _____ _____    ______ ____
ROOT
ATOM      1  N1  UNL     1      13.956  11.266  37.434  0.00  0.00    -0.292 N 
ATOM      2  C11 UNL     1      15.187  10.666  37.016  0.00  0.00    +0.304 C 
ATOM      3  O1  UNL     1      15.205   9.880  36.030  0.00  0.00    -0.252 OA
ATOM      4  N2  UNL     1      16.404  10.985  37.706  0.00  0.00    -0.266 N 
ATOM      5  H12 UNL     1      13.974  11.924  38.247  0.00  0.00    +0.151 HD
ATOM      6  H13 UNL     1      16.418  11.837  38.310  0.00  0.00    +0.156 HD
ENDROOT
BRANCH   1  13
ATOM      7  C4  UNL     1      12.315  13.684  34.107  0.00  0.00    -0.044 A 
ATOM      8  C5  UNL     1      11.086  14.219  34.559  0.00  0.00    +0.004 A 
ATOM      9  C6  UNL     1      10.445  13.680  35.685  0.00  0.00    +0.004 A 
ATOM     10  C7  UNL     1      11.041  12.609  36.351  0.00  0.00    -0.042 A 
ATOM     11  C8  UNL     1      12.233  12.086  35.926  0.00  0.00    -0.024 A 
ATOM     12  C9  UNL     1      12.890  12.600  34.805  0.00  0.00    +0.009 A 
ATOM     13  C10 UNL     1      12.683  10.955  36.778  0.00  0.00    +0.105 C 
ATOM     14  C17 UNL     1      11.546  10.796  37.815  0.00  0.00    +0.032 C 
ATOM     15  C18 UNL     1      10.516  11.912  37.548  0.00  0.00    +0.037 C 
BRANCH   7  17
ATOM     16  C1  UNL     1      14.095  13.347  32.362  0.00  0.00    +0.012 C 
ATOM     17  C2  UNL     1      12.997  14.279  32.890  0.00  0.00    +0.013 C 
ATOM     18  C3  UNL     1      11.977  14.608  31.793  0.00  0.00    +0.012 C 
ENDBRANCH   7  17
ENDBRANCH   1  13
BRANCH   4  19
ATOM     19  C12 UNL     1      17.656  10.359  37.398  0.00  0.00    +0.084 A 
ATOM     20  C13 UNL     1      18.056   9.118  37.841  0.00  0.00    +0.158 A 
ATOM     21  N3  UNL     1      19.293   8.866  37.369  0.00  0.00    -0.177 NA
ATOM     22  N4  UNL     1      19.672   9.903  36.635  0.00  0.00    -0.261 N 
ATOM     23  C14 UNL     1      20.960   9.959  35.951  0.00  0.00    +0.173 C 
ATOM     24  C15 UNL     1      18.684  10.828  36.595  0.00  0.00    +0.163 A 
BRANCH  24  25
ATOM     25  C16 UNL     1      18.723  12.109  35.798  0.00  0.00    +0.436 C 
ATOM     26  F1  UNL     1      17.625  12.894  36.098  0.00  0.00    -0.164 F 
ATOM     27  F2  UNL     1      19.859  12.838  36.096  0.00  0.00    -0.164 F 
ATOM     28  F3  UNL     1      18.710  11.812  34.448  0.00  0.00    -0.164 F 
ENDBRANCH  24  25
ENDBRANCH   4  19
TORSDOF 4
ENDMDL
MODEL 6
REMARK VINA RESULT:    -6.298     16.288     18.438
REMARK INTER + INTRA:          -8.403
REMARK INTER:                  -7.879
REMARK INTRA:                  -0.524
REMARK UNBOUND:                -0.633
REMARK  Name = /home/qwerty/github/datacon2025hack/step_04_hit_selection/docking/ligands/lig_11.pdb
REMARK  7 active torsions:
REMARK  status: ('A' for Active; 'I' for Inactive)
REMARK    1  A    between atoms: C1_1  and  C2_2
REMARK    2  A    between atoms: C2_2  and  C3_3
REMARK    3  A    between atoms: C2_2  and  C4_4
REMARK    4  A    between atoms: C10_10  and  N1_11
REMARK    5  A    between atoms: N2_14  and  C12_15
REMARK    6  A    between atoms: N4_18  and  C14_19
REMARK    7  A    between atoms: C15_20  and  C16_21
REMARK                            x       y       z     vdW  Elec       q    Type
REMARK                         _______ _______ _______ _____ _____    ______ ____
ROOT
ATOM      1  N1  UNL     1      19.924   9.125  35.464  0.00  0.00    -0.292 N 
ATOM      2  C11 UNL     1      19.128  10.316  35.461  0.00  0.00    +0.304 C 
ATOM      3  O1  UNL     1      19.509  11.331  36.105  0.00  0.00    -0.252 OA
ATOM      4  N2  UNL     1      17.912  10.357  34.702  0.00  0.00    -0.266 N 
ATOM      5  H12 UNL     1      19.589   8.302  34.911  0.00  0.00    +0.151 HD
ATOM      6  H13 UNL     1      17.770   9.634  33.962  0.00  0.00    +0.156 HD
ENDROOT
BRANCH   1  13
ATOM      7  C4  UNL     1      23.756   7.761  33.713  0.00  0.00    -0.044 A 
ATOM      8  C5  UNL     1      24.118   6.577  34.398  0.00  0.00    +0.004 A 
ATOM      9  C6  UNL     1      23.519   6.250  35.623  0.00  0.00    +0.004 A 
ATOM     10  C7  UNL     1      22.559   7.111  36.155  0.00  0.00    -0.042 A 
ATOM     11  C8  UNL     1      22.195   8.258  35.499  0.00  0.00    -0.024 A 
ATOM     12  C9  UNL     1      22.780   8.610  34.280  0.00  0.00    +0.009 A 
ATOM     13  C10 UNL     1      21.161   9.023  36.242  0.00  0.00    +0.105 C 
ATOM     14  C17 UNL     1      20.943   8.197  37.531  0.00  0.00    +0.032 C 
ATOM     15  C18 UNL     1      21.824   6.935  37.429  0.00  0.00    +0.037 C 
BRANCH   7  17
ATOM     16  C1  UNL     1      23.373   8.164  31.261  0.00  0.00    +0.012 C 
ATOM     17  C2  UNL     1      24.411   8.099  32.388  0.00  0.00    +0.013 C 
ATOM     18  C3  UNL     1      25.204   9.408  32.484  0.00  0.00    +0.012 C 
ENDBRANCH   7  17
ENDBRANCH   1  13
BRANCH   4  19
ATOM     19  C12 UNL     1      17.025  11.482  34.722  0.00  0.00    +0.084 A 
ATOM     20  C13 UNL     1      16.911  12.425  33.723  0.00  0.00    +0.158 A 
ATOM     21  N3  UNL     1      15.995  13.341  34.093  0.00  0.00    -0.177 NA
ATOM     22  N4  UNL     1      15.524  12.995  35.283  0.00  0.00    -0.261 N 
ATOM     23  C14 UNL     1      14.493  13.759  35.979  0.00  0.00    +0.173 C 
ATOM     24  C15 UNL     1      16.101  11.840  35.692  0.00  0.00    +0.163 A 
BRANCH  24  25
ATOM     25  C16 UNL     1      15.763  11.100  36.962  0.00  0.00    +0.436 C 
ATOM     26  F1  UNL     1      14.393  10.950  37.079  0.00  0.00    -0.164 F 
ATOM     27  F2  UNL     1      16.329   9.838  36.961  0.00  0.00    -0.164 F 
ATOM     28  F3  UNL     1      16.232  11.812  38.050  0.00  0.00    -0.164 F 
ENDBRANCH  24  25
ENDBRANCH   4  19
TORSDOF 4
ENDMDL
MODEL 7
REMARK VINA RESULT:    -6.191     16.401     18.591
REMARK INTER + INTRA:          -8.271
REMARK INTER:                  -7.725
REMARK INTRA:                  -0.546
REMARK UNBOUND:                -0.633
REMARK  Name = /home/qwerty/github/datacon2025hack/step_04_hit_selection/docking/ligands/lig_11.pdb
REMARK  7 active torsions:
REMARK  status: ('A' for Active; 'I' for Inactive)
REMARK    1  A    between atoms: C1_1  and  C2_2
REMARK    2  A    between atoms: C2_2  and  C3_3
REMARK    3  A    between atoms: C2_2  and  C4_4
REMARK    4  A    between atoms: C10_10  and  N1_11
REMARK    5  A    between atoms: N2_14  and  C12_15
REMARK    6  A    between atoms: N4_18  and  C14_19
REMARK    7  A    between atoms: C15_20  and  C16_21
REMARK                            x       y       z     vdW  Elec       q    Type
REMARK                         _______ _______ _______ _____ _____    ______ ____
ROOT
ATOM      1  N1  UNL     1      19.788   9.240  35.764  0.00  0.00    -0.292 N 
ATOM      2  C11 UNL     1      18.882  10.272  36.171  0.00  0.00    +0.304 C 
ATOM      3  O1  UNL     1      19.216  11.086  37.074  0.00  0.00    -0.252 OA
ATOM      4  N2  UNL     1      17.605  10.390  35.530  0.00  0.00    -0.266 N 
ATOM      5  H12 UNL     1      19.489   8.587  35.004  0.00  0.00    +0.151 HD
ATOM      6  H13 UNL     1      17.469   9.909  34.613  0.00  0.00    +0.156 HD
ENDROOT
BRANCH   1  13
ATOM      7  C4  UNL     1      23.452   8.212  33.499  0.00  0.00    -0.044 A 
ATOM      8  C5  UNL     1      23.889   6.955  33.979  0.00  0.00    +0.004 A 
ATOM      9  C6  UNL     1      23.411   6.452  35.197  0.00  0.00    +0.004 A 
ATOM     10  C7  UNL     1      22.496   7.211  35.928  0.00  0.00    -0.042 A 
ATOM     11  C8  UNL     1      22.062   8.428  35.471  0.00  0.00    -0.024 A 
ATOM     12  C9  UNL     1      22.526   8.955  34.264  0.00  0.00    +0.009 A 
ATOM     13  C10 UNL     1      21.095   9.062  36.404  0.00  0.00    +0.105 C 
ATOM     14  C17 UNL     1      21.007   8.064  37.583  0.00  0.00    +0.032 C 
ATOM     15  C18 UNL     1      21.887   6.849  37.228  0.00  0.00    +0.037 C 
BRANCH   7  17
ATOM     16  C1  UNL     1      22.958   9.678  31.516  0.00  0.00    +0.012 C 
ATOM     17  C2  UNL     1      23.976   8.742  32.177  0.00  0.00    +0.013 C 
ATOM     18  C3  UNL     1      25.329   9.439  32.361  0.00  0.00    +0.012 C 
ENDBRANCH   7  17
ENDBRANCH   1  13
BRANCH   4  19
ATOM     19  C12 UNL     1      16.615  11.341  35.943  0.00  0.00    +0.084 A 
ATOM     20  C13 UNL     1      15.718  11.161  36.973  0.00  0.00    +0.158 A 
ATOM     21  N3  UNL     1      14.932  12.252  37.060  0.00  0.00    -0.177 NA
ATOM     22  N4  UNL     1      15.319  13.113  36.130  0.00  0.00    -0.261 N 
ATOM     23  C14 UNL     1      14.694  14.420  35.952  0.00  0.00    +0.173 C 
ATOM     24  C15 UNL     1      16.373  12.611  35.443  0.00  0.00    +0.163 A 
BRANCH  24  25
ATOM     25  C16 UNL     1      17.129  13.336  34.357  0.00  0.00    +0.436 C 
ATOM     26  F1  UNL     1      17.527  14.584  34.801  0.00  0.00    -0.164 F 
ATOM     27  F2  UNL     1      18.264  12.633  33.996  0.00  0.00    -0.164 F 
ATOM     28  F3  UNL     1      16.314  13.489  33.252  0.00  0.00    -0.164 F 
ENDBRANCH  24  25
ENDBRANCH   4  19
TORSDOF 4
ENDMDL
MODEL 8
REMARK VINA RESULT:    -6.167      5.156      7.725
REMARK INTER + INTRA:          -8.241
REMARK INTER:                  -7.822
REMARK INTRA:                  -0.419
REMARK UNBOUND:                -0.633
REMARK  Name = /home/qwerty/github/datacon2025hack/step_04_hit_selection/docking/ligands/lig_11.pdb
REMARK  7 active torsions:
REMARK  status: ('A' for Active; 'I' for Inactive)
REMARK    1  A    between atoms: C1_1  and  C2_2
REMARK    2  A    between atoms: C2_2  and  C3_3
REMARK    3  A    between atoms: C2_2  and  C4_4
REMARK    4  A    between atoms: C10_10  and  N1_11
REMARK    5  A    between atoms: N2_14  and  C12_15
REMARK    6  A    between atoms: N4_18  and  C14_19
REMARK    7  A    between atoms: C15_20  and  C16_21
REMARK                            x       y       z     vdW  Elec       q    Type
REMARK                         _______ _______ _______ _____ _____    ______ ____
ROOT
ATOM      1  N1  UNL     1       9.586  10.625  26.489  0.00  0.00    -0.292 N 
ATOM      2  C11 UNL     1       8.982   9.831  25.462  0.00  0.00    +0.304 C 
ATOM      3  O1  UNL     1       7.771  10.008  25.156  0.00  0.00    -0.252 OA
ATOM      4  N2  UNL     1       9.766   8.853  24.765  0.00  0.00    -0.266 N 
ATOM      5  H12 UNL     1      10.595  10.464  26.713  0.00  0.00    +0.151 HD
ATOM      6  H13 UNL     1      10.806   8.923  24.825  0.00  0.00    +0.156 HD
ENDROOT
BRANCH   1  13
ATOM      7  C4  UNL     1      11.480  14.095  28.486  0.00  0.00    -0.044 A 
ATOM      8  C5  UNL     1      11.229  13.954  29.871  0.00  0.00    +0.004 A 
ATOM      9  C6  UNL     1      10.230  13.084  30.331  0.00  0.00    +0.004 A 
ATOM     10  C7  UNL     1       9.488  12.358  29.399  0.00  0.00    -0.042 A 
ATOM     11  C8  UNL     1       9.724  12.480  28.055  0.00  0.00    -0.024 A 
ATOM     12  C9  UNL     1      10.710  13.344  27.570  0.00  0.00    +0.009 A 
ATOM     13  C10 UNL     1       8.822  11.620  27.247  0.00  0.00    +0.105 C 
ATOM     14  C17 UNL     1       7.914  10.942  28.301  0.00  0.00    +0.032 C 
ATOM     15  C18 UNL     1       8.398  11.398  29.692  0.00  0.00    +0.037 C 
BRANCH   7  17
ATOM     16  C1  UNL     1      13.869  14.821  28.784  0.00  0.00    +0.012 C 
ATOM     17  C2  UNL     1      12.566  15.038  28.005  0.00  0.00    +0.013 C 
ATOM     18  C3  UNL     1      12.793  14.891  26.496  0.00  0.00    +0.012 C 
ENDBRANCH   7  17
ENDBRANCH   1  13
BRANCH   4  19
ATOM     19  C12 UNL     1       9.208   7.966  23.788  0.00  0.00    +0.084 A 
ATOM     20  C13 UNL     1       8.793   6.675  24.028  0.00  0.00    +0.158 A 
ATOM     21  N3  UNL     1       8.343   6.141  22.876  0.00  0.00    -0.177 NA
ATOM     22  N4  UNL     1       8.450   7.061  21.927  0.00  0.00    -0.261 N 
ATOM     23  C14 UNL     1       8.032   6.828  20.548  0.00  0.00    +0.173 C 
ATOM     24  C15 UNL     1       8.942   8.209  22.449  0.00  0.00    +0.163 A 
BRANCH  24  25
ATOM     25  C16 UNL     1       9.134   9.499  21.689  0.00  0.00    +0.436 C 
ATOM     26  F1  UNL     1       9.896  10.383  22.429  0.00  0.00    -0.164 F 
ATOM     27  F2  UNL     1       9.790   9.271  20.494  0.00  0.00    -0.164 F 
ATOM     28  F3  UNL     1       7.902  10.070  21.433  0.00  0.00    -0.164 F 
ENDBRANCH  24  25
ENDBRANCH   4  19
TORSDOF 4
ENDMDL
MODEL 9
REMARK VINA RESULT:    -6.135      2.982      4.654
REMARK INTER + INTRA:          -8.202
REMARK INTER:                  -7.662
REMARK INTRA:                  -0.541
REMARK UNBOUND:                -0.633
REMARK  Name = /home/qwerty/github/datacon2025hack/step_04_hit_selection/docking/ligands/lig_11.pdb
REMARK  7 active torsions:
REMARK  status: ('A' for Active; 'I' for Inactive)
REMARK    1  A    between atoms: C1_1  and  C2_2
REMARK    2  A    between atoms: C2_2  and  C3_3
REMARK    3  A    between atoms: C2_2  and  C4_4
REMARK    4  A    between atoms: C10_10  and  N1_11
REMARK    5  A    between atoms: N2_14  and  C12_15
REMARK    6  A    between atoms: N4_18  and  C14_19
REMARK    7  A    between atoms: C15_20  and  C16_21
REMARK                            x       y       z     vdW  Elec       q    Type
REMARK                         _______ _______ _______ _____ _____    ______ ____
ROOT
ATOM      1  N1  UNL     1      11.118   4.415  21.852  0.00  0.00    -0.292 N 
ATOM      2  C11 UNL     1      11.898   3.234  21.634  0.00  0.00    +0.304 C 
ATOM      3  O1  UNL     1      11.645   2.481  20.655  0.00  0.00    -0.252 OA
ATOM      4  N2  UNL     1      12.985   2.926  22.518  0.00  0.00    -0.266 N 
ATOM      5  H12 UNL     1      11.359   5.027  22.666  0.00  0.00    +0.151 HD
ATOM      6  H13 UNL     1      13.355   3.690  23.127  0.00  0.00    +0.156 HD
ENDROOT
BRANCH   1  13
ATOM      7  C4  UNL     1      10.317   8.549  20.481  0.00  0.00    -0.044 A 
ATOM      8  C5  UNL     1       9.058   8.917  21.011  0.00  0.00    +0.004 A 
ATOM      9  C6  UNL     1       8.176   7.942  21.498  0.00  0.00    +0.004 A 
ATOM     10  C7  UNL     1       8.562   6.602  21.452  0.00  0.00    -0.042 A 
ATOM     11  C8  UNL     1       9.780   6.232  20.946  0.00  0.00    -0.024 A 
ATOM     12  C9  UNL     1      10.675   7.183  20.450  0.00  0.00    +0.009 A 
ATOM     13  C10 UNL     1       9.982   4.761  20.993  0.00  0.00    +0.105 C 
ATOM     14  C17 UNL     1       8.656   4.222  21.578  0.00  0.00    +0.032 C 
ATOM     15  C18 UNL     1       7.769   5.439  21.914  0.00  0.00    +0.037 C 
BRANCH   7  17
ATOM     16  C1  UNL     1      10.487  10.754  19.285  0.00  0.00    +0.012 C 
ATOM     17  C2  UNL     1      11.261   9.616  19.961  0.00  0.00    +0.013 C 
ATOM     18  C3  UNL     1      12.161  10.149  21.082  0.00  0.00    +0.012 C 
ENDBRANCH   7  17
ENDBRANCH   1  13
BRANCH   4  19
ATOM     19  C12 UNL     1      13.753   1.721  22.411  0.00  0.00    +0.084 A 
ATOM     20  C13 UNL     1      13.443   0.523  23.016  0.00  0.00    +0.158 A 
ATOM     21  N3  UNL     1      14.395  -0.379  22.709  0.00  0.00    -0.177 NA
ATOM     22  N4  UNL     1      15.282   0.212  21.920  0.00  0.00    -0.261 N 
ATOM     23  C14 UNL     1      16.445  -0.482  21.377  0.00  0.00    +0.173 C 
ATOM     24  C15 UNL     1      14.909   1.492  21.681  0.00  0.00    +0.163 A 
BRANCH  24  25
ATOM     25  C16 UNL     1      15.631   2.453  20.769  0.00  0.00    +0.436 C 
ATOM     26  F1  UNL     1      15.608   1.987  19.468  0.00  0.00    -0.164 F 
ATOM     27  F2  UNL     1      15.024   3.695  20.786  0.00  0.00    -0.164 F 
ATOM     28  F3  UNL     1      16.945   2.579  21.180  0.00  0.00    -0.164 F 
ENDBRANCH  24  25
ENDBRANCH   4  19
TORSDOF 4
ENDMDL
