REMARK  Name = /home/qwerty/github/datacon2025hack/step_04_hit_selection/docking/ligands/lig_694.pdb
REMARK  4 active torsions:
REMARK  status: ('A' for Active; 'I' for Inactive)
REMARK    1  A    between atoms: C1_2  and  C10_15
REMARK    2  A    between atoms: N1_3  and  C2_4
REMARK    3  A    between atoms: N2_7  and  C5_8
REMARK    4  A    between atoms: C5_8  and  C6_9
REMARK                            x       y       z     vdW  Elec       q    Type
REMARK                         _______ _______ _______ _____ _____    ______ ____
ROOT
ATOM      1  O1  UNL     1       0.870   1.015  -1.505  0.00  0.00    -0.270 OA
ATOM      2  C1  UNL     1       1.382   0.140  -0.754  0.00  0.00    +0.244 C 
ATOM      3  N1  UNL     1       0.538  -0.839  -0.126  0.00  0.00    -0.307 N 
ATOM      4  H1  UNL     1       0.904  -1.358   0.704  0.00  0.00    +0.149 HD
ENDROOT
BRANCH   2   5
ATOM      5  C10 UNL     1       2.846   0.152  -0.517  0.00  0.00    +0.038 A 
ATOM      6  C11 UNL     1       3.528  -1.021  -0.104  0.00  0.00    +0.015 A 
ATOM      7  C12 UNL     1       4.916  -1.009   0.114  0.00  0.00    +0.029 A 
ATOM      8  C13 UNL     1       5.618   0.178  -0.088  0.00  0.00    +0.078 A 
ATOM      9  N4  UNL     1       6.957   0.318   0.087  0.00  0.00    -0.247 NA
ATOM     10  C14 UNL     1       7.359   1.583  -0.188  0.00  0.00    +0.157 A 
ATOM     11  S1  UNL     1       6.064   2.567  -0.658  0.00  0.00    -0.075 S 
ATOM     12  C15 UNL     1       4.955   1.319  -0.501  0.00  0.00    +0.040 A 
ATOM     13  C16 UNL     1       3.582   1.339  -0.726  0.00  0.00    +0.030 A 
ENDBRANCH   2   5
BRANCH   3  14
ATOM     14  C2  UNL     1      -0.896  -0.927  -0.421  0.00  0.00    +0.088 C 
ATOM     15  C3  UNL     1      -1.431  -2.332  -0.169  0.00  0.00    +0.039 C 
ATOM     16  C4  UNL     1      -2.424  -2.179   0.972  0.00  0.00    +0.086 C 
ATOM     17  N2  UNL     1      -2.856  -0.775   1.006  0.00  0.00    -0.295 NA
ATOM     18  C9  UNL     1      -1.698  -0.015   0.509  0.00  0.00    +0.107 C 
BRANCH  17  19
ATOM     19  C5  UNL     1      -4.048  -0.567   0.156  0.00  0.00    +0.143 C 
BRANCH  19  20
ATOM     20  C6  UNL     1      -4.653   0.777   0.425  0.00  0.00    +0.097 A 
ATOM     21  C7  UNL     1      -4.737   1.826  -0.466  0.00  0.00    +0.068 A 
ATOM     22  C8  UNL     1      -5.351   2.823   0.260  0.00  0.00    +0.230 A 
ATOM     23  O2  UNL     1      -5.592   2.370   1.469  0.00  0.00    -0.363 OA
ATOM     24  N3  UNL     1      -5.185   1.141   1.607  0.00  0.00    -0.082 NA
ENDBRANCH  19  20
ENDBRANCH  17  19
ENDBRANCH   3  14
TORSDOF 4
