REMARK  Name = /home/qwerty/github/datacon2025hack/step_04_hit_selection/docking/ligands/lig_52.pdb
REMARK  7 active torsions:
REMARK  status: ('A' for Active; 'I' for Inactive)
REMARK    1  A    between atoms: C1_1  and  C2_2
REMARK    2  A    between atoms: C2_2  and  C3_3
REMARK    3  A    between atoms: C2_2  and  N1_4
REMARK    4  A    between atoms: C4_5  and  C5_7
REMARK    5  A    between atoms: C8_13  and  C9_14
REMARK    6  A    between atoms: C13_20  and  C14_21
REMARK    7  A    between atoms: N5_23  and  C16_24
REMARK                            x       y       z     vdW  Elec       q    Type
REMARK                         _______ _______ _______ _____ _____    ______ ____
ROOT
ATOM      1  C5  UNL     1       2.248  -1.224   1.049  0.00  0.00    +0.220 A 
ATOM      2  N2  UNL     1       1.740  -1.973   2.047  0.00  0.00    -0.123 NA
ATOM      3  N3  UNL     1       0.497  -1.565   2.252  0.00  0.00    -0.113 NA
ATOM      4  C6  UNL     1       0.265  -0.570   1.374  0.00  0.00    +0.220 A 
ATOM      5  N4  UNL     1      -0.988   0.130   1.297  0.00  0.00    -0.294 N 
ATOM      6  C7  UNL     1      -1.741   0.405   2.520  0.00  0.00    +0.139 C 
ATOM      7  C8  UNL     1      -3.029   1.180   2.184  0.00  0.00    +0.133 C 
ATOM      8  C9  UNL     1      -3.866   1.391   3.444  0.00  0.00    +0.039 C 
ATOM      9  O2  UNL     1      -3.811   0.484   1.228  0.00  0.00    -0.365 OA
ATOM     10  C10 UNL     1      -3.110   0.120   0.033  0.00  0.00    +0.113 C 
ATOM     11  C11 UNL     1      -3.257  -1.375  -0.178  0.00  0.00    +0.067 C 
ATOM     12  C12 UNL     1      -3.382  -1.519  -1.688  0.00  0.00    +0.163 C 
ATOM     13  O3  UNL     1      -3.656  -0.259  -2.260  0.00  0.00    -0.374 OA
ATOM     14  C13 UNL     1      -3.881   0.633  -1.195  0.00  0.00    +0.149 C 
ATOM     15  C14 UNL     1      -3.551   2.064  -1.626  0.00  0.00    +0.041 C 
ATOM     16  C15 UNL     1      -1.588   0.493   0.013  0.00  0.00    +0.145 C 
ATOM     17  N5  UNL     1       1.350  -0.311   0.613  0.00  0.00    -0.295 N 
ATOM     18  C16 UNL     1       1.561   0.808  -0.307  0.00  0.00    +0.154 C 
ENDROOT
BRANCH   1  20
ATOM     19  N1  UNL     1       3.955  -1.120  -0.820  0.00  0.00    -0.306 N 
ATOM     20  C4  UNL     1       3.626  -1.392   0.551  0.00  0.00    +0.282 C 
ATOM     21  O1  UNL     1       4.509  -1.828   1.337  0.00  0.00    -0.267 OA
ATOM     22  H8  UNL     1       3.176  -1.042  -1.512  0.00  0.00    +0.149 HD
BRANCH  19  24
ATOM     23  C1  UNL     1       5.995   0.248  -0.780  0.00  0.00    +0.027 C 
ATOM     24  C2  UNL     1       5.342  -1.041  -1.289  0.00  0.00    +0.067 C 
ATOM     25  C3  UNL     1       5.392  -1.095  -2.819  0.00  0.00    +0.027 C 
ENDBRANCH  19  24
ENDBRANCH   1  20
TORSDOF 2
