REMARK  Name = /home/qwerty/github/datacon2025hack/step_04_hit_selection/docking/ligands/lig_392.pdb
REMARK  7 active torsions:
REMARK  status: ('A' for Active; 'I' for Inactive)
REMARK    1  A    between atoms: C1_1  and  C2_2
REMARK    2  A    between atoms: C2_2  and  C3_3
REMARK    3  A    between atoms: C2_2  and  C4_4
REMARK    4  A    between atoms: C4_4  and  N1_5
REMARK    5  A    between atoms: C8_12  and  C9_13
REMARK    6  A    between atoms: N5_20  and  C15_21
REMARK    7  A    between atoms: C15_21  and  C16_22
REMARK                            x       y       z     vdW  Elec       q    Type
REMARK                         _______ _______ _______ _____ _____    ______ ____
ROOT
ATOM      1  N1  UNL     1      -3.542   0.728  -0.624  0.00  0.00    -0.298 N 
ATOM      2  C5  UNL     1      -3.132   0.393   0.743  0.00  0.00    +0.127 C 
ATOM      3  C6  UNL     1      -1.612   0.473   0.849  0.00  0.00    +0.127 C 
ATOM      4  N2  UNL     1      -0.994  -0.459  -0.106  0.00  0.00    -0.289 N 
ATOM      5  C7  UNL     1       0.102  -1.295   0.306  0.00  0.00    +0.220 A 
ATOM      6  N3  UNL     1       0.136  -2.619   0.063  0.00  0.00    -0.113 NA
ATOM      7  N4  UNL     1       1.287  -3.068   0.536  0.00  0.00    -0.128 NA
ATOM      8  C8  UNL     1       1.937  -2.013   1.064  0.00  0.00    +0.166 A 
ATOM      9  N5  UNL     1       1.224  -0.868   0.934  0.00  0.00    -0.293 N 
ATOM     10  C20 UNL     1      -1.586  -0.701  -1.434  0.00  0.00    +0.203 C 
ATOM     11  C21 UNL     1      -2.757   0.202  -1.712  0.00  0.00    +0.233 C 
ATOM     12  O3  UNL     1      -3.051   0.474  -2.907  0.00  0.00    -0.274 OA
ENDROOT
BRANCH   8  13
ATOM     13  C9  UNL     1       3.297  -2.118   1.625  0.00  0.00    +0.019 A 
ATOM     14  C10 UNL     1       4.301  -2.780   0.901  0.00  0.00    +0.012 A 
ATOM     15  C11 UNL     1       5.592  -2.889   1.425  0.00  0.00    +0.016 A 
ATOM     16  C12 UNL     1       5.887  -2.351   2.682  0.00  0.00    +0.018 A 
ATOM     17 BR1  UNL     1       7.651  -2.501   3.398  0.00  0.00    -0.050 Br
ATOM     18  C13 UNL     1       4.885  -1.711   3.419  0.00  0.00    +0.016 A 
ATOM     19  C14 UNL     1       3.592  -1.600   2.896  0.00  0.00    +0.012 A 
ENDBRANCH   8  13
BRANCH   1  20
ATOM     20  C4  UNL     1      -4.611   1.714  -0.861  0.00  0.00    +0.110 C 
BRANCH  20  22
ATOM     21  C1  UNL     1      -6.434   0.352   0.300  0.00  0.00    +0.009 C 
ATOM     22  C2  UNL     1      -6.005   1.061  -0.991  0.00  0.00    +0.000 C 
ATOM     23  C3  UNL     1      -6.095   0.108  -2.188  0.00  0.00    +0.009 C 
ENDBRANCH  20  22
ENDBRANCH   1  20
BRANCH   9  24
ATOM     24  C15 UNL     1       1.717   0.508   1.097  0.00  0.00    +0.160 C 
BRANCH  24  25
ATOM     25  C16 UNL     1       2.663   0.902  -0.049  0.00  0.00    +0.164 C 
ATOM     26  C17 UNL     1       1.924   1.013  -1.410  0.00  0.00    +0.193 C 
ATOM     27  O1  UNL     1       2.420   2.072  -2.214  0.00  0.00    -0.375 OA
ATOM     28  C18 UNL     1       3.829   2.121  -2.143  0.00  0.00    +0.188 C 
ATOM     29  C19 UNL     1       4.281   2.429  -0.699  0.00  0.00    +0.188 C 
ATOM     30  O2  UNL     1       3.273   2.140   0.256  0.00  0.00    -0.370 OA
ENDBRANCH  24  25
ENDBRANCH   9  24
TORSDOF 5
